MODEL 1
REMARK VINA RESULT:      -6.8      0.000      0.000
REMARK  Name = 11911984
REMARK  7 active torsions:
REMARK  status: ('A' for Active; 'I' for Inactive)
REMARK    1  A    between atoms: N_5  and  C_17
REMARK    2  A    between atoms: C_6  and  C_12
REMARK    3  A    between atoms: C_7  and  C_11
REMARK    4  A    between atoms: C_11  and  C_13
REMARK    5  A    between atoms: C_12  and  C_15
REMARK    6  A    between atoms: C_14  and  C_16
REMARK    7  A    between atoms: C_17  and  C_20
REMARK                            x       y       z     vdW  Elec       q    Type
REMARK                         _______ _______ _______ _____ _____    ______ ____
ROOT
ATOM      2  O   UNL     1      -8.642 -11.044  20.077  0.00  0.00    -0.270 OA
ATOM      4  N   UNL     1      -7.357 -11.154  18.127  0.00  0.00    -0.297 N 
ATOM      6  C   UNL     1      -4.724 -10.596  16.992  0.00  0.00    +0.004 C 
ATOM      7  C   UNL     1      -6.035 -10.109  16.320  0.00  0.00    +0.010 C 
ATOM      8  C   UNL     1      -4.957 -10.779  18.505  0.00  0.00    +0.023 C 
ATOM      9  C   UNL     1      -7.222 -11.020  16.669  0.00  0.00    +0.112 C 
ATOM     10  C   UNL     1      -6.167 -11.660  18.810  0.00  0.00    +0.108 C 
ATOM     14  C   UNL     1      -8.514 -10.890  18.864  0.00  0.00    +0.247 C 
ENDROOT
BRANCH  14  16
ATOM     16  C   UNL     1      -9.687 -10.369  18.150  0.00  0.00    +0.037 A 
ATOM     18  C   UNL     1     -10.712 -11.235  17.779  0.00  0.00    +0.013 A 
ATOM     19  C   UNL     1      -9.767  -9.012  17.848  0.00  0.00    +0.013 A 
ATOM     21  C   UNL     1     -11.826 -10.740  17.100  0.00  0.00    +0.001 A 
ATOM     22  C   UNL     1     -10.882  -8.518  17.171  0.00  0.00    +0.001 A 
ATOM     23  C   UNL     1     -11.912  -9.381  16.797  0.00  0.00    +0.000 A 
ENDBRANCH  14  16
BRANCH   7  11
ATOM     11  C   UNL     1      -5.909  -9.948  14.806  0.00  0.00    +0.002 C 
ATOM     13  C   UNL     1      -7.214 -10.274  14.111  0.00  0.00    +0.004 C 
ENDBRANCH   7  11
BRANCH   6  12
ATOM     12  C   UNL     1      -4.140 -11.869  16.372  0.00  0.00    +0.099 C 
BRANCH  12  15
ATOM      3  O   UNL     1      -1.953 -10.942  15.919  0.00  0.00    -0.276 OA
ATOM      5  N   UNL     1      -3.048 -12.146  14.260  0.00  0.00    -0.311 N 
ATOM     15  C   UNL     1      -2.920 -11.587  15.523  0.00  0.00    +0.214 C 
ATOM     29  H   UNL     1      -3.887 -12.670  14.027  0.00  0.00    +0.149 HD
BRANCH   5  17
ATOM     17  C   UNL     1      -2.033 -12.031  13.239  0.00  0.00    +0.139 C 
BRANCH  17  20
ATOM      1  F   UNL     1      -3.639  -8.654   9.043  0.00  0.00    -0.205 F 
ATOM     20  C   UNL     1      -2.461 -11.129  12.118  0.00  0.00    -0.030 A 
ATOM     24  C   UNL     1      -3.629 -11.410  11.418  0.00  0.00    +0.008 A 
ATOM     25  C   UNL     1      -1.687 -10.023  11.791  0.00  0.00    +0.008 A 
ATOM     26  C   UNL     1      -4.028 -10.572  10.377  0.00  0.00    +0.038 A 
ATOM     27  C   UNL     1      -2.085  -9.184  10.751  0.00  0.00    +0.038 A 
ATOM     28  C   UNL     1      -3.256  -9.458  10.043  0.00  0.00    +0.123 A 
ENDBRANCH  17  20
ENDBRANCH   5  17
ENDBRANCH  12  15
ENDBRANCH   6  12
TORSDOF 6
ENDMDL
MODEL 2
REMARK VINA RESULT:      -6.7      1.825      2.706
REMARK  Name = 11911984
REMARK  7 active torsions:
REMARK  status: ('A' for Active; 'I' for Inactive)
REMARK    1  A    between atoms: N_5  and  C_17
REMARK    2  A    between atoms: C_6  and  C_12
REMARK    3  A    between atoms: C_7  and  C_11
REMARK    4  A    between atoms: C_11  and  C_13
REMARK    5  A    between atoms: C_12  and  C_15
REMARK    6  A    between atoms: C_14  and  C_16
REMARK    7  A    between atoms: C_17  and  C_20
REMARK                            x       y       z     vdW  Elec       q    Type
REMARK                         _______ _______ _______ _____ _____    ______ ____
ROOT
ATOM      2  O   UNL     1      -8.703 -10.232  13.896  0.00  0.00    -0.270 OA
ATOM      4  N   UNL     1      -6.856 -10.224  15.330  0.00  0.00    -0.297 N 
ATOM      6  C   UNL     1      -4.420 -11.661  16.062  0.00  0.00    +0.004 C 
ATOM      7  C   UNL     1      -5.472 -11.226  17.116  0.00  0.00    +0.010 C 
ATOM      8  C   UNL     1      -5.101 -11.822  14.688  0.00  0.00    +0.023 C 
ATOM      9  C   UNL     1      -6.259  -9.990  16.653  0.00  0.00    +0.112 C 
ATOM     10  C   UNL     1      -5.903 -10.587  14.282  0.00  0.00    +0.108 C 
ATOM     14  C   UNL     1      -8.208 -10.079  15.012  0.00  0.00    +0.247 C 
ENDROOT
BRANCH  14  16
ATOM     16  C   UNL     1      -9.141  -9.728  16.091  0.00  0.00    +0.037 A 
ATOM     18  C   UNL     1      -9.779 -10.736  16.809  0.00  0.00    +0.013 A 
ATOM     19  C   UNL     1      -9.380  -8.389  16.391  0.00  0.00    +0.013 A 
ATOM     21  C   UNL     1     -10.665 -10.402  17.834  0.00  0.00    +0.001 A 
ATOM     22  C   UNL     1     -10.265  -8.057  17.417  0.00  0.00    +0.001 A 
ATOM     23  C   UNL     1     -10.907  -9.063  18.138  0.00  0.00    +0.000 A 
ENDBRANCH  14  16
BRANCH   7  11
ATOM     11  C   UNL     1      -4.871 -10.993  18.501  0.00  0.00    +0.002 C 
ATOM     13  C   UNL     1      -5.952 -10.707  19.523  0.00  0.00    +0.004 C 
ENDBRANCH   7  11
BRANCH   6  12
ATOM     12  C   UNL     1      -3.211 -10.726  15.963  0.00  0.00    +0.099 C 
BRANCH  12  15
ATOM      3  O   UNL     1      -1.539 -12.032  14.801  0.00  0.00    -0.276 OA
ATOM      5  N   UNL     1      -2.471 -10.179  13.753  0.00  0.00    -0.311 N 
ATOM     15  C   UNL     1      -2.309 -11.075  14.799  0.00  0.00    +0.214 C 
ATOM     29  H   UNL     1      -3.141  -9.420  13.842  0.00  0.00    +0.149 HD
BRANCH   5  17
ATOM     17  C   UNL     1      -1.735 -10.270  12.513  0.00  0.00    +0.139 C 
BRANCH  17  20
ATOM      1  F   UNL     1      -5.144 -10.655   8.061  0.00  0.00    -0.205 F 
ATOM     20  C   UNL     1      -2.646 -10.372  11.324  0.00  0.00    -0.030 A 
ATOM     24  C   UNL     1      -3.232 -11.593  11.011  0.00  0.00    +0.008 A 
ATOM     25  C   UNL     1      -2.893  -9.247  10.548  0.00  0.00    +0.008 A 
ATOM     26  C   UNL     1      -4.078 -11.689   9.906  0.00  0.00    +0.038 A 
ATOM     27  C   UNL     1      -3.739  -9.341   9.444  0.00  0.00    +0.038 A 
ATOM     28  C   UNL     1      -4.332 -10.563   9.123  0.00  0.00    +0.123 A 
ENDBRANCH  17  20
ENDBRANCH   5  17
ENDBRANCH  12  15
ENDBRANCH   6  12
TORSDOF 6
ENDMDL
MODEL 3
REMARK VINA RESULT:      -6.6      1.363      1.984
REMARK  Name = 11911984
REMARK  7 active torsions:
REMARK  status: ('A' for Active; 'I' for Inactive)
REMARK    1  A    between atoms: N_5  and  C_17
REMARK    2  A    between atoms: C_6  and  C_12
REMARK    3  A    between atoms: C_7  and  C_11
REMARK    4  A    between atoms: C_11  and  C_13
REMARK    5  A    between atoms: C_12  and  C_15
REMARK    6  A    between atoms: C_14  and  C_16
REMARK    7  A    between atoms: C_17  and  C_20
REMARK                            x       y       z     vdW  Elec       q    Type
REMARK                         _______ _______ _______ _____ _____    ______ ____
ROOT
ATOM      2  O   UNL     1      -6.670 -10.328  20.019  0.00  0.00    -0.270 OA
ATOM      4  N   UNL     1      -6.268 -11.128  17.859  0.00  0.00    -0.297 N 
ATOM      6  C   UNL     1      -4.329 -11.175  15.675  0.00  0.00    +0.004 C 
ATOM      7  C   UNL     1      -5.815 -10.790  15.453  0.00  0.00    +0.010 C 
ATOM      8  C   UNL     1      -3.931 -10.881  17.135  0.00  0.00    +0.023 C 
ATOM      9  C   UNL     1      -6.731 -11.443  16.500  0.00  0.00    +0.112 C 
ATOM     10  C   UNL     1      -4.887 -11.516  18.143  0.00  0.00    +0.108 C 
ATOM     14  C   UNL     1      -7.043 -10.552  18.869  0.00  0.00    +0.247 C 
ENDROOT
BRANCH  14  16
ATOM     16  C   UNL     1      -8.421 -10.159  18.546  0.00  0.00    +0.037 A 
ATOM     18  C   UNL     1      -8.653  -9.064  17.717  0.00  0.00    +0.013 A 
ATOM     19  C   UNL     1      -9.488 -10.884  19.070  0.00  0.00    +0.013 A 
ATOM     21  C   UNL     1      -9.962  -8.692  17.411  0.00  0.00    +0.001 A 
ATOM     22  C   UNL     1     -10.797 -10.511  18.762  0.00  0.00    +0.001 A 
ATOM     23  C   UNL     1     -11.033  -9.415  17.933  0.00  0.00    +0.000 A 
ENDBRANCH  14  16
BRANCH   7  11
ATOM     11  C   UNL     1      -6.309 -11.096  14.041  0.00  0.00    +0.002 C 
ATOM     13  C   UNL     1      -5.955  -9.977  13.084  0.00  0.00    +0.004 C 
ENDBRANCH   7  11
BRANCH   6  12
ATOM     12  C   UNL     1      -3.996 -12.623  15.301  0.00  0.00    +0.099 C 
BRANCH  12  15
ATOM      3  O   UNL     1      -2.632 -13.765  13.663  0.00  0.00    -0.276 OA
ATOM      5  N   UNL     1      -2.845 -11.453  13.559  0.00  0.00    -0.311 N 
ATOM     15  C   UNL     1      -3.087 -12.710  14.095  0.00  0.00    +0.214 C 
ATOM     29  H   UNL     1      -3.274 -10.636  13.984  0.00  0.00    +0.149 HD
BRANCH   5  17
ATOM     17  C   UNL     1      -2.008 -11.236  12.402  0.00  0.00    +0.139 C 
BRANCH  17  20
ATOM      1  F   UNL     1      -4.997  -9.686   7.902  0.00  0.00    -0.205 F 
ATOM     20  C   UNL     1      -2.806 -10.823  11.200  0.00  0.00    -0.030 A 
ATOM     24  C   UNL     1      -2.752  -9.505  10.759  0.00  0.00    +0.008 A 
ATOM     25  C   UNL     1      -3.591 -11.760  10.540  0.00  0.00    +0.008 A 
ATOM     26  C   UNL     1      -3.494  -9.121   9.643  0.00  0.00    +0.038 A 
ATOM     27  C   UNL     1      -4.332 -11.377   9.423  0.00  0.00    +0.038 A 
ATOM     28  C   UNL     1      -4.284 -10.056   8.974  0.00  0.00    +0.123 A 
ENDBRANCH  17  20
ENDBRANCH   5  17
ENDBRANCH  12  15
ENDBRANCH   6  12
TORSDOF 6
ENDMDL
MODEL 4
REMARK VINA RESULT:      -6.4     24.768     29.989
REMARK  Name = 11911984
REMARK  7 active torsions:
REMARK  status: ('A' for Active; 'I' for Inactive)
REMARK    1  A    between atoms: N_5  and  C_17
REMARK    2  A    between atoms: C_6  and  C_12
REMARK    3  A    between atoms: C_7  and  C_11
REMARK    4  A    between atoms: C_11  and  C_13
REMARK    5  A    between atoms: C_12  and  C_15
REMARK    6  A    between atoms: C_14  and  C_16
REMARK    7  A    between atoms: C_17  and  C_20
REMARK                            x       y       z     vdW  Elec       q    Type
REMARK                         _______ _______ _______ _____ _____    ______ ____
ROOT
ATOM      2  O   UNL     1      18.708   9.037   2.506  0.00  0.00    -0.270 OA
ATOM      4  N   UNL     1      16.878   8.030   3.557  0.00  0.00    -0.297 N 
ATOM      6  C   UNL     1      13.994   8.216   3.983  0.00  0.00    +0.004 C 
ATOM      7  C   UNL     1      14.994   8.048   5.156  0.00  0.00    +0.010 C 
ATOM      8  C   UNL     1      14.705   8.887   2.790  0.00  0.00    +0.023 C 
ATOM      9  C   UNL     1      16.280   7.337   4.707  0.00  0.00    +0.112 C 
ATOM     10  C   UNL     1      15.996   8.171   2.399  0.00  0.00    +0.108 C 
ATOM     14  C   UNL     1      18.192   8.497   3.484  0.00  0.00    +0.247 C 
ENDROOT
BRANCH  14  16
ATOM     16  C   UNL     1      19.047   8.353   4.669  0.00  0.00    +0.037 A 
ATOM     18  C   UNL     1      18.746   9.062   5.829  0.00  0.00    +0.013 A 
ATOM     19  C   UNL     1      20.152   7.507   4.628  0.00  0.00    +0.013 A 
ATOM     21  C   UNL     1      19.557   8.925   6.956  0.00  0.00    +0.001 A 
ATOM     22  C   UNL     1      20.963   7.370   5.755  0.00  0.00    +0.001 A 
ATOM     23  C   UNL     1      20.665   8.079   6.919  0.00  0.00    +0.000 A 
ENDBRANCH  14  16
BRANCH   7  11
ATOM     11  C   UNL     1      14.385   7.344   6.367  0.00  0.00    +0.002 C 
ATOM     13  C   UNL     1      13.257   8.161   6.964  0.00  0.00    +0.004 C 
ENDBRANCH   7  11
BRANCH   6  12
ATOM     12  C   UNL     1      13.315   6.913   3.549  0.00  0.00    +0.099 C 
BRANCH  12  15
ATOM      3  O   UNL     1      11.096   7.861   3.394  0.00  0.00    -0.276 OA
ATOM      5  N   UNL     1      11.391   5.812   4.452  0.00  0.00    -0.311 N 
ATOM     15  C   UNL     1      11.819   6.943   3.772  0.00  0.00    +0.214 C 
ATOM     29  H   UNL     1      12.066   5.101   4.718  0.00  0.00    +0.149 HD
BRANCH   5  17
ATOM     17  C   UNL     1      10.009   5.577   4.802  0.00  0.00    +0.139 C 
BRANCH  17  20
ATOM      1  F   UNL     1       9.328   4.894  10.339  0.00  0.00    -0.205 F 
ATOM     20  C   UNL     1       9.827   5.394   6.281  0.00  0.00    -0.030 A 
ATOM     24  C   UNL     1       9.528   6.494   7.078  0.00  0.00    +0.008 A 
ATOM     25  C   UNL     1       9.960   4.129   6.839  0.00  0.00    +0.008 A 
ATOM     26  C   UNL     1       9.358   6.324   8.452  0.00  0.00    +0.038 A 
ATOM     27  C   UNL     1       9.790   3.958   8.213  0.00  0.00    +0.038 A 
ATOM     28  C   UNL     1       9.490   5.056   9.019  0.00  0.00    +0.123 A 
ENDBRANCH  17  20
ENDBRANCH   5  17
ENDBRANCH  12  15
ENDBRANCH   6  12
TORSDOF 6
ENDMDL
MODEL 5
REMARK VINA RESULT:      -6.4      3.151      7.903
REMARK  Name = 11911984
REMARK  7 active torsions:
REMARK  status: ('A' for Active; 'I' for Inactive)
REMARK    1  A    between atoms: N_5  and  C_17
REMARK    2  A    between atoms: C_6  and  C_12
REMARK    3  A    between atoms: C_7  and  C_11
REMARK    4  A    between atoms: C_11  and  C_13
REMARK    5  A    between atoms: C_12  and  C_15
REMARK    6  A    between atoms: C_14  and  C_16
REMARK    7  A    between atoms: C_17  and  C_20
REMARK                            x       y       z     vdW  Elec       q    Type
REMARK                         _______ _______ _______ _____ _____    ______ ____
ROOT
ATOM      2  O   UNL     1      -7.449  -9.226  12.576  0.00  0.00    -0.270 OA
ATOM      4  N   UNL     1      -5.893 -10.417  13.852  0.00  0.00    -0.297 N 
ATOM      6  C   UNL     1      -4.449 -10.461  16.391  0.00  0.00    +0.004 C 
ATOM      7  C   UNL     1      -3.728 -10.621  15.027  0.00  0.00    +0.010 C 
ATOM      8  C   UNL     1      -5.762  -9.677  16.193  0.00  0.00    +0.023 C 
ATOM      9  C   UNL     1      -4.661 -11.213  13.959  0.00  0.00    +0.112 C 
ATOM     10  C   UNL     1      -6.644 -10.276  15.099  0.00  0.00    +0.108 C 
ATOM     14  C   UNL     1      -6.396  -9.854  12.677  0.00  0.00    +0.247 C 
ENDROOT
BRANCH  14  16
ATOM     16  C   UNL     1      -5.610 -10.001  11.445  0.00  0.00    +0.037 A 
ATOM     18  C   UNL     1      -5.652 -11.198  10.735  0.00  0.00    +0.013 A 
ATOM     19  C   UNL     1      -4.826  -8.942  10.993  0.00  0.00    +0.013 A 
ATOM     21  C   UNL     1      -4.905 -11.338   9.565  0.00  0.00    +0.001 A 
ATOM     22  C   UNL     1      -4.080  -9.082   9.823  0.00  0.00    +0.001 A 
ATOM     23  C   UNL     1      -4.120 -10.280   9.109  0.00  0.00    +0.000 A 
ENDBRANCH  14  16
BRANCH   7  11
ATOM     11  C   UNL     1      -2.437 -11.432  15.123  0.00  0.00    +0.002 C 
ATOM     13  C   UNL     1      -1.276 -10.561  15.556  0.00  0.00    +0.004 C 
ENDBRANCH   7  11
BRANCH   6  12
ATOM     12  C   UNL     1      -4.710 -11.784  17.119  0.00  0.00    +0.099 C 
BRANCH  12  15
ATOM      3  O   UNL     1      -4.975 -10.963  19.378  0.00  0.00    -0.276 OA
ATOM      5  N   UNL     1      -6.689 -12.191  18.402  0.00  0.00    -0.311 N 
ATOM     15  C   UNL     1      -5.442 -11.584  18.428  0.00  0.00    +0.214 C 
ATOM     29  H   UNL     1      -6.992 -12.678  17.564  0.00  0.00    +0.149 HD
BRANCH   5  17
ATOM     17  C   UNL     1      -7.605 -12.162  19.519  0.00  0.00    +0.139 C 
BRANCH  17  20
ATOM      1  F   UNL     1     -12.094  -8.945  18.474  0.00  0.00    -0.205 F 
ATOM     20  C   UNL     1      -8.805 -11.303  19.240  0.00  0.00    -0.030 A 
ATOM     24  C   UNL     1      -8.789 -10.432  18.157  0.00  0.00    +0.008 A 
ATOM     25  C   UNL     1      -9.918 -11.386  20.067  0.00  0.00    +0.008 A 
ATOM     26  C   UNL     1      -9.903  -9.634  17.897  0.00  0.00    +0.038 A 
ATOM     27  C   UNL     1     -11.032 -10.590  19.808  0.00  0.00    +0.038 A 
ATOM     28  C   UNL     1     -11.025  -9.712  18.723  0.00  0.00    +0.123 A 
ENDBRANCH  17  20
ENDBRANCH   5  17
ENDBRANCH  12  15
ENDBRANCH   6  12
TORSDOF 6
ENDMDL
MODEL 6
REMARK VINA RESULT:      -6.3     25.144     27.453
REMARK  Name = 11911984
REMARK  7 active torsions:
REMARK  status: ('A' for Active; 'I' for Inactive)
REMARK    1  A    between atoms: N_5  and  C_17
REMARK    2  A    between atoms: C_6  and  C_12
REMARK    3  A    between atoms: C_7  and  C_11
REMARK    4  A    between atoms: C_11  and  C_13
REMARK    5  A    between atoms: C_12  and  C_15
REMARK    6  A    between atoms: C_14  and  C_16
REMARK    7  A    between atoms: C_17  and  C_20
REMARK                            x       y       z     vdW  Elec       q    Type
REMARK                         _______ _______ _______ _____ _____    ______ ____
ROOT
ATOM      2  O   UNL     1       8.342   7.701   7.922  0.00  0.00    -0.270 OA
ATOM      4  N   UNL     1       9.439   7.551   5.863  0.00  0.00    -0.297 N 
ATOM      6  C   UNL     1      10.962   5.773   4.116  0.00  0.00    +0.004 C 
ATOM      7  C   UNL     1      11.459   7.195   4.484  0.00  0.00    +0.010 C 
ATOM      8  C   UNL     1      10.025   5.250   5.222  0.00  0.00    +0.023 C 
ATOM      9  C   UNL     1      10.290   8.135   4.816  0.00  0.00    +0.112 C 
ATOM     10  C   UNL     1       8.898   6.229   5.548  0.00  0.00    +0.108 C 
ATOM     14  C   UNL     1       9.089   8.170   7.065  0.00  0.00    +0.247 C 
ENDROOT
BRANCH  14  16
ATOM     16  C   UNL     1       9.662   9.491   7.357  0.00  0.00    +0.037 A 
ATOM     18  C   UNL     1       9.030  10.639   6.887  0.00  0.00    +0.013 A 
ATOM     19  C   UNL     1      10.833   9.587   8.104  0.00  0.00    +0.013 A 
ATOM     21  C   UNL     1       9.574  11.893   7.165  0.00  0.00    +0.001 A 
ATOM     22  C   UNL     1      11.377  10.841   8.382  0.00  0.00    +0.001 A 
ATOM     23  C   UNL     1      10.747  11.994   7.913  0.00  0.00    +0.000 A 
ENDBRANCH  14  16
BRANCH   7  11
ATOM     11  C   UNL     1      12.359   7.812   3.414  0.00  0.00    +0.002 C 
ATOM     13  C   UNL     1      13.697   7.107   3.353  0.00  0.00    +0.004 C 
ENDBRANCH   7  11
BRANCH   6  12
ATOM     12  C   UNL     1      10.288   5.683   2.743  0.00  0.00    +0.099 C 
BRANCH  12  15
ATOM      3  O   UNL     1      10.107   3.951   1.065  0.00  0.00    -0.276 OA
ATOM      5  N   UNL     1      12.046   4.110   2.337  0.00  0.00    -0.311 N 
ATOM     15  C   UNL     1      10.772   4.494   1.943  0.00  0.00    +0.214 C 
ATOM     29  H   UNL     1      12.520   4.627   3.072  0.00  0.00    +0.149 HD
BRANCH   5  17
ATOM     17  C   UNL     1      12.755   3.000   1.744  0.00  0.00    +0.139 C 
BRANCH  17  20
ATOM      1  F   UNL     1      16.455   4.697  -2.132  0.00  0.00    -0.205 F 
ATOM     20  C   UNL     1      13.744   3.454   0.709  0.00  0.00    -0.030 A 
ATOM     24  C   UNL     1      13.339   3.593  -0.614  0.00  0.00    +0.008 A 
ATOM     25  C   UNL     1      15.054   3.729   1.082  0.00  0.00    +0.008 A 
ATOM     26  C   UNL     1      14.257   4.014  -1.576  0.00  0.00    +0.038 A 
ATOM     27  C   UNL     1      15.972   4.151   0.122  0.00  0.00    +0.038 A 
ATOM     28  C   UNL     1      15.574   4.294  -1.208  0.00  0.00    +0.123 A 
ENDBRANCH  17  20
ENDBRANCH   5  17
ENDBRANCH  12  15
ENDBRANCH   6  12
TORSDOF 6
ENDMDL
MODEL 7
REMARK VINA RESULT:      -6.2     25.545     30.569
REMARK  Name = 11911984
REMARK  7 active torsions:
REMARK  status: ('A' for Active; 'I' for Inactive)
REMARK    1  A    between atoms: N_5  and  C_17
REMARK    2  A    between atoms: C_6  and  C_12
REMARK    3  A    between atoms: C_7  and  C_11
REMARK    4  A    between atoms: C_11  and  C_13
REMARK    5  A    between atoms: C_12  and  C_15
REMARK    6  A    between atoms: C_14  and  C_16
REMARK    7  A    between atoms: C_17  and  C_20
REMARK                            x       y       z     vdW  Elec       q    Type
REMARK                         _______ _______ _______ _____ _____    ______ ____
ROOT
ATOM      2  O   UNL     1      18.999  11.612   6.069  0.00  0.00    -0.270 OA
ATOM      4  N   UNL     1      17.085  10.342   5.634  0.00  0.00    -0.297 N 
ATOM      6  C   UNL     1      14.342   9.822   6.495  0.00  0.00    +0.004 C 
ATOM      7  C   UNL     1      15.371   8.682   6.279  0.00  0.00    +0.010 C 
ATOM      8  C   UNL     1      15.084  11.133   6.825  0.00  0.00    +0.023 C 
ATOM      9  C   UNL     1      16.445   9.075   5.252  0.00  0.00    +0.112 C 
ATOM     10  C   UNL     1      16.167  11.468   5.801  0.00  0.00    +0.108 C 
ATOM     14  C   UNL     1      18.458  10.543   5.792  0.00  0.00    +0.247 C 
ENDROOT
BRANCH  14  16
ATOM     16  C   UNL     1      19.351   9.388   5.633  0.00  0.00    +0.037 A 
ATOM     18  C   UNL     1      19.937   8.806   6.754  0.00  0.00    +0.013 A 
ATOM     19  C   UNL     1      19.605   8.880   4.361  0.00  0.00    +0.013 A 
ATOM     21  C   UNL     1      20.784   7.708   6.602  0.00  0.00    +0.001 A 
ATOM     22  C   UNL     1      20.453   7.782   4.211  0.00  0.00    +0.001 A 
ATOM     23  C   UNL     1      21.042   7.196   5.331  0.00  0.00    +0.000 A 
ENDBRANCH  14  16
BRANCH   7  11
ATOM     11  C   UNL     1      14.722   7.353   5.897  0.00  0.00    +0.002 C 
ATOM     13  C   UNL     1      13.872   6.815   7.029  0.00  0.00    +0.004 C 
ENDBRANCH   7  11
BRANCH   6  12
ATOM     12  C   UNL     1      13.378  10.024   5.321  0.00  0.00    +0.099 C 
BRANCH  12  15
ATOM      3  O   UNL     1      11.357  10.863   6.350  0.00  0.00    -0.276 OA
ATOM      5  N   UNL     1      11.353   8.750   5.382  0.00  0.00    -0.311 N 
ATOM     15  C   UNL     1      11.929   9.957   5.751  0.00  0.00    +0.214 C 
ATOM     29  H   UNL     1      11.907   8.062   4.881  0.00  0.00    +0.149 HD
BRANCH   5  17
ATOM     17  C   UNL     1       9.977   8.412   5.667  0.00  0.00    +0.139 C 
BRANCH  17  20
ATOM      1  F   UNL     1       9.548   3.654   8.628  0.00  0.00    -0.205 F 
ATOM     20  C   UNL     1       9.863   7.140   6.458  0.00  0.00    -0.030 A 
ATOM     24  C   UNL     1       9.585   7.201   7.819  0.00  0.00    +0.008 A 
ATOM     25  C   UNL     1      10.036   5.917   5.822  0.00  0.00    +0.008 A 
ATOM     26  C   UNL     1       9.478   6.020   8.554  0.00  0.00    +0.038 A 
ATOM     27  C   UNL     1       9.929   4.736   6.556  0.00  0.00    +0.038 A 
ATOM     28  C   UNL     1       9.650   4.787   7.922  0.00  0.00    +0.123 A 
ENDBRANCH  17  20
ENDBRANCH   5  17
ENDBRANCH  12  15
ENDBRANCH   6  12
TORSDOF 6
ENDMDL
MODEL 8
REMARK VINA RESULT:      -6.1      3.641      8.517
REMARK  Name = 11911984
REMARK  7 active torsions:
REMARK  status: ('A' for Active; 'I' for Inactive)
REMARK    1  A    between atoms: N_5  and  C_17
REMARK    2  A    between atoms: C_6  and  C_12
REMARK    3  A    between atoms: C_7  and  C_11
REMARK    4  A    between atoms: C_11  and  C_13
REMARK    5  A    between atoms: C_12  and  C_15
REMARK    6  A    between atoms: C_14  and  C_16
REMARK    7  A    between atoms: C_17  and  C_20
REMARK                            x       y       z     vdW  Elec       q    Type
REMARK                         _______ _______ _______ _____ _____    ______ ____
ROOT
ATOM      2  O   UNL     1      -4.884 -14.878   8.597  0.00  0.00    -0.270 OA
ATOM      4  N   UNL     1      -4.010 -13.082   9.813  0.00  0.00    -0.297 N 
ATOM      6  C   UNL     1      -3.855 -11.872  12.467  0.00  0.00    +0.004 C 
ATOM      7  C   UNL     1      -4.263 -11.060  11.211  0.00  0.00    +0.010 C 
ATOM      8  C   UNL     1      -4.185 -13.362  12.250  0.00  0.00    +0.023 C 
ATOM      9  C   UNL     1      -3.662 -11.659   9.929  0.00  0.00    +0.112 C 
ATOM     10  C   UNL     1      -3.601 -13.909  10.949  0.00  0.00    +0.108 C 
ATOM     14  C   UNL     1      -4.632 -13.680   8.715  0.00  0.00    +0.247 C 
ENDROOT
BRANCH  14  16
ATOM     16  C   UNL     1      -5.043 -12.819   7.598  0.00  0.00    +0.037 A 
ATOM     18  C   UNL     1      -4.155 -12.565   6.557  0.00  0.00    +0.013 A 
ATOM     19  C   UNL     1      -6.320 -12.263   7.587  0.00  0.00    +0.013 A 
ATOM     21  C   UNL     1      -4.546 -11.748   5.496  0.00  0.00    +0.001 A 
ATOM     22  C   UNL     1      -6.710 -11.446   6.525  0.00  0.00    +0.001 A 
ATOM     23  C   UNL     1      -5.824 -11.189   5.480  0.00  0.00    +0.000 A 
ENDBRANCH  14  16
BRANCH   7  11
ATOM     11  C   UNL     1      -3.924  -9.574  11.320  0.00  0.00    +0.002 C 
ATOM     13  C   UNL     1      -3.107  -9.112  10.132  0.00  0.00    +0.004 C 
ENDBRANCH   7  11
BRANCH   6  12
ATOM     12  C   UNL     1      -2.389 -11.694  12.877  0.00  0.00    +0.099 C 
BRANCH  12  15
ATOM      3  O   UNL     1      -1.519  -9.919  14.271  0.00  0.00    -0.276 OA
ATOM      5  N   UNL     1      -3.028 -11.441  15.170  0.00  0.00    -0.311 N 
ATOM     15  C   UNL     1      -2.244 -10.904  14.159  0.00  0.00    +0.214 C 
ATOM     29  H   UNL     1      -3.602 -12.257  14.979  0.00  0.00    +0.149 HD
BRANCH   5  17
ATOM     17  C   UNL     1      -3.084 -10.890  16.504  0.00  0.00    +0.139 C 
BRANCH  17  20
ATOM      1  F   UNL     1      -8.340  -9.629  18.044  0.00  0.00    -0.205 F 
ATOM     20  C   UNL     1      -4.488 -10.552  16.915  0.00  0.00    -0.030 A 
ATOM     24  C   UNL     1      -4.924 -10.873  18.196  0.00  0.00    +0.008 A 
ATOM     25  C   UNL     1      -5.337  -9.925  16.012  0.00  0.00    +0.008 A 
ATOM     26  C   UNL     1      -6.228 -10.559  18.578  0.00  0.00    +0.038 A 
ATOM     27  C   UNL     1      -6.641  -9.611  16.394  0.00  0.00    +0.038 A 
ATOM     28  C   UNL     1      -7.087  -9.928  17.677  0.00  0.00    +0.123 A 
ENDBRANCH  17  20
ENDBRANCH   5  17
ENDBRANCH  12  15
ENDBRANCH   6  12
TORSDOF 6
ENDMDL
MODEL 9
REMARK VINA RESULT:      -6.0     19.422     22.501
REMARK  Name = 11911984
REMARK  7 active torsions:
REMARK  status: ('A' for Active; 'I' for Inactive)
REMARK    1  A    between atoms: N_5  and  C_17
REMARK    2  A    between atoms: C_6  and  C_12
REMARK    3  A    between atoms: C_7  and  C_11
REMARK    4  A    between atoms: C_11  and  C_13
REMARK    5  A    between atoms: C_12  and  C_15
REMARK    6  A    between atoms: C_14  and  C_16
REMARK    7  A    between atoms: C_17  and  C_20
REMARK                            x       y       z     vdW  Elec       q    Type
REMARK                         _______ _______ _______ _____ _____    ______ ____
ROOT
ATOM      2  O   UNL     1     -17.034   7.115  31.082  0.00  0.00    -0.270 OA
ATOM      4  N   UNL     1     -16.146   5.222  30.038  0.00  0.00    -0.297 N 
ATOM      6  C   UNL     1     -16.785   2.944  28.324  0.00  0.00    +0.004 C 
ATOM      7  C   UNL     1     -16.032   2.781  29.669  0.00  0.00    +0.010 C 
ATOM      8  C   UNL     1     -17.646   4.222  28.366  0.00  0.00    +0.023 C 
ATOM      9  C   UNL     1     -15.254   4.053  30.041  0.00  0.00    +0.112 C 
ATOM     10  C   UNL     1     -16.845   5.456  28.775  0.00  0.00    +0.108 C 
ATOM     14  C   UNL     1     -16.323   6.112  31.099  0.00  0.00    +0.247 C 
ENDROOT
BRANCH  14  16
ATOM     16  C   UNL     1     -15.618   5.839  32.358  0.00  0.00    +0.037 A 
ATOM     18  C   UNL     1     -14.435   6.513  32.649  0.00  0.00    +0.013 A 
ATOM     19  C   UNL     1     -16.138   4.908  33.254  0.00  0.00    +0.013 A 
ATOM     21  C   UNL     1     -13.766   6.253  33.846  0.00  0.00    +0.001 A 
ATOM     22  C   UNL     1     -15.468   4.650  34.451  0.00  0.00    +0.001 A 
ATOM     23  C   UNL     1     -14.283   5.322  34.746  0.00  0.00    +0.000 A 
ENDBRANCH  14  16
BRANCH   7  11
ATOM     11  C   UNL     1     -15.112   1.561  29.697  0.00  0.00    +0.002 C 
ATOM     13  C   UNL     1     -13.779   1.897  30.333  0.00  0.00    +0.004 C 
ENDBRANCH   7  11
BRANCH   6  12
ATOM     12  C   UNL     1     -15.873   2.943  27.093  0.00  0.00    +0.099 C 
BRANCH  12  15
ATOM      3  O   UNL     1     -17.596   2.865  25.397  0.00  0.00    -0.276 OA
ATOM      5  N   UNL     1     -15.965   4.519  25.293  0.00  0.00    -0.311 N 
ATOM     15  C   UNL     1     -16.591   3.411  25.846  0.00  0.00    +0.214 C 
ATOM     29  H   UNL     1     -15.140   4.904  25.742  0.00  0.00    +0.149 HD
BRANCH   5  17
ATOM     17  C   UNL     1     -16.435   5.175  24.095  0.00  0.00    +0.139 C 
BRANCH  17  20
ATOM      1  F   UNL     1     -12.207   6.614  20.683  0.00  0.00    -0.205 F 
ATOM     20  C   UNL     1     -15.305   5.559  23.184  0.00  0.00    -0.030 A 
ATOM     24  C   UNL     1     -15.442   6.661  22.348  0.00  0.00    +0.008 A 
ATOM     25  C   UNL     1     -14.136   4.809  23.185  0.00  0.00    +0.008 A 
ATOM     26  C   UNL     1     -14.393   7.019  21.501  0.00  0.00    +0.038 A 
ATOM     27  C   UNL     1     -13.086   5.166  22.339  0.00  0.00    +0.038 A 
ATOM     28  C   UNL     1     -13.214   6.271  21.497  0.00  0.00    +0.123 A 
ENDBRANCH  17  20
ENDBRANCH   5  17
ENDBRANCH  12  15
ENDBRANCH   6  12
TORSDOF 6
ENDMDL
MODEL 10
REMARK VINA RESULT:      -6.0     25.305     29.443
REMARK  Name = 11911984
REMARK  7 active torsions:
REMARK  status: ('A' for Active; 'I' for Inactive)
REMARK    1  A    between atoms: N_5  and  C_17
REMARK    2  A    between atoms: C_6  and  C_12
REMARK    3  A    between atoms: C_7  and  C_11
REMARK    4  A    between atoms: C_11  and  C_13
REMARK    5  A    between atoms: C_12  and  C_15
REMARK    6  A    between atoms: C_14  and  C_16
REMARK    7  A    between atoms: C_17  and  C_20
REMARK                            x       y       z     vdW  Elec       q    Type
REMARK                         _______ _______ _______ _____ _____    ______ ____
ROOT
ATOM      2  O   UNL     1       8.933   8.594   6.817  0.00  0.00    -0.270 OA
ATOM      4  N   UNL     1      11.271   8.559   6.814  0.00  0.00    -0.297 N 
ATOM      6  C   UNL     1      13.653   9.610   5.488  0.00  0.00    +0.004 C 
ATOM      7  C   UNL     1      13.448   8.093   5.741  0.00  0.00    +0.010 C 
ATOM      8  C   UNL     1      12.282  10.312   5.416  0.00  0.00    +0.023 C 
ATOM      9  C   UNL     1      12.544   7.839   6.957  0.00  0.00    +0.112 C 
ATOM     10  C   UNL     1      11.401  10.004   6.625  0.00  0.00    +0.108 C 
ATOM     14  C   UNL     1      10.000   7.986   6.893  0.00  0.00    +0.247 C 
ENDROOT
BRANCH  14  16
ATOM     16  C   UNL     1       9.905   6.531   7.068  0.00  0.00    +0.037 A 
ATOM     18  C   UNL     1       9.861   5.701   5.950  0.00  0.00    +0.013 A 
ATOM     19  C   UNL     1       9.860   5.989   8.350  0.00  0.00    +0.013 A 
ATOM     21  C   UNL     1       9.772   4.319   6.117  0.00  0.00    +0.001 A 
ATOM     22  C   UNL     1       9.771   4.607   8.515  0.00  0.00    +0.001 A 
ATOM     23  C   UNL     1       9.727   3.772   7.399  0.00  0.00    +0.000 A 
ENDBRANCH  14  16
BRANCH   7  11
ATOM     11  C   UNL     1      14.761   7.325   5.876  0.00  0.00    +0.002 C 
ATOM     13  C   UNL     1      15.514   7.294   4.563  0.00  0.00    +0.004 C 
ENDBRANCH   7  11
BRANCH   6  12
ATOM     12  C   UNL     1      14.562  10.297   6.512  0.00  0.00    +0.099 C 
BRANCH  12  15
ATOM      3  O   UNL     1      15.856  11.559   4.905  0.00  0.00    -0.276 OA
ATOM      5  N   UNL     1      16.955  10.359   6.565  0.00  0.00    -0.311 N 
ATOM     15  C   UNL     1      15.836  10.822   5.887  0.00  0.00    +0.214 C 
ATOM     29  H   UNL     1      16.837   9.756   7.374  0.00  0.00    +0.149 HD
BRANCH   5  17
ATOM     17  C   UNL     1      18.306  10.701   6.185  0.00  0.00    +0.139 C 
BRANCH  17  20
ATOM      1  F   UNL     1      21.390   6.142   5.047  0.00  0.00    -0.205 F 
ATOM     20  C   UNL     1      19.130   9.483   5.881  0.00  0.00    -0.030 A 
ATOM     24  C   UNL     1      18.974   8.835   4.661  0.00  0.00    +0.008 A 
ATOM     25  C   UNL     1      20.039   9.016   6.822  0.00  0.00    +0.008 A 
ATOM     26  C   UNL     1      19.740   7.704   4.379  0.00  0.00    +0.038 A 
ATOM     27  C   UNL     1      20.805   7.886   6.540  0.00  0.00    +0.038 A 
ATOM     28  C   UNL     1      20.655   7.229   5.318  0.00  0.00    +0.123 A 
ENDBRANCH  17  20
ENDBRANCH   5  17
ENDBRANCH  12  15
ENDBRANCH   6  12
TORSDOF 6
ENDMDL
