REMARK  Name = 7164727
REMARK  5 active torsions:
REMARK  status: ('A' for Active; 'I' for Inactive)
REMARK    1  A    between atoms: O_4  and  C_28
REMARK    2  A    between atoms: O_4  and  C_34
REMARK    3  A    between atoms: N_7  and  C_21
REMARK    4  A    between atoms: N_8  and  C_19
REMARK    5  A    between atoms: C_22  and  C_25
REMARK                            x       y       z     vdW  Elec       q    Type
REMARK                         _______ _______ _______ _____ _____    ______ ____
ROOT
ATOM      1  O   UNL     1       0.419   2.364   1.921  0.00  0.00    -0.266 OA
ATOM      2  O   UNL     1      -3.531  -1.052   1.765  0.00  0.00    -0.252 OA
ATOM      5  N   UNL     1      -3.919   0.573   0.165  0.00  0.00    -0.284 N 
ATOM      6  N   UNL     1      -1.332   2.430   0.376  0.00  0.00    -0.310 N 
ATOM      7  N   UNL     1      -3.040  -1.529  -0.450  0.00  0.00    -0.269 N 
ATOM      9  C   UNL     1      -3.755   2.906   1.049  0.00  0.00    +0.027 C 
ATOM     10  C   UNL     1      -3.210   2.455  -1.305  0.00  0.00    +0.054 C 
ATOM     11  C   UNL     1      -3.898   3.445  -0.369  0.00  0.00    +0.018 C 
ATOM     12  C   UNL     1      -4.417   1.523   1.164  0.00  0.00    +0.114 C 
ATOM     13  C   UNL     1      -2.269   2.867   1.420  0.00  0.00    +0.130 C 
ATOM     14  C   UNL     1      -3.909   1.081  -1.219  0.00  0.00    +0.119 C 
ATOM     15  C   UNL     1      -1.741   2.303  -0.955  0.00  0.00    +0.027 A 
ATOM     16  C   UNL     1      -0.843   2.015  -1.913  0.00  0.00    +0.024 A 
ATOM     17  C   UNL     1       0.010   2.247   0.765  0.00  0.00    +0.273 A 
ATOM     18  C   UNL     1      -3.489  -0.706   0.582  0.00  0.00    +0.306 C 
ATOM     19  C   UNL     1       0.974   1.901  -0.327  0.00  0.00    +0.099 A 
ATOM     20  C   UNL     1       0.540   1.809  -1.589  0.00  0.00    +0.030 A 
ATOM     35  H   UNL     1      -3.420  -1.385  -1.379  0.00  0.00    +0.156 HD
ENDROOT
BRANCH   7  21
ATOM     21  C   UNL     1      -2.128  -2.608  -0.349  0.00  0.00    +0.035 A 
ATOM     23  C   UNL     1      -1.859  -3.393  -1.467  0.00  0.00    +0.027 A 
ATOM     24  C   UNL     1      -1.506  -2.877   0.867  0.00  0.00    +0.027 A 
ATOM     26  C   UNL     1      -0.961  -4.456  -1.368  0.00  0.00    +0.047 A 
ATOM     27  C   UNL     1      -0.608  -3.940   0.966  0.00  0.00    +0.047 A 
ATOM     28  C   UNL     1      -0.335  -4.729  -0.152  0.00  0.00    +0.120 A 
BRANCH  28   4
ATOM      4  O   UNL     1       0.542  -5.765  -0.056  0.00  0.00    -0.495 OA
ATOM     34  C   UNL     1       1.146  -5.989   1.218  0.00  0.00    +0.277 C 
ENDBRANCH  28   4
ENDBRANCH   7  21
BRANCH  19   8
ATOM      3  O   UNL     1       2.829   0.222  -1.699  0.00  0.00    -0.270 OA
ATOM      8  N   UNL     1       2.279   1.700   0.011  0.00  0.00    -0.277 N 
ATOM     22  C   UNL     1       3.134   0.867  -0.699  0.00  0.00    +0.248 C 
ATOM     36  H   UNL     1       2.556   2.083   0.908  0.00  0.00    +0.155 HD
BRANCH  22  25
ATOM     25  C   UNL     1       4.529   0.792  -0.192  0.00  0.00    +0.037 A 
ATOM     29  C   UNL     1       5.543   0.488  -1.076  0.00  0.00    +0.013 A 
ATOM     30  C   UNL     1       4.764   1.029   1.146  0.00  0.00    +0.013 A 
ATOM     31  C   UNL     1       6.852   0.418  -0.600  0.00  0.00    +0.001 A 
ATOM     32  C   UNL     1       6.073   0.958   1.622  0.00  0.00    +0.001 A 
ATOM     33  C   UNL     1       7.117   0.652   0.750  0.00  0.00    +0.000 A 
ENDBRANCH  22  25
ENDBRANCH  19   8
TORSDOF 4
