MODEL 1
REMARK VINA RESULT:      -7.7      0.000      0.000
REMARK  Name = 7051829
REMARK  4 active torsions:
REMARK  status: ('A' for Active; 'I' for Inactive)
REMARK    1  A    between atoms: N_2  and  C_13
REMARK    2  A    between atoms: C_13  and  C_18
REMARK    3  A    between atoms: C_14  and  C_19
REMARK    4  A    between atoms: C_24  and  C_29
REMARK                            x       y       z     vdW  Elec       q    Type
REMARK                         _______ _______ _______ _____ _____    ______ ____
ROOT
ATOM      1  O   UNL     1      15.061  10.534  16.022  0.00  0.00    -0.268 OA
ATOM      2  N   UNL     1      16.426   9.760  20.754  0.00  0.00    -0.297 NA
ATOM      3  N   UNL     1      14.525  10.458  18.300  0.00  0.00    -0.311 N 
ATOM      6  C   UNL     1      15.646  12.015  20.003  0.00  0.00    +0.024 C 
ATOM      7  C   UNL     1      13.998  10.370  20.755  0.00  0.00    +0.051 C 
ATOM      8  C   UNL     1      14.348  11.856  20.775  0.00  0.00    +0.017 C 
ATOM      9  C   UNL     1      16.767  11.184  20.660  0.00  0.00    +0.090 C 
ATOM     10  C   UNL     1      15.135   9.567  21.432  0.00  0.00    +0.094 C 
ATOM     11  C   UNL     1      15.398  11.614  18.547  0.00  0.00    +0.130 C 
ATOM     12  C   UNL     1      13.757   9.874  19.327  0.00  0.00    +0.034 A 
ATOM     14  C   UNL     1      12.858   8.900  19.029  0.00  0.00    +0.003 A 
ATOM     15  C   UNL     1      14.425  10.049  16.959  0.00  0.00    +0.252 A 
ATOM     16  C   UNL     1      12.731   8.449  17.656  0.00  0.00    +0.015 A 
ATOM     17  C   UNL     1      13.464   8.963  16.667  0.00  0.00    +0.071 A 
ENDROOT
BRANCH  14  19
ATOM      4  N   UNL     1      11.279   6.267  21.185  0.00  0.00    -0.263 NA
ATOM     19  C   UNL     1      12.015   8.273  20.071  0.00  0.00    +0.002 A 
ATOM     22  C   UNL     1      11.203   9.046  20.885  0.00  0.00    +0.011 A 
ATOM     23  C   UNL     1      12.023   6.904  20.253  0.00  0.00    +0.119 A 
ATOM     26  C   UNL     1      10.423   8.426  21.855  0.00  0.00    +0.020 A 
ATOM     28  C   UNL     1      10.496   7.048  21.964  0.00  0.00    +0.111 A 
ENDBRANCH  14  19
BRANCH   2  13
ATOM     13  C   UNL     1      17.485   9.011  21.424  0.00  0.00    +0.119 C 
BRANCH  13  18
ATOM     18  C   UNL     1      17.773   7.706  20.731  0.00  0.00    -0.032 A 
ATOM     20  C   UNL     1      18.978   7.059  20.964  0.00  0.00    +0.023 A 
ATOM     21  C   UNL     1      16.827   7.167  19.870  0.00  0.00    +0.005 A 
ATOM     24  C   UNL     1      19.245   5.850  20.322  0.00  0.00    +0.052 A 
ATOM     25  C   UNL     1      17.093   5.958  19.228  0.00  0.00    +0.002 A 
ATOM     27  C   UNL     1      18.302   5.299  19.454  0.00  0.00    +0.019 A 
BRANCH  24  29
ATOM      5  N   UNL     1      21.489   4.626  20.742  0.00  0.00    -0.191 NA
ATOM     29  C   UNL     1      20.483   5.175  20.553  0.00  0.00    +0.099 C 
ENDBRANCH  24  29
ENDBRANCH  13  18
ENDBRANCH   2  13
TORSDOF 4
ENDMDL
MODEL 2
REMARK VINA RESULT:      -7.0      2.869      6.209
REMARK  Name = 7051829
REMARK  4 active torsions:
REMARK  status: ('A' for Active; 'I' for Inactive)
REMARK    1  A    between atoms: N_2  and  C_13
REMARK    2  A    between atoms: C_13  and  C_18
REMARK    3  A    between atoms: C_14  and  C_19
REMARK    4  A    between atoms: C_24  and  C_29
REMARK                            x       y       z     vdW  Elec       q    Type
REMARK                         _______ _______ _______ _____ _____    ______ ____
ROOT
ATOM      1  O   UNL     1      11.397   6.833  21.817  0.00  0.00    -0.268 OA
ATOM      2  N   UNL     1      15.793   9.118  21.265  0.00  0.00    -0.297 NA
ATOM      3  N   UNL     1      13.176   7.501  20.451  0.00  0.00    -0.311 N 
ATOM      6  C   UNL     1      15.569   6.663  20.845  0.00  0.00    +0.024 C 
ATOM      7  C   UNL     1      15.111   8.234  19.025  0.00  0.00    +0.051 C 
ATOM      8  C   UNL     1      15.727   6.875  19.349  0.00  0.00    +0.017 C 
ATOM      9  C   UNL     1      16.285   7.784  21.624  0.00  0.00    +0.090 C 
ATOM     10  C   UNL     1      15.859   9.336  19.812  0.00  0.00    +0.094 C 
ATOM     11  C   UNL     1      14.075   6.587  21.170  0.00  0.00    +0.130 C 
ATOM     12  C   UNL     1      13.614   8.258  19.345  0.00  0.00    +0.034 A 
ATOM     14  C   UNL     1      12.719   8.981  18.623  0.00  0.00    +0.003 A 
ATOM     15  C   UNL     1      11.834   7.485  20.869  0.00  0.00    +0.252 A 
ATOM     16  C   UNL     1      11.326   8.992  19.028  0.00  0.00    +0.015 A 
ATOM     17  C   UNL     1      10.887   8.309  20.086  0.00  0.00    +0.071 A 
ENDROOT
BRANCH  14  19
ATOM      4  N   UNL     1      13.278   9.961  15.045  0.00  0.00    -0.263 NA
ATOM     19  C   UNL     1      13.130   9.773  17.443  0.00  0.00    +0.002 A 
ATOM     22  C   UNL     1      13.726  11.014  17.596  0.00  0.00    +0.011 A 
ATOM     23  C   UNL     1      12.927   9.290  16.165  0.00  0.00    +0.119 A 
ATOM     26  C   UNL     1      14.100  11.735  16.467  0.00  0.00    +0.020 A 
ATOM     28  C   UNL     1      13.857  11.170  15.227  0.00  0.00    +0.111 A 
ENDBRANCH  14  19
BRANCH   2  13
ATOM     13  C   UNL     1      16.525  10.157  21.984  0.00  0.00    +0.119 C 
BRANCH  13  18
ATOM     18  C   UNL     1      15.620  11.277  22.425  0.00  0.00    -0.032 A 
ATOM     20  C   UNL     1      14.586  11.013  23.312  0.00  0.00    +0.023 A 
ATOM     21  C   UNL     1      15.833  12.559  21.939  0.00  0.00    +0.005 A 
ATOM     24  C   UNL     1      13.749  12.050  23.721  0.00  0.00    +0.052 A 
ATOM     25  C   UNL     1      14.996  13.597  22.347  0.00  0.00    +0.002 A 
ATOM     27  C   UNL     1      13.954  13.342  23.238  0.00  0.00    +0.019 A 
BRANCH  24  29
ATOM      5  N   UNL     1      11.813  11.577  25.377  0.00  0.00    -0.191 NA
ATOM     29  C   UNL     1      12.680  11.789  24.635  0.00  0.00    +0.099 C 
ENDBRANCH  24  29
ENDBRANCH  13  18
ENDBRANCH   2  13
TORSDOF 4
ENDMDL
MODEL 3
REMARK VINA RESULT:      -6.9     26.387     29.136
REMARK  Name = 7051829
REMARK  4 active torsions:
REMARK  status: ('A' for Active; 'I' for Inactive)
REMARK    1  A    between atoms: N_2  and  C_13
REMARK    2  A    between atoms: C_13  and  C_18
REMARK    3  A    between atoms: C_14  and  C_19
REMARK    4  A    between atoms: C_24  and  C_29
REMARK                            x       y       z     vdW  Elec       q    Type
REMARK                         _______ _______ _______ _____ _____    ______ ____
ROOT
ATOM      1  O   UNL     1      -0.780 -12.566  13.844  0.00  0.00    -0.268 OA
ATOM      2  N   UNL     1      -5.556 -12.505  12.415  0.00  0.00    -0.297 NA
ATOM      3  N   UNL     1      -3.053 -12.782  14.360  0.00  0.00    -0.311 N 
ATOM      6  C   UNL     1      -4.512 -14.602  13.292  0.00  0.00    +0.024 C 
ATOM      7  C   UNL     1      -5.504 -13.011  14.865  0.00  0.00    +0.051 C 
ATOM      8  C   UNL     1      -5.316 -14.498  14.578  0.00  0.00    +0.017 C 
ATOM      9  C   UNL     1      -5.263 -13.914  12.134  0.00  0.00    +0.090 C 
ATOM     10  C   UNL     1      -6.270 -12.355  13.692  0.00  0.00    +0.094 C 
ATOM     11  C   UNL     1      -3.129 -13.995  13.534  0.00  0.00    +0.130 C 
ATOM     12  C   UNL     1      -4.160 -12.314  15.096  0.00  0.00    +0.034 A 
ATOM     14  C   UNL     1      -4.010 -11.274  15.956  0.00  0.00    +0.003 A 
ATOM     15  C   UNL     1      -1.782 -12.189  14.452  0.00  0.00    +0.252 A 
ATOM     16  C   UNL     1      -2.714 -10.634  16.074  0.00  0.00    +0.015 A 
ATOM     17  C   UNL     1      -1.655 -11.036  15.370  0.00  0.00    +0.071 A 
ENDROOT
BRANCH  14  19
ATOM      4  N   UNL     1      -7.069  -9.329  16.923  0.00  0.00    -0.263 NA
ATOM     19  C   UNL     1      -5.139 -10.763  16.765  0.00  0.00    +0.002 A 
ATOM     22  C   UNL     1      -5.335 -11.202  18.064  0.00  0.00    +0.011 A 
ATOM     23  C   UNL     1      -6.019  -9.837  16.240  0.00  0.00    +0.119 A 
ATOM     26  C   UNL     1      -6.405 -10.703  18.798  0.00  0.00    +0.020 A 
ATOM     28  C   UNL     1      -7.235  -9.777  18.188  0.00  0.00    +0.111 A 
ENDBRANCH  14  19
BRANCH   2  13
ATOM     13  C   UNL     1      -6.309 -11.898  11.321  0.00  0.00    +0.119 C 
BRANCH  13  18
ATOM     18  C   UNL     1      -5.491 -10.875  10.578  0.00  0.00    -0.032 A 
ATOM     20  C   UNL     1      -4.209 -10.575  11.014  0.00  0.00    +0.023 A 
ATOM     21  C   UNL     1      -6.032 -10.246   9.465  0.00  0.00    +0.005 A 
ATOM     24  C   UNL     1      -3.452  -9.628  10.325  0.00  0.00    +0.052 A 
ATOM     25  C   UNL     1      -5.276  -9.299   8.776  0.00  0.00    +0.002 A 
ATOM     27  C   UNL     1      -3.986  -8.989   9.206  0.00  0.00    +0.019 A 
BRANCH  24  29
ATOM      5  N   UNL     1      -1.055  -9.053  11.123  0.00  0.00    -0.191 NA
ATOM     29  C   UNL     1      -2.129  -9.311  10.766  0.00  0.00    +0.099 C 
ENDBRANCH  24  29
ENDBRANCH  13  18
ENDBRANCH   2  13
TORSDOF 4
ENDMDL
MODEL 4
REMARK VINA RESULT:      -6.9      1.568      2.170
REMARK  Name = 7051829
REMARK  4 active torsions:
REMARK  status: ('A' for Active; 'I' for Inactive)
REMARK    1  A    between atoms: N_2  and  C_13
REMARK    2  A    between atoms: C_13  and  C_18
REMARK    3  A    between atoms: C_14  and  C_19
REMARK    4  A    between atoms: C_24  and  C_29
REMARK                            x       y       z     vdW  Elec       q    Type
REMARK                         _______ _______ _______ _____ _____    ______ ____
ROOT
ATOM      1  O   UNL     1      14.809  11.260  15.818  0.00  0.00    -0.268 OA
ATOM      2  N   UNL     1      15.745  11.380  20.713  0.00  0.00    -0.297 NA
ATOM      3  N   UNL     1      14.052  11.140  18.030  0.00  0.00    -0.311 N 
ATOM      6  C   UNL     1      14.294  13.116  19.648  0.00  0.00    +0.024 C 
ATOM      7  C   UNL     1      13.285  11.024  20.420  0.00  0.00    +0.051 C 
ATOM      8  C   UNL     1      13.057  12.530  20.309  0.00  0.00    +0.017 C 
ATOM      9  C   UNL     1      15.547  12.817  20.495  0.00  0.00    +0.090 C 
ATOM     10  C   UNL     1      14.541  10.758  21.284  0.00  0.00    +0.094 C 
ATOM     11  C   UNL     1      14.399  12.555  18.228  0.00  0.00    +0.130 C 
ATOM     12  C   UNL     1      13.428  10.379  19.039  0.00  0.00    +0.034 A 
ATOM     14  C   UNL     1      12.997   9.120  18.768  0.00  0.00    +0.003 A 
ATOM     15  C   UNL     1      14.282  10.635  16.739  0.00  0.00    +0.252 A 
ATOM     16  C   UNL     1      13.222   8.563  17.447  0.00  0.00    +0.015 A 
ATOM     17  C   UNL     1      13.834   9.249  16.480  0.00  0.00    +0.071 A 
ENDROOT
BRANCH  14  19
ATOM      4  N   UNL     1      12.345   6.339  21.199  0.00  0.00    -0.263 NA
ATOM     19  C   UNL     1      12.318   8.292  19.789  0.00  0.00    +0.002 A 
ATOM     22  C   UNL     1      11.077   8.657  20.286  0.00  0.00    +0.011 A 
ATOM     23  C   UNL     1      12.909   7.140  20.268  0.00  0.00    +0.119 A 
ATOM     26  C   UNL     1      10.465   7.858  21.246  0.00  0.00    +0.020 A 
ATOM     28  C   UNL     1      11.134   6.721  21.665  0.00  0.00    +0.111 A 
ENDBRANCH  14  19
BRANCH   2  13
ATOM     13  C   UNL     1      16.910  11.134  21.558  0.00  0.00    +0.119 C 
BRANCH  13  18
ATOM     18  C   UNL     1      17.434   9.731  21.397  0.00  0.00    -0.032 A 
ATOM     20  C   UNL     1      16.777   8.849  20.551  0.00  0.00    +0.023 A 
ATOM     21  C   UNL     1      18.567   9.341  22.096  0.00  0.00    +0.005 A 
ATOM     24  C   UNL     1      17.263   7.550  20.402  0.00  0.00    +0.052 A 
ATOM     25  C   UNL     1      19.053   8.043  21.948  0.00  0.00    +0.002 A 
ATOM     27  C   UNL     1      18.401   7.147  21.100  0.00  0.00    +0.019 A 
BRANCH  24  29
ATOM      5  N   UNL     1      16.051   5.886  18.829  0.00  0.00    -0.191 NA
ATOM     29  C   UNL     1      16.594   6.632  19.533  0.00  0.00    +0.099 C 
ENDBRANCH  24  29
ENDBRANCH  13  18
ENDBRANCH   2  13
TORSDOF 4
ENDMDL
MODEL 5
REMARK VINA RESULT:      -6.7     26.115     29.662
REMARK  Name = 7051829
REMARK  4 active torsions:
REMARK  status: ('A' for Active; 'I' for Inactive)
REMARK    1  A    between atoms: N_2  and  C_13
REMARK    2  A    between atoms: C_13  and  C_18
REMARK    3  A    between atoms: C_14  and  C_19
REMARK    4  A    between atoms: C_24  and  C_29
REMARK                            x       y       z     vdW  Elec       q    Type
REMARK                         _______ _______ _______ _____ _____    ______ ____
ROOT
ATOM      1  O   UNL     1      -4.204 -12.692  18.417  0.00  0.00    -0.268 OA
ATOM      2  N   UNL     1      -6.493 -11.690  14.103  0.00  0.00    -0.297 NA
ATOM      3  N   UNL     1      -6.175 -12.363  17.197  0.00  0.00    -0.311 N 
ATOM      6  C   UNL     1      -6.822 -13.893  15.242  0.00  0.00    +0.024 C 
ATOM      7  C   UNL     1      -8.262 -12.008  15.844  0.00  0.00    +0.051 C 
ATOM      8  C   UNL     1      -8.246 -13.517  15.618  0.00  0.00    +0.017 C 
ATOM      9  C   UNL     1      -6.392 -13.147  13.962  0.00  0.00    +0.090 C 
ATOM     10  C   UNL     1      -7.838 -11.290  14.540  0.00  0.00    +0.094 C 
ATOM     11  C   UNL     1      -5.908 -13.589  16.431  0.00  0.00    +0.130 C 
ATOM     12  C   UNL     1      -7.350 -11.608  17.007  0.00  0.00    +0.034 A 
ATOM     14  C   UNL     1      -7.624 -10.564  17.831  0.00  0.00    +0.003 A 
ATOM     15  C   UNL     1      -5.238 -12.059  18.199  0.00  0.00    +0.252 A 
ATOM     16  C   UNL     1      -6.677 -10.218  18.874  0.00  0.00    +0.015 A 
ATOM     17  C   UNL     1      -5.544 -10.895  19.061  0.00  0.00    +0.071 A 
ENDROOT
BRANCH  14  19
ATOM      4  N   UNL     1      -9.938  -7.813  16.758  0.00  0.00    -0.263 NA
ATOM     19  C   UNL     1      -8.855  -9.757  17.682  0.00  0.00    +0.002 A 
ATOM     22  C   UNL     1     -10.037 -10.149  18.290  0.00  0.00    +0.011 A 
ATOM     23  C   UNL     1      -8.850  -8.596  16.934  0.00  0.00    +0.119 A 
ATOM     26  C   UNL     1     -11.177  -9.369  18.131  0.00  0.00    +0.020 A 
ATOM     28  C   UNL     1     -11.076  -8.222  17.363  0.00  0.00    +0.111 A 
ENDBRANCH  14  19
BRANCH   2  13
ATOM     13  C   UNL     1      -6.125 -11.018  12.860  0.00  0.00    +0.119 C 
BRANCH  13  18
ATOM     18  C   UNL     1      -4.633 -10.858  12.729  0.00  0.00    -0.032 A 
ATOM     20  C   UNL     1      -3.860 -10.690  13.868  0.00  0.00    +0.023 A 
ATOM     21  C   UNL     1      -4.053 -10.881  11.468  0.00  0.00    +0.005 A 
ATOM     24  C   UNL     1      -2.479 -10.542  13.746  0.00  0.00    +0.052 A 
ATOM     25  C   UNL     1      -2.672 -10.733  11.345  0.00  0.00    +0.002 A 
ATOM     27  C   UNL     1      -1.885 -10.564  12.485  0.00  0.00    +0.019 A 
BRANCH  24  29
ATOM      5  N   UNL     1      -1.016 -10.228  15.861  0.00  0.00    -0.191 NA
ATOM     29  C   UNL     1      -1.672 -10.369  14.914  0.00  0.00    +0.099 C 
ENDBRANCH  24  29
ENDBRANCH  13  18
ENDBRANCH   2  13
TORSDOF 4
ENDMDL
MODEL 6
REMARK VINA RESULT:      -6.7     13.934     16.887
REMARK  Name = 7051829
REMARK  4 active torsions:
REMARK  status: ('A' for Active; 'I' for Inactive)
REMARK    1  A    between atoms: N_2  and  C_13
REMARK    2  A    between atoms: C_13  and  C_18
REMARK    3  A    between atoms: C_14  and  C_19
REMARK    4  A    between atoms: C_24  and  C_29
REMARK                            x       y       z     vdW  Elec       q    Type
REMARK                         _______ _______ _______ _____ _____    ______ ____
ROOT
ATOM      1  O   UNL     1       7.676   8.838   2.674  0.00  0.00    -0.268 OA
ATOM      2  N   UNL     1      10.998   7.440   6.118  0.00  0.00    -0.297 NA
ATOM      3  N   UNL     1       9.064   7.198   3.603  0.00  0.00    -0.311 N 
ATOM      6  C   UNL     1       8.743   6.363   6.007  0.00  0.00    +0.024 C 
ATOM      7  C   UNL     1      10.564   5.468   4.639  0.00  0.00    +0.051 C 
ATOM      8  C   UNL     1       9.352   5.075   5.479  0.00  0.00    +0.017 C 
ATOM      9  C   UNL     1       9.771   7.132   6.861  0.00  0.00    +0.090 C 
ATOM     10  C   UNL     1      11.580   6.226   5.526  0.00  0.00    +0.094 C 
ATOM     11  C   UNL     1       8.238   7.184   4.819  0.00  0.00    +0.130 C 
ATOM     12  C   UNL     1      10.153   6.319   3.434  0.00  0.00    +0.034 A 
ATOM     14  C   UNL     1      10.800   6.266   2.241  0.00  0.00    +0.003 A 
ATOM     15  C   UNL     1       8.628   8.062   2.584  0.00  0.00    +0.252 A 
ATOM     16  C   UNL     1      10.382   7.148   1.168  0.00  0.00    +0.015 A 
ATOM     17  C   UNL     1       9.373   8.009   1.307  0.00  0.00    +0.071 A 
ENDROOT
BRANCH  14  19
ATOM      4  N   UNL     1      14.316   5.027   1.814  0.00  0.00    -0.263 NA
ATOM     19  C   UNL     1      11.936   5.345   2.012  0.00  0.00    +0.002 A 
ATOM     22  C   UNL     1      11.718   3.995   1.788  0.00  0.00    +0.011 A 
ATOM     23  C   UNL     1      13.234   5.813   2.016  0.00  0.00    +0.119 A 
ATOM     26  C   UNL     1      12.805   3.155   1.575  0.00  0.00    +0.020 A 
ATOM     28  C   UNL     1      14.072   3.715   1.598  0.00  0.00    +0.111 A 
ENDBRANCH  14  19
BRANCH   2  13
ATOM     13  C   UNL     1      11.968   8.124   6.968  0.00  0.00    +0.119 C 
BRANCH  13  18
ATOM     18  C   UNL     1      13.028   8.823   6.159  0.00  0.00    -0.032 A 
ATOM     20  C   UNL     1      14.367   8.561   6.414  0.00  0.00    +0.023 A 
ATOM     21  C   UNL     1      12.652   9.719   5.169  0.00  0.00    +0.005 A 
ATOM     24  C   UNL     1      15.349   9.208   5.665  0.00  0.00    +0.052 A 
ATOM     25  C   UNL     1      13.633  10.366   4.419  0.00  0.00    +0.002 A 
ATOM     27  C   UNL     1      14.982  10.111   4.667  0.00  0.00    +0.019 A 
BRANCH  24  29
ATOM      5  N   UNL     1      17.854   8.734   6.125  0.00  0.00    -0.191 NA
ATOM     29  C   UNL     1      16.731   8.946   5.919  0.00  0.00    +0.099 C 
ENDBRANCH  24  29
ENDBRANCH  13  18
ENDBRANCH   2  13
TORSDOF 4
ENDMDL
MODEL 7
REMARK VINA RESULT:      -6.5     26.161     29.078
REMARK  Name = 7051829
REMARK  4 active torsions:
REMARK  status: ('A' for Active; 'I' for Inactive)
REMARK    1  A    between atoms: N_2  and  C_13
REMARK    2  A    between atoms: C_13  and  C_18
REMARK    3  A    between atoms: C_14  and  C_19
REMARK    4  A    between atoms: C_24  and  C_29
REMARK                            x       y       z     vdW  Elec       q    Type
REMARK                         _______ _______ _______ _____ _____    ______ ____
ROOT
ATOM      1  O   UNL     1      -5.331  -7.877   9.872  0.00  0.00    -0.268 OA
ATOM      2  N   UNL     1      -6.777 -10.309  13.977  0.00  0.00    -0.297 NA
ATOM      3  N   UNL     1      -5.654  -9.886  11.030  0.00  0.00    -0.311 N 
ATOM      6  C   UNL     1      -7.980 -10.636  11.808  0.00  0.00    +0.024 C 
ATOM      7  C   UNL     1      -6.023 -12.017  12.310  0.00  0.00    +0.051 C 
ATOM      8  C   UNL     1      -7.408 -12.037  11.669  0.00  0.00    +0.017 C 
ATOM      9  C   UNL     1      -8.074 -10.241  13.296  0.00  0.00    +0.090 C 
ATOM     10  C   UNL     1      -6.153 -11.629  13.802  0.00  0.00    +0.094 C 
ATOM     11  C   UNL     1      -7.108  -9.672  11.002  0.00  0.00    +0.130 C 
ATOM     12  C   UNL     1      -5.085 -11.053  11.577  0.00  0.00    +0.034 A 
ATOM     14  C   UNL     1      -3.750 -11.276  11.456  0.00  0.00    +0.003 A 
ATOM     15  C   UNL     1      -4.884  -8.906  10.379  0.00  0.00    +0.252 A 
ATOM     16  C   UNL     1      -2.923 -10.284  10.796  0.00  0.00    +0.015 A 
ATOM     17  C   UNL     1      -3.428  -9.158  10.292  0.00  0.00    +0.071 A 
ENDROOT
BRANCH  14  19
ATOM      4  N   UNL     1      -2.699 -14.862  11.793  0.00  0.00    -0.263 NA
ATOM     19  C   UNL     1      -3.113 -12.497  11.998  0.00  0.00    +0.002 A 
ATOM     22  C   UNL     1      -2.361 -12.447  13.160  0.00  0.00    +0.011 A 
ATOM     23  C   UNL     1      -3.254 -13.710  11.354  0.00  0.00    +0.119 A 
ATOM     26  C   UNL     1      -1.774 -13.611  13.643  0.00  0.00    +0.020 A 
ATOM     28  C   UNL     1      -1.971 -14.782  12.930  0.00  0.00    +0.111 A 
ENDBRANCH  14  19
BRANCH   2  13
ATOM     13  C   UNL     1      -6.909  -9.977  15.392  0.00  0.00    +0.119 C 
BRANCH  13  18
ATOM     18  C   UNL     1      -5.763 -10.517  16.205  0.00  0.00    -0.032 A 
ATOM     20  C   UNL     1      -4.460 -10.271  15.798  0.00  0.00    +0.023 A 
ATOM     21  C   UNL     1      -6.026 -11.253  17.352  0.00  0.00    +0.005 A 
ATOM     24  C   UNL     1      -3.398 -10.771  16.551  0.00  0.00    +0.052 A 
ATOM     25  C   UNL     1      -4.965 -11.754  18.105  0.00  0.00    +0.002 A 
ATOM     27  C   UNL     1      -3.651 -11.513  17.705  0.00  0.00    +0.019 A 
BRANCH  24  29
ATOM      5  N   UNL     1      -0.957 -10.322  15.808  0.00  0.00    -0.191 NA
ATOM     29  C   UNL     1      -2.051 -10.524  16.141  0.00  0.00    +0.099 C 
ENDBRANCH  24  29
ENDBRANCH  13  18
ENDBRANCH   2  13
TORSDOF 4
ENDMDL
MODEL 8
REMARK VINA RESULT:      -6.5     29.227     32.952
REMARK  Name = 7051829
REMARK  4 active torsions:
REMARK  status: ('A' for Active; 'I' for Inactive)
REMARK    1  A    between atoms: N_2  and  C_13
REMARK    2  A    between atoms: C_13  and  C_18
REMARK    3  A    between atoms: C_14  and  C_19
REMARK    4  A    between atoms: C_24  and  C_29
REMARK                            x       y       z     vdW  Elec       q    Type
REMARK                         _______ _______ _______ _____ _____    ______ ____
ROOT
ATOM      1  O   UNL     1     -18.306   7.046  29.350  0.00  0.00    -0.268 OA
ATOM      2  N   UNL     1     -15.285   5.784  33.110  0.00  0.00    -0.297 NA
ATOM      3  N   UNL     1     -17.437   5.421  30.794  0.00  0.00    -0.311 N 
ATOM      6  C   UNL     1     -17.766   5.558  33.334  0.00  0.00    +0.024 C 
ATOM      7  C   UNL     1     -16.479   3.713  32.369  0.00  0.00    +0.051 C 
ATOM      8  C   UNL     1     -17.662   4.043  33.276  0.00  0.00    +0.017 C 
ATOM      9  C   UNL     1     -16.464   6.163  33.896  0.00  0.00    +0.090 C 
ATOM     10  C   UNL     1     -15.189   4.324  32.966  0.00  0.00    +0.094 C 
ATOM     11  C   UNL     1     -18.095   6.076  31.933  0.00  0.00    +0.130 C 
ATOM     12  C   UNL     1     -16.712   4.221  30.943  0.00  0.00    +0.034 A 
ATOM     14  C   UNL     1     -16.240   3.575  29.846  0.00  0.00    +0.003 A 
ATOM     15  C   UNL     1     -17.670   6.009  29.538  0.00  0.00    +0.252 A 
ATOM     16  C   UNL     1     -16.457   4.154  28.534  0.00  0.00    +0.015 A 
ATOM     17  C   UNL     1     -17.114   5.302  28.363  0.00  0.00    +0.071 A 
ENDROOT
BRANCH  14  19
ATOM      4  N   UNL     1     -15.516  -0.106  29.884  0.00  0.00    -0.263 NA
ATOM     19  C   UNL     1     -15.493   2.302  29.954  0.00  0.00    +0.002 A 
ATOM     22  C   UNL     1     -14.132   2.300  30.212  0.00  0.00    +0.011 A 
ATOM     23  C   UNL     1     -16.138   1.091  29.798  0.00  0.00    +0.119 A 
ATOM     26  C   UNL     1     -13.457   1.088  30.307  0.00  0.00    +0.020 A 
ATOM     28  C   UNL     1     -14.188  -0.076  30.137  0.00  0.00    +0.111 A 
ENDBRANCH  14  19
BRANCH   2  13
ATOM     13  C   UNL     1     -14.066   6.333  33.696  0.00  0.00    +0.119 C 
BRANCH  13  18
ATOM     18  C   UNL     1     -13.582   7.547  32.948  0.00  0.00    -0.032 A 
ATOM     20  C   UNL     1     -12.333   8.077  33.239  0.00  0.00    +0.023 A 
ATOM     21  C   UNL     1     -14.392   8.119  31.977  0.00  0.00    +0.005 A 
ATOM     24  C   UNL     1     -11.884   9.201  32.546  0.00  0.00    +0.052 A 
ATOM     25  C   UNL     1     -13.944   9.243  31.284  0.00  0.00    +0.002 A 
ATOM     27  C   UNL     1     -12.690   9.785  31.569  0.00  0.00    +0.019 A 
BRANCH  24  29
ATOM      5  N   UNL     1      -9.555  10.205  33.075  0.00  0.00    -0.191 NA
ATOM     29  C   UNL     1     -10.599   9.756  32.838  0.00  0.00    +0.099 C 
ENDBRANCH  24  29
ENDBRANCH  13  18
ENDBRANCH   2  13
TORSDOF 4
ENDMDL
MODEL 9
REMARK VINA RESULT:      -6.5     11.688     14.258
REMARK  Name = 7051829
REMARK  4 active torsions:
REMARK  status: ('A' for Active; 'I' for Inactive)
REMARK    1  A    between atoms: N_2  and  C_13
REMARK    2  A    between atoms: C_13  and  C_18
REMARK    3  A    between atoms: C_14  and  C_19
REMARK    4  A    between atoms: C_24  and  C_29
REMARK                            x       y       z     vdW  Elec       q    Type
REMARK                         _______ _______ _______ _____ _____    ______ ____
ROOT
ATOM      1  O   UNL     1      19.698  -5.272  21.396  0.00  0.00    -0.268 OA
ATOM      2  N   UNL     1      18.591  -1.787  24.784  0.00  0.00    -0.297 NA
ATOM      3  N   UNL     1      18.261  -4.427  23.039  0.00  0.00    -0.311 N 
ATOM      6  C   UNL     1      17.123  -2.141  22.789  0.00  0.00    +0.024 C 
ATOM      7  C   UNL     1      16.746  -3.478  24.805  0.00  0.00    +0.051 C 
ATOM      8  C   UNL     1      16.040  -2.756  23.660  0.00  0.00    +0.017 C 
ATOM      9  C   UNL     1      17.976  -1.154  23.612  0.00  0.00    +0.090 C 
ATOM     10  C   UNL     1      17.582  -2.459  25.616  0.00  0.00    +0.094 C 
ATOM     11  C   UNL     1      17.958  -3.271  22.183  0.00  0.00    +0.130 C 
ATOM     12  C   UNL     1      17.629  -4.615  24.285  0.00  0.00    +0.034 A 
ATOM     14  C   UNL     1      17.831  -5.765  24.978  0.00  0.00    +0.003 A 
ATOM     15  C   UNL     1      19.133  -5.380  22.484  0.00  0.00    +0.252 A 
ATOM     16  C   UNL     1      18.729  -6.770  24.439  0.00  0.00    +0.015 A 
ATOM     17  C   UNL     1      19.362  -6.608  23.277  0.00  0.00    +0.071 A 
ENDROOT
BRANCH  14  19
ATOM      4  N   UNL     1      17.231  -5.823  28.681  0.00  0.00    -0.263 NA
ATOM     19  C   UNL     1      17.173  -6.015  26.280  0.00  0.00    +0.002 A 
ATOM     22  C   UNL     1      15.941  -6.645  26.341  0.00  0.00    +0.011 A 
ATOM     23  C   UNL     1      17.776  -5.626  27.460  0.00  0.00    +0.119 A 
ATOM     26  C   UNL     1      15.348  -6.865  27.580  0.00  0.00    +0.020 A 
ATOM     28  C   UNL     1      16.027  -6.439  28.709  0.00  0.00    +0.111 A 
ENDBRANCH  14  19
BRANCH   2  13
ATOM     13  C   UNL     1      19.350  -0.815  25.565  0.00  0.00    +0.119 C 
BRANCH  13  18
ATOM     18  C   UNL     1      20.810  -1.177  25.645  0.00  0.00    -0.032 A 
ATOM     20  C   UNL     1      21.769  -0.188  25.486  0.00  0.00    +0.023 A 
ATOM     21  C   UNL     1      21.174  -2.495  25.878  0.00  0.00    +0.005 A 
ATOM     24  C   UNL     1      23.121  -0.523  25.560  0.00  0.00    +0.052 A 
ATOM     25  C   UNL     1      22.525  -2.832  25.952  0.00  0.00    +0.002 A 
ATOM     27  C   UNL     1      23.499  -1.846  25.793  0.00  0.00    +0.019 A 
BRANCH  24  29
ATOM      5  N   UNL     1      24.929   1.309  25.265  0.00  0.00    -0.191 NA
ATOM     29  C   UNL     1      24.119   0.488  25.398  0.00  0.00    +0.099 C 
ENDBRANCH  24  29
ENDBRANCH  13  18
ENDBRANCH   2  13
TORSDOF 4
ENDMDL
MODEL 10
REMARK VINA RESULT:      -6.5     12.652     15.926
REMARK  Name = 7051829
REMARK  4 active torsions:
REMARK  status: ('A' for Active; 'I' for Inactive)
REMARK    1  A    between atoms: N_2  and  C_13
REMARK    2  A    between atoms: C_13  and  C_18
REMARK    3  A    between atoms: C_14  and  C_19
REMARK    4  A    between atoms: C_24  and  C_29
REMARK                            x       y       z     vdW  Elec       q    Type
REMARK                         _______ _______ _______ _____ _____    ______ ____
ROOT
ATOM      1  O   UNL     1      13.637   7.072   6.458  0.00  0.00    -0.268 OA
ATOM      2  N   UNL     1       8.759   7.333   5.461  0.00  0.00    -0.297 NA
ATOM      3  N   UNL     1      11.455   7.586   7.133  0.00  0.00    -0.311 N 
ATOM      6  C   UNL     1       9.619   5.797   7.239  0.00  0.00    +0.024 C 
ATOM      7  C   UNL     1       9.095   8.117   7.814  0.00  0.00    +0.051 C 
ATOM      8  C   UNL     1       9.033   6.681   8.327  0.00  0.00    +0.017 C 
ATOM      9  C   UNL     1       8.811   5.945   5.934  0.00  0.00    +0.090 C 
ATOM     10  C   UNL     1       8.266   8.234   6.513  0.00  0.00    +0.094 C 
ATOM     11  C   UNL     1      11.094   6.163   7.058  0.00  0.00    +0.130 C 
ATOM     12  C   UNL     1      10.541   8.562   7.579  0.00  0.00    +0.034 A 
ATOM     14  C   UNL     1      10.957   9.841   7.768  0.00  0.00    +0.003 A 
ATOM     15  C   UNL     1      12.795   7.888   6.837  0.00  0.00    +0.252 A 
ATOM     16  C   UNL     1      12.333  10.191   7.468  0.00  0.00    +0.015 A 
ATOM     17  C   UNL     1      13.213   9.296   7.018  0.00  0.00    +0.071 A 
ENDROOT
BRANCH  14  19
ATOM      4  N   UNL     1       8.580  12.744   7.747  0.00  0.00    -0.263 NA
ATOM     19  C   UNL     1      10.039  10.895   8.255  0.00  0.00    +0.002 A 
ATOM     22  C   UNL     1       9.774  11.032   9.608  0.00  0.00    +0.011 A 
ATOM     23  C   UNL     1       9.428  11.761   7.370  0.00  0.00    +0.119 A 
ATOM     26  C   UNL     1       8.906  12.032  10.034  0.00  0.00    +0.020 A 
ATOM     28  C   UNL     1       8.340  12.853   9.074  0.00  0.00    +0.111 A 
ENDBRANCH  14  19
BRANCH   2  13
ATOM     13  C   UNL     1       7.947   7.445   4.253  0.00  0.00    +0.119 C 
BRANCH  13  18
ATOM     18  C   UNL     1       8.795   7.632   3.023  0.00  0.00    -0.032 A 
ATOM     20  C   UNL     1       9.811   6.728   2.748  0.00  0.00    +0.023 A 
ATOM     21  C   UNL     1       8.547   8.707   2.180  0.00  0.00    +0.005 A 
ATOM     24  C   UNL     1      10.596   6.902   1.608  0.00  0.00    +0.052 A 
ATOM     25  C   UNL     1       9.332   8.881   1.041  0.00  0.00    +0.002 A 
ATOM     27  C   UNL     1      10.356   7.979   0.755  0.00  0.00    +0.019 A 
BRANCH  24  29
ATOM      5  N   UNL     1      12.498   5.226   1.076  0.00  0.00    -0.191 NA
ATOM     29  C   UNL     1      11.645   5.977   1.314  0.00  0.00    +0.099 C 
ENDBRANCH  24  29
ENDBRANCH  13  18
ENDBRANCH   2  13
TORSDOF 4
ENDMDL
