MODEL 1
REMARK VINA RESULT:      -7.1      0.000      0.000
REMARK  Name = 38028154
REMARK  11 active torsions:
REMARK  status: ('A' for Active; 'I' for Inactive)
REMARK    1  A    between atoms: N_5  and  C_15
REMARK    2  A    between atoms: N_7  and  C_31
REMARK    3  A    between atoms: C_8  and  C_12
REMARK    4  A    between atoms: C_9  and  C_15
REMARK    5  A    between atoms: C_11  and  C_16
REMARK    6  A    between atoms: C_12  and  C_17
REMARK    7  A    between atoms: C_12  and  C_18
REMARK    8  A    between atoms: C_13  and  C_19
REMARK    9  A    between atoms: C_16  and  C_20
REMARK   10  A    between atoms: C_23  and  C_26
REMARK   11  A    between atoms: C_32  and  C_33
REMARK                            x       y       z     vdW  Elec       q    Type
REMARK                         _______ _______ _______ _____ _____    ______ ____
ROOT
ATOM      8  C   UNL     1      -3.302 -12.095  12.607  0.00  0.00    +0.000 C 
ATOM      9  C   UNL     1      -2.165 -11.060  12.412  0.00  0.00    +0.032 C 
ATOM     10  C   UNL     1      -3.923 -12.469  11.253  0.00  0.00    +0.012 C 
ATOM     11  C   UNL     1      -4.500 -11.243  10.517  0.00  0.00    +0.023 C 
ATOM     13  C   UNL     1      -3.531 -10.079  10.518  0.00  0.00    -0.073 C 
ATOM     14  C   UNL     1      -2.486 -10.021  11.363  0.00  0.00    -0.022 C 
ATOM     19  C   UNL     1      -3.764  -9.004   9.494  0.00  0.00    +0.039 C 
ENDROOT
BRANCH   8  12
ATOM     12  C   UNL     1      -2.805 -13.358  13.316  0.00  0.00    -0.013 C 
ATOM     17  C   UNL     1      -3.823 -13.821  14.353  0.00  0.00    +0.007 C 
ATOM     18  C   UNL     1      -2.525 -14.462  12.302  0.00  0.00    +0.007 C 
ENDBRANCH   8  12
BRANCH   9  15
ATOM     15  C   UNL     1      -1.821 -10.362  13.733  0.00  0.00    +0.112 C 
BRANCH  15   5
ATOM      3  O   UNL     1      -1.884 -10.921  16.548  0.00  0.00    -0.270 OA
ATOM      5  N   UNL     1      -2.964 -10.303  14.589  0.00  0.00    -0.311 N 
ATOM     23  C   UNL     1      -2.906 -10.591  15.952  0.00  0.00    +0.244 C 
ATOM     34  H   UNL     1      -3.825  -9.949  14.187  0.00  0.00    +0.149 HD
BRANCH  23  26
ATOM     26  C   UNL     1      -4.188 -10.509  16.700  0.00  0.00    +0.037 A 
ATOM     27  C   UNL     1      -5.311  -9.945  16.097  0.00  0.00    +0.015 A 
ATOM     28  C   UNL     1      -4.267 -10.998  18.003  0.00  0.00    +0.015 A 
ATOM     29  C   UNL     1      -6.515  -9.869  16.798  0.00  0.00    +0.024 A 
ATOM     30  C   UNL     1      -5.470 -10.923  18.705  0.00  0.00    +0.024 A 
ATOM     31  C   UNL     1      -6.595 -10.358  18.102  0.00  0.00    +0.033 A 
BRANCH  31   7
ATOM      4  O   UNL     1      -8.616 -12.494  18.746  0.00  0.00    -0.276 OA
ATOM      7  N   UNL     1      -7.798 -10.283  18.802  0.00  0.00    -0.286 N 
ATOM     32  C   UNL     1      -8.707 -11.315  19.074  0.00  0.00    +0.214 C 
ATOM     33  C   UNL     1      -9.894 -10.823  19.863  0.00  0.00    +0.109 C 
ATOM     35  H   UNL     1      -8.038  -9.360  19.158  0.00  0.00    +0.155 HD
ENDBRANCH  31   7
ENDBRANCH  23  26
ENDBRANCH  15   5
ENDBRANCH   9  15
BRANCH  11  16
ATOM     16  C   UNL     1      -5.853 -10.831  11.108  0.00  0.00    +0.103 C 
BRANCH  16  20
ATOM      1  O   UNL     1      -7.221 -12.610  10.344  0.00  0.00    -0.276 OA
ATOM      2  O   UNL     1      -9.562  -8.698   8.427  0.00  0.00    -0.377 OA
ATOM      6  N   UNL     1      -7.669 -10.506   9.470  0.00  0.00    -0.297 N 
ATOM     20  C   UNL     1      -6.972 -11.404  10.276  0.00  0.00    +0.216 C 
ATOM     21  C   UNL     1      -8.773 -10.978   8.633  0.00  0.00    +0.136 C 
ATOM     22  C   UNL     1      -7.321  -9.096   9.268  0.00  0.00    +0.136 C 
ATOM     24  C   UNL     1      -9.961 -10.034   8.742  0.00  0.00    +0.179 C 
ATOM     25  C   UNL     1      -8.570  -8.228   9.345  0.00  0.00    +0.179 C 
ENDBRANCH  16  20
ENDBRANCH  11  16
TORSDOF 7
ENDMDL
MODEL 2
REMARK VINA RESULT:      -6.9     22.807     27.652
REMARK  Name = 38028154
REMARK  11 active torsions:
REMARK  status: ('A' for Active; 'I' for Inactive)
REMARK    1  A    between atoms: N_5  and  C_15
REMARK    2  A    between atoms: N_7  and  C_31
REMARK    3  A    between atoms: C_8  and  C_12
REMARK    4  A    between atoms: C_9  and  C_15
REMARK    5  A    between atoms: C_11  and  C_16
REMARK    6  A    between atoms: C_12  and  C_17
REMARK    7  A    between atoms: C_12  and  C_18
REMARK    8  A    between atoms: C_13  and  C_19
REMARK    9  A    between atoms: C_16  and  C_20
REMARK   10  A    between atoms: C_23  and  C_26
REMARK   11  A    between atoms: C_32  and  C_33
REMARK                            x       y       z     vdW  Elec       q    Type
REMARK                         _______ _______ _______ _____ _____    ______ ____
ROOT
ATOM      8  C   UNL     1     -15.707   5.983  31.338  0.00  0.00    +0.000 C 
ATOM      9  C   UNL     1     -15.525   7.173  32.314  0.00  0.00    +0.032 C 
ATOM     10  C   UNL     1     -16.212   4.744  32.092  0.00  0.00    +0.012 C 
ATOM     11  C   UNL     1     -15.249   4.311  33.215  0.00  0.00    +0.023 C 
ATOM     13  C   UNL     1     -14.809   5.487  34.063  0.00  0.00    -0.073 C 
ATOM     14  C   UNL     1     -14.953   6.759  33.650  0.00  0.00    -0.022 C 
ATOM     19  C   UNL     1     -14.242   5.169  35.418  0.00  0.00    +0.039 C 
ENDROOT
BRANCH   8  12
ATOM     12  C   UNL     1     -16.671   6.325  30.198  0.00  0.00    -0.013 C 
ATOM     17  C   UNL     1     -16.763   5.164  29.213  0.00  0.00    +0.007 C 
ATOM     18  C   UNL     1     -18.048   6.675  30.753  0.00  0.00    +0.007 C 
ENDBRANCH   8  12
BRANCH   9  15
ATOM     15  C   UNL     1     -14.644   8.264  31.696  0.00  0.00    +0.112 C 
BRANCH  15   5
ATOM      3  O   UNL     1     -12.047   9.234  30.949  0.00  0.00    -0.270 OA
ATOM      5  N   UNL     1     -13.577   8.616  32.581  0.00  0.00    -0.311 N 
ATOM     23  C   UNL     1     -12.342   9.082  32.132  0.00  0.00    +0.244 C 
ATOM     34  H   UNL     1     -13.778   8.604  33.575  0.00  0.00    +0.149 HD
BRANCH  23  26
ATOM     26  C   UNL     1     -11.329   9.380  33.178  0.00  0.00    +0.037 A 
ATOM     27  C   UNL     1     -11.627   9.159  34.521  0.00  0.00    +0.015 A 
ATOM     28  C   UNL     1     -10.079   9.880  32.814  0.00  0.00    +0.015 A 
ATOM     29  C   UNL     1     -10.677   9.437  35.502  0.00  0.00    +0.024 A 
ATOM     30  C   UNL     1      -9.127  10.159  33.795  0.00  0.00    +0.024 A 
ATOM     31  C   UNL     1      -9.426   9.938  35.140  0.00  0.00    +0.033 A 
BRANCH  31   7
ATOM      4  O   UNL     1      -7.809   8.082  36.873  0.00  0.00    -0.276 OA
ATOM      7  N   UNL     1      -8.475  10.215  36.120  0.00  0.00    -0.286 N 
ATOM     32  C   UNL     1      -7.748   9.307  36.903  0.00  0.00    +0.214 C 
ATOM     33  C   UNL     1      -6.813  10.010  37.854  0.00  0.00    +0.109 C 
ATOM     35  H   UNL     1      -8.290  11.203  36.281  0.00  0.00    +0.155 HD
ENDBRANCH  31   7
ENDBRANCH  23  26
ENDBRANCH  15   5
ENDBRANCH   9  15
BRANCH  11  16
ATOM     16  C   UNL     1     -14.038   3.563  32.645  0.00  0.00    +0.103 C 
BRANCH  16  20
ATOM      1  O   UNL     1     -14.368   1.501  33.768  0.00  0.00    -0.276 OA
ATOM      2  O   UNL     1     -15.451   0.247  29.109  0.00  0.00    -0.377 OA
ATOM      6  N   UNL     1     -14.430   1.441  31.449  0.00  0.00    -0.297 N 
ATOM     20  C   UNL     1     -14.291   2.077  32.681  0.00  0.00    +0.216 C 
ATOM     21  C   UNL     1     -14.683   0.001  31.392  0.00  0.00    +0.136 C 
ATOM     22  C   UNL     1     -14.221   2.067  30.139  0.00  0.00    +0.136 C 
ATOM     24  C   UNL     1     -15.782  -0.305  30.386  0.00  0.00    +0.179 C 
ATOM     25  C   UNL     1     -15.336   1.672  29.180  0.00  0.00    +0.179 C 
ENDBRANCH  16  20
ENDBRANCH  11  16
TORSDOF 7
ENDMDL
MODEL 3
REMARK VINA RESULT:      -6.9      3.457      7.578
REMARK  Name = 38028154
REMARK  11 active torsions:
REMARK  status: ('A' for Active; 'I' for Inactive)
REMARK    1  A    between atoms: N_5  and  C_15
REMARK    2  A    between atoms: N_7  and  C_31
REMARK    3  A    between atoms: C_8  and  C_12
REMARK    4  A    between atoms: C_9  and  C_15
REMARK    5  A    between atoms: C_11  and  C_16
REMARK    6  A    between atoms: C_12  and  C_17
REMARK    7  A    between atoms: C_12  and  C_18
REMARK    8  A    between atoms: C_13  and  C_19
REMARK    9  A    between atoms: C_16  and  C_20
REMARK   10  A    between atoms: C_23  and  C_26
REMARK   11  A    between atoms: C_32  and  C_33
REMARK                            x       y       z     vdW  Elec       q    Type
REMARK                         _______ _______ _______ _____ _____    ______ ____
ROOT
ATOM      8  C   UNL     1      -7.635 -11.827  17.116  0.00  0.00    +0.000 C 
ATOM      9  C   UNL     1      -7.672 -12.162  18.629  0.00  0.00    +0.032 C 
ATOM     10  C   UNL     1      -6.412 -12.478  16.453  0.00  0.00    +0.012 C 
ATOM     11  C   UNL     1      -5.087 -12.013  17.088  0.00  0.00    +0.023 C 
ATOM     13  C   UNL     1      -5.142 -12.060  18.601  0.00  0.00    -0.073 C 
ATOM     14  C   UNL     1      -6.305 -12.141  19.272  0.00  0.00    -0.022 C 
ATOM     19  C   UNL     1      -3.825 -12.059  19.326  0.00  0.00    +0.039 C 
ENDROOT
BRANCH   8  12
ATOM     12  C   UNL     1      -8.913 -12.278  16.403  0.00  0.00    -0.013 C 
ATOM     17  C   UNL     1      -9.154 -11.433  15.157  0.00  0.00    +0.007 C 
ATOM     18  C   UNL     1      -8.828 -13.758  16.044  0.00  0.00    +0.007 C 
ENDBRANCH   8  12
BRANCH   9  15
ATOM     15  C   UNL     1      -8.606 -11.210  19.383  0.00  0.00    +0.112 C 
BRANCH  15   5
ATOM      3  O   UNL     1     -11.321 -10.365  18.982  0.00  0.00    -0.270 OA
ATOM      5  N   UNL     1      -9.055 -10.155  18.528  0.00  0.00    -0.311 N 
ATOM     23  C   UNL     1     -10.398  -9.809  18.392  0.00  0.00    +0.244 C 
ATOM     34  H   UNL     1      -8.343  -9.590  18.078  0.00  0.00    +0.149 HD
BRANCH  23  26
ATOM     26  C   UNL     1     -10.704  -8.707  17.443  0.00  0.00    +0.037 A 
ATOM     27  C   UNL     1      -9.667  -8.027  16.808  0.00  0.00    +0.015 A 
ATOM     28  C   UNL     1     -12.029  -8.354  17.188  0.00  0.00    +0.015 A 
ATOM     29  C   UNL     1      -9.952  -6.993  15.916  0.00  0.00    +0.024 A 
ATOM     30  C   UNL     1     -12.316  -7.320  16.296  0.00  0.00    +0.024 A 
ATOM     31  C   UNL     1     -11.278  -6.639  15.661  0.00  0.00    +0.033 A 
BRANCH  31   7
ATOM      4  O   UNL     1     -12.588  -6.706  12.951  0.00  0.00    -0.276 OA
ATOM      7  N   UNL     1     -11.564  -5.607  14.768  0.00  0.00    -0.286 N 
ATOM     32  C   UNL     1     -12.178  -5.694  13.511  0.00  0.00    +0.214 C 
ATOM     33  C   UNL     1     -12.308  -4.343  12.856  0.00  0.00    +0.109 C 
ATOM     35  H   UNL     1     -11.290  -4.676  15.077  0.00  0.00    +0.155 HD
ENDBRANCH  31   7
ENDBRANCH  23  26
ENDBRANCH  15   5
ENDBRANCH   9  15
BRANCH  11  16
ATOM     16  C   UNL     1      -4.702 -10.613  16.597  0.00  0.00    +0.103 C 
BRANCH  16  20
ATOM      1  O   UNL     1      -2.334 -10.700  16.519  0.00  0.00    -0.276 OA
ATOM      2  O   UNL     1      -3.485 -11.485  11.775  0.00  0.00    -0.377 OA
ATOM      6  N   UNL     1      -3.440 -10.692  14.478  0.00  0.00    -0.297 N 
ATOM     20  C   UNL     1      -3.382 -10.670  15.870  0.00  0.00    +0.216 C 
ATOM     21  C   UNL     1      -2.205 -10.753  13.695  0.00  0.00    +0.136 C 
ATOM     22  C   UNL     1      -4.655 -10.531  13.674  0.00  0.00    +0.136 C 
ATOM     24  C   UNL     1      -2.337 -11.775  12.576  0.00  0.00    +0.179 C 
ATOM     25  C   UNL     1      -4.685 -11.559  12.551  0.00  0.00    +0.179 C 
ENDBRANCH  16  20
ENDBRANCH  11  16
TORSDOF 7
ENDMDL
MODEL 4
REMARK VINA RESULT:      -6.8     20.837     23.136
REMARK  Name = 38028154
REMARK  11 active torsions:
REMARK  status: ('A' for Active; 'I' for Inactive)
REMARK    1  A    between atoms: N_5  and  C_15
REMARK    2  A    between atoms: N_7  and  C_31
REMARK    3  A    between atoms: C_8  and  C_12
REMARK    4  A    between atoms: C_9  and  C_15
REMARK    5  A    between atoms: C_11  and  C_16
REMARK    6  A    between atoms: C_12  and  C_17
REMARK    7  A    between atoms: C_12  and  C_18
REMARK    8  A    between atoms: C_13  and  C_19
REMARK    9  A    between atoms: C_16  and  C_20
REMARK   10  A    between atoms: C_23  and  C_26
REMARK   11  A    between atoms: C_32  and  C_33
REMARK                            x       y       z     vdW  Elec       q    Type
REMARK                         _______ _______ _______ _____ _____    ______ ____
ROOT
ATOM      8  C   UNL     1     -12.995   8.073  20.560  0.00  0.00    +0.000 C 
ATOM      9  C   UNL     1     -12.338   9.245  21.331  0.00  0.00    +0.032 C 
ATOM     10  C   UNL     1     -12.025   7.511  19.510  0.00  0.00    +0.012 C 
ATOM     11  C   UNL     1     -11.585   8.580  18.491  0.00  0.00    +0.023 C 
ATOM     13  C   UNL     1     -11.174   9.870  19.171  0.00  0.00    -0.073 C 
ATOM     14  C   UNL     1     -11.508  10.144  20.444  0.00  0.00    -0.022 C 
ATOM     19  C   UNL     1     -10.330  10.819  18.367  0.00  0.00    +0.039 C 
ENDROOT
BRANCH   8  12
ATOM     12  C   UNL     1     -13.444   6.953  21.503  0.00  0.00    -0.013 C 
ATOM     17  C   UNL     1     -14.807   6.415  21.079  0.00  0.00    +0.007 C 
ATOM     18  C   UNL     1     -12.407   5.835  21.533  0.00  0.00    +0.007 C 
ENDBRANCH   8  12
BRANCH   9  15
ATOM     15  C   UNL     1     -13.390  10.083  22.065  0.00  0.00    +0.112 C 
BRANCH  15   5
ATOM      3  O   UNL     1     -11.602  11.729  23.594  0.00  0.00    -0.270 OA
ATOM      5  N   UNL     1     -13.183  10.033  23.479  0.00  0.00    -0.311 N 
ATOM     23  C   UNL     1     -12.292  10.874  24.144  0.00  0.00    +0.244 C 
ATOM     34  H   UNL     1     -13.784   9.415  24.013  0.00  0.00    +0.149 HD
BRANCH  23  26
ATOM     26  C   UNL     1     -12.171  10.679  25.613  0.00  0.00    +0.037 A 
ATOM     27  C   UNL     1     -10.917  10.481  26.188  0.00  0.00    +0.015 A 
ATOM     28  C   UNL     1     -13.312  10.696  26.414  0.00  0.00    +0.015 A 
ATOM     29  C   UNL     1     -10.803  10.300  27.566  0.00  0.00    +0.024 A 
ATOM     30  C   UNL     1     -13.199  10.514  27.793  0.00  0.00    +0.024 A 
ATOM     31  C   UNL     1     -11.944  10.315  28.369  0.00  0.00    +0.033 A 
BRANCH  31   7
ATOM      4  O   UNL     1     -10.971  12.195  30.511  0.00  0.00    -0.276 OA
ATOM      7  N   UNL     1     -11.829  10.135  29.747  0.00  0.00    -0.286 N 
ATOM     32  C   UNL     1     -11.366  11.049  30.704  0.00  0.00    +0.214 C 
ATOM     33  C   UNL     1     -11.398  10.468  32.095  0.00  0.00    +0.109 C 
ATOM     35  H   UNL     1     -12.122   9.224  30.092  0.00  0.00    +0.155 HD
ENDBRANCH  31   7
ENDBRANCH  23  26
ENDBRANCH  15   5
ENDBRANCH   9  15
BRANCH  11  16
ATOM     16  C   UNL     1     -12.681   8.834  17.450  0.00  0.00    +0.103 C 
BRANCH  16  20
ATOM      1  O   UNL     1     -10.944   8.450  15.882  0.00  0.00    -0.276 OA
ATOM      2  O   UNL     1     -14.925   7.159  13.248  0.00  0.00    -0.377 OA
ATOM      6  N   UNL     1     -13.117   8.308  15.079  0.00  0.00    -0.297 N 
ATOM     20  C   UNL     1     -12.161   8.516  16.070  0.00  0.00    +0.216 C 
ATOM     21  C   UNL     1     -12.699   7.990  13.713  0.00  0.00    +0.136 C 
ATOM     22  C   UNL     1     -14.562   8.502  15.236  0.00  0.00    +0.136 C 
ATOM     24  C   UNL     1     -13.533   6.846  13.157  0.00  0.00    +0.179 C 
ATOM     25  C   UNL     1     -15.322   7.339  14.611  0.00  0.00    +0.179 C 
ENDBRANCH  16  20
ENDBRANCH  11  16
TORSDOF 7
ENDMDL
MODEL 5
REMARK VINA RESULT:      -6.7      3.220      4.915
REMARK  Name = 38028154
REMARK  11 active torsions:
REMARK  status: ('A' for Active; 'I' for Inactive)
REMARK    1  A    between atoms: N_5  and  C_15
REMARK    2  A    between atoms: N_7  and  C_31
REMARK    3  A    between atoms: C_8  and  C_12
REMARK    4  A    between atoms: C_9  and  C_15
REMARK    5  A    between atoms: C_11  and  C_16
REMARK    6  A    between atoms: C_12  and  C_17
REMARK    7  A    between atoms: C_12  and  C_18
REMARK    8  A    between atoms: C_13  and  C_19
REMARK    9  A    between atoms: C_16  and  C_20
REMARK   10  A    between atoms: C_23  and  C_26
REMARK   11  A    between atoms: C_32  and  C_33
REMARK                            x       y       z     vdW  Elec       q    Type
REMARK                         _______ _______ _______ _____ _____    ______ ____
ROOT
ATOM      8  C   UNL     1      -5.077 -12.167  16.126  0.00  0.00    +0.000 C 
ATOM      9  C   UNL     1      -4.105 -11.745  17.256  0.00  0.00    +0.032 C 
ATOM     10  C   UNL     1      -4.293 -12.608  14.881  0.00  0.00    +0.012 C 
ATOM     11  C   UNL     1      -3.376 -11.491  14.344  0.00  0.00    +0.023 C 
ATOM     13  C   UNL     1      -2.576 -10.839  15.452  0.00  0.00    -0.073 C 
ATOM     14  C   UNL     1      -2.908 -10.975  16.748  0.00  0.00    -0.022 C 
ATOM     19  C   UNL     1      -1.356 -10.064  15.039  0.00  0.00    +0.039 C 
ENDROOT
BRANCH   8  12
ATOM     12  C   UNL     1      -6.014 -13.293  16.574  0.00  0.00    -0.013 C 
ATOM     17  C   UNL     1      -7.263 -13.325  15.700  0.00  0.00    +0.007 C 
ATOM     18  C   UNL     1      -5.291 -14.635  16.533  0.00  0.00    +0.007 C 
ENDBRANCH   8  12
BRANCH   9  15
ATOM     15  C   UNL     1      -4.826 -10.920  18.327  0.00  0.00    +0.112 C 
BRANCH  15   5
ATOM      3  O   UNL     1      -7.389 -10.880  19.622  0.00  0.00    -0.270 OA
ATOM      5  N   UNL     1      -6.036 -10.361  17.808  0.00  0.00    -0.311 N 
ATOM     23  C   UNL     1      -7.242 -10.384  18.507  0.00  0.00    +0.244 C 
ATOM     34  H   UNL     1      -5.972  -9.854  16.933  0.00  0.00    +0.149 HD
BRANCH  23  26
ATOM     26  C   UNL     1      -8.415  -9.785  17.819  0.00  0.00    +0.037 A 
ATOM     27  C   UNL     1      -8.262  -9.194  16.567  0.00  0.00    +0.015 A 
ATOM     28  C   UNL     1      -9.670  -9.816  18.427  0.00  0.00    +0.015 A 
ATOM     29  C   UNL     1      -9.362  -8.632  15.920  0.00  0.00    +0.024 A 
ATOM     30  C   UNL     1     -10.772  -9.255  17.781  0.00  0.00    +0.024 A 
ATOM     31  C   UNL     1     -10.618  -8.662  16.528  0.00  0.00    +0.033 A 
BRANCH  31   7
ATOM      4  O   UNL     1     -11.523  -5.797  16.338  0.00  0.00    -0.276 OA
ATOM      7  N   UNL     1     -11.719  -8.102  15.881  0.00  0.00    -0.286 N 
ATOM     32  C   UNL     1     -12.096  -6.753  15.825  0.00  0.00    +0.214 C 
ATOM     33  C   UNL     1     -13.356  -6.556  15.020  0.00  0.00    +0.109 C 
ATOM     35  H   UNL     1     -12.317  -8.762  15.389  0.00  0.00    +0.155 HD
ENDBRANCH  31   7
ENDBRANCH  23  26
ENDBRANCH  15   5
ENDBRANCH   9  15
BRANCH  11  16
ATOM     16  C   UNL     1      -4.180 -10.447  13.560  0.00  0.00    +0.103 C 
BRANCH  16  20
ATOM      1  O   UNL     1      -2.529 -10.828  11.902  0.00  0.00    -0.276 OA
ATOM      2  O   UNL     1      -6.124  -8.738   9.225  0.00  0.00    -0.377 OA
ATOM      6  N   UNL     1      -4.362  -9.552  11.268  0.00  0.00    -0.297 N 
ATOM     20  C   UNL     1      -3.608 -10.297  12.173  0.00  0.00    +0.216 C 
ATOM     21  C   UNL     1      -3.883  -9.361   9.898  0.00  0.00    +0.136 C 
ATOM     22  C   UNL     1      -5.581  -8.804  11.589  0.00  0.00    +0.136 C 
ATOM     24  C   UNL     1      -5.014  -9.582   8.906  0.00  0.00    +0.179 C 
ATOM     25  C   UNL     1      -6.643  -9.042  10.523  0.00  0.00    +0.179 C 
ENDBRANCH  16  20
ENDBRANCH  11  16
TORSDOF 7
ENDMDL
MODEL 6
REMARK VINA RESULT:      -6.6     24.173     27.605
REMARK  Name = 38028154
REMARK  11 active torsions:
REMARK  status: ('A' for Active; 'I' for Inactive)
REMARK    1  A    between atoms: N_5  and  C_15
REMARK    2  A    between atoms: N_7  and  C_31
REMARK    3  A    between atoms: C_8  and  C_12
REMARK    4  A    between atoms: C_9  and  C_15
REMARK    5  A    between atoms: C_11  and  C_16
REMARK    6  A    between atoms: C_12  and  C_17
REMARK    7  A    between atoms: C_12  and  C_18
REMARK    8  A    between atoms: C_13  and  C_19
REMARK    9  A    between atoms: C_16  and  C_20
REMARK   10  A    between atoms: C_23  and  C_26
REMARK   11  A    between atoms: C_32  and  C_33
REMARK                            x       y       z     vdW  Elec       q    Type
REMARK                         _______ _______ _______ _____ _____    ______ ____
ROOT
ATOM      8  C   UNL     1       8.844   8.491   5.305  0.00  0.00    +0.000 C 
ATOM      9  C   UNL     1       8.797   7.833   6.708  0.00  0.00    +0.032 C 
ATOM     10  C   UNL     1       8.334   7.513   4.237  0.00  0.00    +0.012 C 
ATOM     11  C   UNL     1       9.160   6.213   4.194  0.00  0.00    +0.023 C 
ATOM     13  C   UNL     1       9.386   5.644   5.579  0.00  0.00    -0.073 C 
ATOM     14  C   UNL     1       9.206   6.379   6.691  0.00  0.00    -0.022 C 
ATOM     19  C   UNL     1       9.781   4.196   5.660  0.00  0.00    +0.039 C 
ENDROOT
BRANCH   8  12
ATOM     12  C   UNL     1       8.026   9.785   5.257  0.00  0.00    -0.013 C 
ATOM     17  C   UNL     1       8.939  10.983   5.017  0.00  0.00    +0.007 C 
ATOM     18  C   UNL     1       6.954   9.696   4.175  0.00  0.00    +0.007 C 
ENDBRANCH   8  12
BRANCH   9  15
ATOM     15  C   UNL     1       9.671   8.599   7.707  0.00  0.00    +0.112 C 
BRANCH  15   5
ATOM      3  O   UNL     1      11.532  10.758   7.365  0.00  0.00    -0.270 OA
ATOM      5  N   UNL     1      11.054   8.487   7.362  0.00  0.00    -0.311 N 
ATOM     23  C   UNL     1      11.891   9.593   7.215  0.00  0.00    +0.244 C 
ATOM     34  H   UNL     1      11.444   7.552   7.312  0.00  0.00    +0.149 HD
BRANCH  23  26
ATOM     26  C   UNL     1      13.297   9.311   6.828  0.00  0.00    +0.037 A 
ATOM     27  C   UNL     1      14.193  10.362   6.644  0.00  0.00    +0.015 A 
ATOM     28  C   UNL     1      13.720   7.994   6.648  0.00  0.00    +0.015 A 
ATOM     29  C   UNL     1      15.514  10.098   6.281  0.00  0.00    +0.024 A 
ATOM     30  C   UNL     1      15.041   7.729   6.284  0.00  0.00    +0.024 A 
ATOM     31  C   UNL     1      15.938   8.781   6.100  0.00  0.00    +0.033 A 
BRANCH  31   7
ATOM      4  O   UNL     1      17.159   8.280   3.395  0.00  0.00    -0.276 OA
ATOM      7  N   UNL     1      17.258   8.517   5.739  0.00  0.00    -0.286 N 
ATOM     32  C   UNL     1      17.775   8.289   4.456  0.00  0.00    +0.214 C 
ATOM     33  C   UNL     1      19.262   8.041   4.487  0.00  0.00    +0.109 C 
ATOM     35  H   UNL     1      17.923   8.491   6.509  0.00  0.00    +0.155 HD
ENDBRANCH  31   7
ENDBRANCH  23  26
ENDBRANCH  15   5
ENDBRANCH   9  15
BRANCH  11  16
ATOM     16  C   UNL     1      10.492   6.429   3.466  0.00  0.00    +0.103 C 
BRANCH  16  20
ATOM      1  O   UNL     1       9.684   6.870   1.281  0.00  0.00    -0.276 OA
ATOM      2  O   UNL     1      12.746   3.080   0.433  0.00  0.00    -0.377 OA
ATOM      6  N   UNL     1      10.951   4.944   1.550  0.00  0.00    -0.297 N 
ATOM     20  C   UNL     1      10.333   6.108   2.001  0.00  0.00    +0.216 C 
ATOM     21  C   UNL     1      10.851   4.560   0.141  0.00  0.00    +0.136 C 
ATOM     22  C   UNL     1      11.621   3.952   2.398  0.00  0.00    +0.136 C 
ATOM     24  C   UNL     1      12.210   4.123  -0.386  0.00  0.00    +0.179 C 
ATOM     25  C   UNL     1      12.947   3.534   1.775  0.00  0.00    +0.179 C 
ENDBRANCH  16  20
ENDBRANCH  11  16
TORSDOF 7
ENDMDL
MODEL 7
REMARK VINA RESULT:      -6.6     24.131     27.570
REMARK  Name = 38028154
REMARK  11 active torsions:
REMARK  status: ('A' for Active; 'I' for Inactive)
REMARK    1  A    between atoms: N_5  and  C_15
REMARK    2  A    between atoms: N_7  and  C_31
REMARK    3  A    between atoms: C_8  and  C_12
REMARK    4  A    between atoms: C_9  and  C_15
REMARK    5  A    between atoms: C_11  and  C_16
REMARK    6  A    between atoms: C_12  and  C_17
REMARK    7  A    between atoms: C_12  and  C_18
REMARK    8  A    between atoms: C_13  and  C_19
REMARK    9  A    between atoms: C_16  and  C_20
REMARK   10  A    between atoms: C_23  and  C_26
REMARK   11  A    between atoms: C_32  and  C_33
REMARK                            x       y       z     vdW  Elec       q    Type
REMARK                         _______ _______ _______ _____ _____    ______ ____
ROOT
ATOM      8  C   UNL     1       9.048   8.497   4.937  0.00  0.00    +0.000 C 
ATOM      9  C   UNL     1       8.789   9.233   6.275  0.00  0.00    +0.032 C 
ATOM     10  C   UNL     1       8.469   7.075   4.986  0.00  0.00    +0.012 C 
ATOM     11  C   UNL     1       9.076   6.237   6.129  0.00  0.00    +0.023 C 
ATOM     13  C   UNL     1       9.101   7.004   7.436  0.00  0.00    -0.073 C 
ATOM     14  C   UNL     1       8.958   8.340   7.483  0.00  0.00    -0.022 C 
ATOM     19  C   UNL     1       9.250   6.193   8.693  0.00  0.00    +0.039 C 
ENDROOT
BRANCH   8  12
ATOM     12  C   UNL     1       8.455   9.257   3.746  0.00  0.00    -0.013 C 
ATOM     17  C   UNL     1       8.539   8.411   2.480  0.00  0.00    +0.007 C 
ATOM     18  C   UNL     1       7.011   9.656   4.035  0.00  0.00    +0.007 C 
ENDBRANCH   8  12
BRANCH   9  15
ATOM     15  C   UNL     1       9.696  10.460   6.416  0.00  0.00    +0.112 C 
BRANCH  15   5
ATOM      3  O   UNL     1      11.773  10.354   8.395  0.00  0.00    -0.270 OA
ATOM      5  N   UNL     1      11.064  10.107   6.199  0.00  0.00    -0.311 N 
ATOM     23  C   UNL     1      12.012  10.081   7.221  0.00  0.00    +0.244 C 
ATOM     34  H   UNL     1      11.316   9.781   5.272  0.00  0.00    +0.149 HD
BRANCH  23  26
ATOM     26  C   UNL     1      13.398   9.720   6.828  0.00  0.00    +0.037 A 
ATOM     27  C   UNL     1      13.745   8.382   6.644  0.00  0.00    +0.015 A 
ATOM     28  C   UNL     1      14.353  10.719   6.642  0.00  0.00    +0.015 A 
ATOM     29  C   UNL     1      15.045   8.042   6.274  0.00  0.00    +0.024 A 
ATOM     30  C   UNL     1      15.655  10.381   6.272  0.00  0.00    +0.024 A 
ATOM     31  C   UNL     1      16.002   9.042   6.088  0.00  0.00    +0.033 A 
BRANCH  31   7
ATOM      4  O   UNL     1      17.128   8.268   3.406  0.00  0.00    -0.276 OA
ATOM      7  N   UNL     1      17.302   8.702   5.717  0.00  0.00    -0.286 N 
ATOM     32  C   UNL     1      17.774   8.347   4.445  0.00  0.00    +0.214 C 
ATOM     33  C   UNL     1      19.252   8.051   4.460  0.00  0.00    +0.109 C 
ATOM     35  H   UNL     1      17.987   8.719   6.469  0.00  0.00    +0.155 HD
ENDBRANCH  31   7
ENDBRANCH  23  26
ENDBRANCH  15   5
ENDBRANCH   9  15
BRANCH  11  16
ATOM     16  C   UNL     1      10.477   5.735   5.761  0.00  0.00    +0.103 C 
BRANCH  16  20
ATOM      1  O   UNL     1       9.755   3.579   5.087  0.00  0.00    -0.276 OA
ATOM      2  O   UNL     1      11.529   5.378   0.835  0.00  0.00    -0.377 OA
ATOM      6  N   UNL     1      10.987   4.793   3.538  0.00  0.00    -0.297 N 
ATOM     20  C   UNL     1      10.371   4.601   4.773  0.00  0.00    +0.216 C 
ATOM     21  C   UNL     1      10.929   3.744   2.519  0.00  0.00    +0.136 C 
ATOM     22  C   UNL     1      11.831   5.936   3.177  0.00  0.00    +0.136 C 
ATOM     24  C   UNL     1      10.597   4.344   1.161  0.00  0.00    +0.179 C 
ATOM     25  C   UNL     1      11.467   6.444   1.788  0.00  0.00    +0.179 C 
ENDBRANCH  16  20
ENDBRANCH  11  16
TORSDOF 7
ENDMDL
MODEL 8
REMARK VINA RESULT:      -6.2     23.458     28.616
REMARK  Name = 38028154
REMARK  11 active torsions:
REMARK  status: ('A' for Active; 'I' for Inactive)
REMARK    1  A    between atoms: N_5  and  C_15
REMARK    2  A    between atoms: N_7  and  C_31
REMARK    3  A    between atoms: C_8  and  C_12
REMARK    4  A    between atoms: C_9  and  C_15
REMARK    5  A    between atoms: C_11  and  C_16
REMARK    6  A    between atoms: C_12  and  C_17
REMARK    7  A    between atoms: C_12  and  C_18
REMARK    8  A    between atoms: C_13  and  C_19
REMARK    9  A    between atoms: C_16  and  C_20
REMARK   10  A    between atoms: C_23  and  C_26
REMARK   11  A    between atoms: C_32  and  C_33
REMARK                            x       y       z     vdW  Elec       q    Type
REMARK                         _______ _______ _______ _____ _____    ______ ____
ROOT
ATOM      8  C   UNL     1     -12.196   8.992  35.152  0.00  0.00    +0.000 C 
ATOM      9  C   UNL     1     -13.295   8.398  34.235  0.00  0.00    +0.032 C 
ATOM     10  C   UNL     1     -11.702  10.335  34.597  0.00  0.00    +0.012 C 
ATOM     11  C   UNL     1     -11.128  10.203  33.173  0.00  0.00    +0.023 C 
ATOM     13  C   UNL     1     -12.039   9.393  32.273  0.00  0.00    -0.073 C 
ATOM     14  C   UNL     1     -13.010   8.603  32.765  0.00  0.00    -0.022 C 
ATOM     19  C   UNL     1     -11.838   9.546  30.791  0.00  0.00    +0.039 C 
ENDROOT
BRANCH   8  12
ATOM     12  C   UNL     1     -12.694   9.176  36.589  0.00  0.00    -0.013 C 
ATOM     17  C   UNL     1     -11.560   8.934  37.580  0.00  0.00    +0.007 C 
ATOM     18  C   UNL     1     -13.285  10.570  36.773  0.00  0.00    +0.007 C 
ENDBRANCH   8  12
BRANCH   9  15
ATOM     15  C   UNL     1     -13.501   6.906  34.513  0.00  0.00    +0.112 C 
BRANCH  15   5
ATOM      3  O   UNL     1     -14.215   4.133  34.296  0.00  0.00    -0.270 OA
ATOM      5  N   UNL     1     -13.915   6.221  33.328  0.00  0.00    -0.311 N 
ATOM     23  C   UNL     1     -14.245   4.867  33.311  0.00  0.00    +0.244 C 
ATOM     34  H   UNL     1     -14.052   6.782  32.494  0.00  0.00    +0.149 HD
BRANCH  23  26
ATOM     26  C   UNL     1     -14.630   4.297  31.994  0.00  0.00    +0.037 A 
ATOM     27  C   UNL     1     -13.937   3.202  31.479  0.00  0.00    +0.015 A 
ATOM     28  C   UNL     1     -15.684   4.856  31.273  0.00  0.00    +0.015 A 
ATOM     29  C   UNL     1     -14.298   2.666  30.244  0.00  0.00    +0.024 A 
ATOM     30  C   UNL     1     -16.047   4.320  30.037  0.00  0.00    +0.024 A 
ATOM     31  C   UNL     1     -15.353   3.225  29.522  0.00  0.00    +0.033 A 
BRANCH  31   7
ATOM      4  O   UNL     1     -16.734   0.636  28.847  0.00  0.00    -0.276 OA
ATOM      7  N   UNL     1     -15.715   2.688  28.287  0.00  0.00    -0.286 N 
ATOM     32  C   UNL     1     -16.359   1.470  28.028  0.00  0.00    +0.214 C 
ATOM     33  C   UNL     1     -16.574   1.253  26.552  0.00  0.00    +0.109 C 
ATOM     35  H   UNL     1     -15.479   3.259  27.478  0.00  0.00    +0.155 HD
ENDBRANCH  31   7
ENDBRANCH  23  26
ENDBRANCH  15   5
ENDBRANCH   9  15
BRANCH  11  16
ATOM     16  C   UNL     1      -9.715   9.609  33.199  0.00  0.00    +0.103 C 
BRANCH  16  20
ATOM      1  O   UNL     1      -8.720  10.025  35.311  0.00  0.00    -0.276 OA
ATOM      2  O   UNL     1      -6.377  13.327  32.472  0.00  0.00    -0.377 OA
ATOM      6  N   UNL     1      -8.222  11.529  33.614  0.00  0.00    -0.297 N 
ATOM     20  C   UNL     1      -8.845  10.401  34.143  0.00  0.00    +0.216 C 
ATOM     21  C   UNL     1      -7.356  12.351  34.460  0.00  0.00    +0.136 C 
ATOM     22  C   UNL     1      -8.446  12.075  32.272  0.00  0.00    +0.136 C 
ATOM     24  C   UNL     1      -6.073  12.702  33.721  0.00  0.00    +0.179 C 
ATOM     25  C   UNL     1      -7.118  12.444  31.624  0.00  0.00    +0.179 C 
ENDBRANCH  16  20
ENDBRANCH  11  16
TORSDOF 7
ENDMDL
MODEL 9
REMARK VINA RESULT:      -6.2     24.055     27.914
REMARK  Name = 38028154
REMARK  11 active torsions:
REMARK  status: ('A' for Active; 'I' for Inactive)
REMARK    1  A    between atoms: N_5  and  C_15
REMARK    2  A    between atoms: N_7  and  C_31
REMARK    3  A    between atoms: C_8  and  C_12
REMARK    4  A    between atoms: C_9  and  C_15
REMARK    5  A    between atoms: C_11  and  C_16
REMARK    6  A    between atoms: C_12  and  C_17
REMARK    7  A    between atoms: C_12  and  C_18
REMARK    8  A    between atoms: C_13  and  C_19
REMARK    9  A    between atoms: C_16  and  C_20
REMARK   10  A    between atoms: C_23  and  C_26
REMARK   11  A    between atoms: C_32  and  C_33
REMARK                            x       y       z     vdW  Elec       q    Type
REMARK                         _______ _______ _______ _____ _____    ______ ____
ROOT
ATOM      8  C   UNL     1      10.211   6.697   6.250  0.00  0.00    +0.000 C 
ATOM      9  C   UNL     1       9.344   7.982   6.260  0.00  0.00    +0.032 C 
ATOM     10  C   UNL     1      11.467   6.890   7.112  0.00  0.00    +0.012 C 
ATOM     11  C   UNL     1      12.334   8.067   6.624  0.00  0.00    +0.023 C 
ATOM     13  C   UNL     1      11.502   9.304   6.353  0.00  0.00    -0.073 C 
ATOM     14  C   UNL     1      10.167   9.249   6.207  0.00  0.00    -0.022 C 
ATOM     19  C   UNL     1      12.236  10.615   6.299  0.00  0.00    +0.039 C 
ENDROOT
BRANCH   8  12
ATOM     12  C   UNL     1       9.425   5.478   6.743  0.00  0.00    -0.013 C 
ATOM     17  C   UNL     1       9.750   4.256   5.892  0.00  0.00    +0.007 C 
ATOM     18  C   UNL     1       9.729   5.209   8.214  0.00  0.00    +0.007 C 
ENDBRANCH   8  12
BRANCH   9  15
ATOM     15  C   UNL     1       8.336   7.978   5.107  0.00  0.00    +0.112 C 
BRANCH  15   5
ATOM      3  O   UNL     1       9.804   8.769   2.769  0.00  0.00    -0.270 OA
ATOM      5  N   UNL     1       8.778   7.125   4.048  0.00  0.00    -0.311 N 
ATOM     23  C   UNL     1       9.489   7.593   2.944  0.00  0.00    +0.244 C 
ATOM     34  H   UNL     1       8.636   6.128   4.167  0.00  0.00    +0.149 HD
BRANCH  23  26
ATOM     26  C   UNL     1       9.854   6.584   1.916  0.00  0.00    +0.037 A 
ATOM     27  C   UNL     1       9.878   6.940   0.569  0.00  0.00    +0.015 A 
ATOM     28  C   UNL     1      10.172   5.282   2.300  0.00  0.00    +0.015 A 
ATOM     29  C   UNL     1      10.221   5.994  -0.397  0.00  0.00    +0.024 A 
ATOM     30  C   UNL     1      10.515   4.334   1.335  0.00  0.00    +0.024 A 
ATOM     31  C   UNL     1      10.539   4.690  -0.014  0.00  0.00    +0.033 A 
BRANCH  31   7
ATOM      4  O   UNL     1      13.218   3.520  -0.734  0.00  0.00    -0.276 OA
ATOM      7  N   UNL     1      10.883   3.745  -0.979  0.00  0.00    -0.286 N 
ATOM     32  C   UNL     1      12.154   3.233  -1.275  0.00  0.00    +0.214 C 
ATOM     33  C   UNL     1      12.105   2.222  -2.392  0.00  0.00    +0.109 C 
ATOM     35  H   UNL     1      10.108   3.386  -1.532  0.00  0.00    +0.155 HD
ENDBRANCH  31   7
ENDBRANCH  23  26
ENDBRANCH  15   5
ENDBRANCH   9  15
BRANCH  11  16
ATOM     16  C   UNL     1      13.152   7.675   5.388  0.00  0.00    +0.103 C 
BRANCH  16  20
ATOM      1  O   UNL     1      15.048   7.147   6.709  0.00  0.00    -0.276 OA
ATOM      2  O   UNL     1      17.173   9.221   2.755  0.00  0.00    -0.377 OA
ATOM      6  N   UNL     1      15.425   8.453   4.828  0.00  0.00    -0.297 N 
ATOM     20  C   UNL     1      14.624   7.731   5.709  0.00  0.00    +0.216 C 
ATOM     21  C   UNL     1      16.866   8.554   5.062  0.00  0.00    +0.136 C 
ATOM     22  C   UNL     1      14.941   9.261   3.704  0.00  0.00    +0.136 C 
ATOM     24  C   UNL     1      17.631   8.321   3.768  0.00  0.00    +0.179 C 
ATOM     25  C   UNL     1      15.789   9.005   2.465  0.00  0.00    +0.179 C 
ENDBRANCH  16  20
ENDBRANCH  11  16
TORSDOF 7
ENDMDL
MODEL 10
REMARK VINA RESULT:      -6.1     23.959     27.134
REMARK  Name = 38028154
REMARK  11 active torsions:
REMARK  status: ('A' for Active; 'I' for Inactive)
REMARK    1  A    between atoms: N_5  and  C_15
REMARK    2  A    between atoms: N_7  and  C_31
REMARK    3  A    between atoms: C_8  and  C_12
REMARK    4  A    between atoms: C_9  and  C_15
REMARK    5  A    between atoms: C_11  and  C_16
REMARK    6  A    between atoms: C_12  and  C_17
REMARK    7  A    between atoms: C_12  and  C_18
REMARK    8  A    between atoms: C_13  and  C_19
REMARK    9  A    between atoms: C_16  and  C_20
REMARK   10  A    between atoms: C_23  and  C_26
REMARK   11  A    between atoms: C_32  and  C_33
REMARK                            x       y       z     vdW  Elec       q    Type
REMARK                         _______ _______ _______ _____ _____    ______ ____
ROOT
ATOM      8  C   UNL     1       9.757   6.965   6.234  0.00  0.00    +0.000 C 
ATOM      9  C   UNL     1       9.505   6.184   4.920  0.00  0.00    +0.032 C 
ATOM     10  C   UNL     1       8.574   7.894   6.542  0.00  0.00    +0.012 C 
ATOM     11  C   UNL     1       8.320   8.910   5.412  0.00  0.00    +0.023 C 
ATOM     13  C   UNL     1       8.325   8.249   4.049  0.00  0.00    -0.073 C 
ATOM     14  C   UNL     1       8.846   7.025   3.851  0.00  0.00    -0.022 C 
ATOM     19  C   UNL     1       7.675   9.008   2.927  0.00  0.00    +0.039 C 
ENDROOT
BRANCH   8  12
ATOM     12  C   UNL     1       9.999   6.023   7.418  0.00  0.00    -0.013 C 
ATOM     17  C   UNL     1      11.446   6.121   7.889  0.00  0.00    +0.007 C 
ATOM     18  C   UNL     1       9.036   6.342   8.557  0.00  0.00    +0.007 C 
ENDBRANCH   8  12
BRANCH   9  15
ATOM     15  C   UNL     1      10.806   5.589   4.372  0.00  0.00    +0.112 C 
BRANCH  15   5
ATOM      3  O   UNL     1      11.296   3.224   2.819  0.00  0.00    -0.270 OA
ATOM      5  N   UNL     1      10.753   5.477   2.948  0.00  0.00    -0.311 N 
ATOM     23  C   UNL     1      11.005   4.285   2.270  0.00  0.00    +0.244 C 
ATOM     34  H   UNL     1      10.430   6.289   2.432  0.00  0.00    +0.149 HD
BRANCH  23  26
ATOM     26  C   UNL     1      10.937   4.340   0.787  0.00  0.00    +0.037 A 
ATOM     27  C   UNL     1      11.910   3.702   0.021  0.00  0.00    +0.015 A 
ATOM     28  C   UNL     1       9.898   5.029   0.162  0.00  0.00    +0.015 A 
ATOM     29  C   UNL     1      11.846   3.752  -1.371  0.00  0.00    +0.024 A 
ATOM     30  C   UNL     1       9.833   5.080  -1.230  0.00  0.00    +0.024 A 
ATOM     31  C   UNL     1      10.808   4.442  -1.998  0.00  0.00    +0.033 A 
BRANCH  31   7
ATOM      4  O   UNL     1       9.039   2.951  -3.925  0.00  0.00    -0.276 OA
ATOM      7  N   UNL     1      10.743   4.491  -3.389  0.00  0.00    -0.286 N 
ATOM     32  C   UNL     1       9.895   3.770  -4.243  0.00  0.00    +0.214 C 
ATOM     33  C   UNL     1      10.138   4.110  -5.691  0.00  0.00    +0.109 C 
ATOM     35  H   UNL     1      11.394   5.134  -3.833  0.00  0.00    +0.155 HD
ENDBRANCH  31   7
ENDBRANCH  23  26
ENDBRANCH  15   5
ENDBRANCH   9  15
BRANCH  11  16
ATOM     16  C   UNL     1       9.333  10.060   5.467  0.00  0.00    +0.103 C 
BRANCH  16  20
ATOM      1  O   UNL     1       7.757  11.830   5.384  0.00  0.00    -0.276 OA
ATOM      2  O   UNL     1       9.518  12.319   9.979  0.00  0.00    -0.377 OA
ATOM      6  N   UNL     1       9.149  11.766   7.240  0.00  0.00    -0.297 N 
ATOM     20  C   UNL     1       8.672  11.299   6.018  0.00  0.00    +0.216 C 
ATOM     21  C   UNL     1       8.560  12.959   7.849  0.00  0.00    +0.136 C 
ATOM     22  C   UNL     1      10.313  11.236   7.959  0.00  0.00    +0.136 C 
ATOM     24  C   UNL     1       8.311  12.729   9.332  0.00  0.00    +0.179 C 
ATOM     25  C   UNL     1       9.994  11.082   9.440  0.00  0.00    +0.179 C 
ENDBRANCH  16  20
ENDBRANCH  11  16
TORSDOF 7
ENDMDL
