MODEL 1
REMARK VINA RESULT:      -6.7      0.000      0.000
REMARK  Name = 25389372
REMARK  9 active torsions:
REMARK  status: ('A' for Active; 'I' for Inactive)
REMARK    1  A    between atoms: S_1  and  N_7
REMARK    2  A    between atoms: S_1  and  C_23
REMARK    3  A    between atoms: O_4  and  C_28
REMARK    4  A    between atoms: O_4  and  C_29
REMARK    5  A    between atoms: N_6  and  C_15
REMARK    6  A    between atoms: N_7  and  C_16
REMARK    7  A    between atoms: C_9  and  C_15
REMARK    8  A    between atoms: C_10  and  C_16
REMARK    9  A    between atoms: C_19  and  C_22
REMARK                            x       y       z     vdW  Elec       q    Type
REMARK                         _______ _______ _______ _____ _____    ______ ____
ROOT
ATOM      5  N   UNL     1      -6.087 -12.658  17.558  0.00  0.00    -0.298 NA
ATOM      8  C   UNL     1      -6.458 -10.155  18.163  0.00  0.00    -0.003 C 
ATOM      9  C   UNL     1      -7.572 -10.666  17.220  0.00  0.00    +0.020 C 
ATOM     10  C   UNL     1      -4.848 -11.878  17.286  0.00  0.00    +0.072 C 
ATOM     11  C   UNL     1      -5.087 -10.366  17.494  0.00  0.00    +0.024 C 
ATOM     12  C   UNL     1      -7.223 -12.106  16.781  0.00  0.00    +0.089 C 
ATOM     13  C   UNL     1      -6.495 -11.044  19.422  0.00  0.00    +0.019 C 
ATOM     14  C   UNL     1      -6.404 -12.521  19.001  0.00  0.00    +0.085 C 
ENDROOT
BRANCH   9  15
ATOM     15  C   UNL     1      -7.810  -9.753  16.019  0.00  0.00    +0.089 C 
BRANCH  15   6
ATOM      6  N   UNL     1      -9.179  -9.239  16.067  0.00  0.00    -0.302 NA
ATOM     17  C   UNL     1      -9.624  -8.838  14.726  0.00  0.00    +0.084 C 
ATOM     18  C   UNL     1      -9.274  -8.121  17.014  0.00  0.00    +0.084 C 
ATOM     19  C   UNL     1     -11.255  -7.196  15.743  0.00  0.00    -0.012 C 
ATOM     20  C   UNL     1     -11.073  -8.347  14.749  0.00  0.00    +0.018 C 
ATOM     21  C   UNL     1     -10.712  -7.606  17.116  0.00  0.00    +0.018 C 
ATOM     22  C   UNL     1     -12.720  -6.778  15.835  0.00  0.00    +0.007 C 
ENDBRANCH  15   6
ENDBRANCH   9  15
BRANCH  10  16
ATOM     16  C   UNL     1      -4.263 -12.176  15.904  0.00  0.00    +0.124 C 
BRANCH  16   7
ATOM      7  N   UNL     1      -3.665 -10.947  15.357  0.00  0.00    -0.188 NA
ATOM     30  H   UNL     1      -3.896 -10.072  15.843  0.00  0.00    +0.148 HD
BRANCH   7   1
ATOM      1  S   UNL     1      -2.219 -11.024  14.461  0.00  0.00    +0.058 S 
ATOM      2  O   UNL     1      -1.837 -12.413  14.285  0.00  0.00    -0.153 OA
ATOM      3  O   UNL     1      -1.271 -10.071  15.007  0.00  0.00    -0.153 OA
BRANCH   1  23
ATOM     23  C   UNL     1      -2.734 -10.398  12.890  0.00  0.00    +0.105 A 
ATOM     24  C   UNL     1      -4.093 -10.306  12.588  0.00  0.00    +0.032 A 
ATOM     25  C   UNL     1      -1.782  -9.999  11.951  0.00  0.00    +0.032 A 
ATOM     26  C   UNL     1      -4.500  -9.814  11.347  0.00  0.00    +0.047 A 
ATOM     27  C   UNL     1      -2.189  -9.508  10.711  0.00  0.00    +0.047 A 
ATOM     28  C   UNL     1      -3.548  -9.415  10.410  0.00  0.00    +0.120 A 
BRANCH  28   4
ATOM      4  O   UNL     1      -3.945  -8.935   9.199  0.00  0.00    -0.495 OA
ATOM     29  C   UNL     1      -4.820  -9.759   8.430  0.00  0.00    +0.277 C 
ENDBRANCH  28   4
ENDBRANCH   1  23
ENDBRANCH   7   1
ENDBRANCH  16   7
ENDBRANCH  10  16
TORSDOF 7
ENDMDL
MODEL 2
REMARK VINA RESULT:      -6.6      1.949      2.506
REMARK  Name = 25389372
REMARK  9 active torsions:
REMARK  status: ('A' for Active; 'I' for Inactive)
REMARK    1  A    between atoms: S_1  and  N_7
REMARK    2  A    between atoms: S_1  and  C_23
REMARK    3  A    between atoms: O_4  and  C_28
REMARK    4  A    between atoms: O_4  and  C_29
REMARK    5  A    between atoms: N_6  and  C_15
REMARK    6  A    between atoms: N_7  and  C_16
REMARK    7  A    between atoms: C_9  and  C_15
REMARK    8  A    between atoms: C_10  and  C_16
REMARK    9  A    between atoms: C_19  and  C_22
REMARK                            x       y       z     vdW  Elec       q    Type
REMARK                         _______ _______ _______ _____ _____    ______ ____
ROOT
ATOM      5  N   UNL     1      -4.993 -12.794  16.774  0.00  0.00    -0.298 NA
ATOM      8  C   UNL     1      -5.291 -10.652  18.218  0.00  0.00    -0.003 C 
ATOM      9  C   UNL     1      -6.662 -11.269  17.857  0.00  0.00    +0.020 C 
ATOM     10  C   UNL     1      -4.233 -11.665  16.173  0.00  0.00    +0.072 C 
ATOM     11  C   UNL     1      -4.513 -10.345  16.926  0.00  0.00    +0.024 C 
ATOM     12  C   UNL     1      -6.430 -12.447  16.884  0.00  0.00    +0.089 C 
ATOM     13  C   UNL     1      -4.501 -11.733  18.982  0.00  0.00    +0.019 C 
ATOM     14  C   UNL     1      -4.467 -13.022  18.142  0.00  0.00    +0.085 C 
ENDROOT
BRANCH   9  15
ATOM     15  C   UNL     1      -7.648 -10.252  17.285  0.00  0.00    +0.089 C 
BRANCH  15   6
ATOM      6  N   UNL     1      -8.962 -10.460  17.892  0.00  0.00    -0.302 NA
ATOM     17  C   UNL     1      -9.778  -9.243  17.780  0.00  0.00    +0.084 C 
ATOM     18  C   UNL     1      -8.821 -10.875  19.294  0.00  0.00    +0.084 C 
ATOM     19  C   UNL     1     -11.105  -9.927  19.820  0.00  0.00    -0.012 C 
ATOM     20  C   UNL     1     -11.176  -9.460  18.363  0.00  0.00    +0.018 C 
ATOM     21  C   UNL     1     -10.186 -11.148  19.929  0.00  0.00    +0.018 C 
ATOM     22  C   UNL     1     -12.497 -10.237  20.364  0.00  0.00    +0.007 C 
ENDBRANCH  15   6
ENDBRANCH   9  15
BRANCH  10  16
ATOM     16  C   UNL     1      -4.485 -11.526  14.670  0.00  0.00    +0.124 C 
BRANCH  16   7
ATOM      7  N   UNL     1      -3.654 -10.434  14.139  0.00  0.00    -0.188 NA
ATOM     30  H   UNL     1      -3.624  -9.571  14.696  0.00  0.00    +0.148 HD
BRANCH   7   1
ATOM      1  S   UNL     1      -2.349 -10.779  13.101  0.00  0.00    +0.058 S 
ATOM      2  O   UNL     1      -1.945 -12.160  13.280  0.00  0.00    -0.153 OA
ATOM      3  O   UNL     1      -1.368  -9.714  13.201  0.00  0.00    -0.153 OA
BRANCH   1  23
ATOM     23  C   UNL     1      -3.106 -10.635  11.510  0.00  0.00    +0.105 A 
ATOM     24  C   UNL     1      -3.717 -11.745  10.925  0.00  0.00    +0.032 A 
ATOM     25  C   UNL     1      -3.092  -9.412  10.838  0.00  0.00    +0.032 A 
ATOM     26  C   UNL     1      -4.312 -11.632   9.668  0.00  0.00    +0.047 A 
ATOM     27  C   UNL     1      -3.686  -9.300   9.581  0.00  0.00    +0.047 A 
ATOM     28  C   UNL     1      -4.297 -10.410   8.997  0.00  0.00    +0.120 A 
BRANCH  28   4
ATOM      4  O   UNL     1      -4.878 -10.300   7.771  0.00  0.00    -0.495 OA
ATOM     29  C   UNL     1      -4.811 -11.440   6.916  0.00  0.00    +0.277 C 
ENDBRANCH  28   4
ENDBRANCH   1  23
ENDBRANCH   7   1
ENDBRANCH  16   7
ENDBRANCH  10  16
TORSDOF 7
ENDMDL
MODEL 3
REMARK VINA RESULT:      -6.5     22.895     27.161
REMARK  Name = 25389372
REMARK  9 active torsions:
REMARK  status: ('A' for Active; 'I' for Inactive)
REMARK    1  A    between atoms: S_1  and  N_7
REMARK    2  A    between atoms: S_1  and  C_23
REMARK    3  A    between atoms: O_4  and  C_28
REMARK    4  A    between atoms: O_4  and  C_29
REMARK    5  A    between atoms: N_6  and  C_15
REMARK    6  A    between atoms: N_7  and  C_16
REMARK    7  A    between atoms: C_9  and  C_15
REMARK    8  A    between atoms: C_10  and  C_16
REMARK    9  A    between atoms: C_19  and  C_22
REMARK                            x       y       z     vdW  Elec       q    Type
REMARK                         _______ _______ _______ _____ _____    ______ ____
ROOT
ATOM      5  N   UNL     1      13.501   6.058   1.274  0.00  0.00    -0.298 NA
ATOM      8  C   UNL     1      12.171   3.823   1.344  0.00  0.00    -0.003 C 
ATOM      9  C   UNL     1      11.865   4.607   0.048  0.00  0.00    +0.020 C 
ATOM     10  C   UNL     1      12.755   5.948   2.557  0.00  0.00    +0.072 C 
ATOM     11  C   UNL     1      11.840   4.704   2.563  0.00  0.00    +0.024 C 
ATOM     12  C   UNL     1      12.564   5.982   0.127  0.00  0.00    +0.089 C 
ATOM     13  C   UNL     1      13.691   3.568   1.364  0.00  0.00    +0.019 C 
ATOM     14  C   UNL     1      14.431   4.905   1.187  0.00  0.00    +0.085 C 
ENDROOT
BRANCH   9  15
ATOM     15  C   UNL     1      10.370   4.751  -0.230  0.00  0.00    +0.089 C 
BRANCH  15   6
ATOM      6  N   UNL     1      10.045   4.075  -1.486  0.00  0.00    -0.302 NA
ATOM     17  C   UNL     1      11.183   3.270  -1.946  0.00  0.00    +0.084 C 
ATOM     18  C   UNL     1       9.641   5.053  -2.506  0.00  0.00    +0.084 C 
ATOM     19  C   UNL     1      10.380   3.471  -4.334  0.00  0.00    -0.012 C 
ATOM     20  C   UNL     1      10.842   2.514  -3.231  0.00  0.00    +0.018 C 
ATOM     21  C   UNL     1       9.246   4.357  -3.810  0.00  0.00    +0.018 C 
ATOM     22  C   UNL     1       9.946   2.703  -5.580  0.00  0.00    +0.007 C 
ENDBRANCH  15   6
ENDBRANCH   9  15
BRANCH  10  16
ATOM     16  C   UNL     1      11.980   7.225   2.893  0.00  0.00    +0.124 C 
BRANCH  16   7
ATOM      7  N   UNL     1      10.556   6.895   3.065  0.00  0.00    -0.188 NA
ATOM     30  H   UNL     1      10.275   5.939   2.814  0.00  0.00    +0.148 HD
BRANCH   7   1
ATOM      1  S   UNL     1       9.609   7.753   4.191  0.00  0.00    +0.058 S 
ATOM      2  O   UNL     1       8.246   7.842   3.702  0.00  0.00    -0.153 OA
ATOM      3  O   UNL     1      10.320   8.952   4.592  0.00  0.00    -0.153 OA
BRANCH   1  23
ATOM     23  C   UNL     1       9.620   6.658   5.579  0.00  0.00    +0.105 A 
ATOM     24  C   UNL     1       9.368   7.153   6.859  0.00  0.00    +0.032 A 
ATOM     25  C   UNL     1       9.882   5.300   5.395  0.00  0.00    +0.032 A 
ATOM     26  C   UNL     1       9.379   6.290   7.955  0.00  0.00    +0.047 A 
ATOM     27  C   UNL     1       9.894   4.438   6.491  0.00  0.00    +0.047 A 
ATOM     28  C   UNL     1       9.642   4.933   7.770  0.00  0.00    +0.120 A 
BRANCH  28   4
ATOM      4  O   UNL     1       9.652   4.090   8.840  0.00  0.00    -0.495 OA
ATOM     29  C   UNL     1       9.236   4.629  10.095  0.00  0.00    +0.277 C 
ENDBRANCH  28   4
ENDBRANCH   1  23
ENDBRANCH   7   1
ENDBRANCH  16   7
ENDBRANCH  10  16
TORSDOF 7
ENDMDL
MODEL 4
REMARK VINA RESULT:      -6.4     23.133     27.752
REMARK  Name = 25389372
REMARK  9 active torsions:
REMARK  status: ('A' for Active; 'I' for Inactive)
REMARK    1  A    between atoms: S_1  and  N_7
REMARK    2  A    between atoms: S_1  and  C_23
REMARK    3  A    between atoms: O_4  and  C_28
REMARK    4  A    between atoms: O_4  and  C_29
REMARK    5  A    between atoms: N_6  and  C_15
REMARK    6  A    between atoms: N_7  and  C_16
REMARK    7  A    between atoms: C_9  and  C_15
REMARK    8  A    between atoms: C_10  and  C_16
REMARK    9  A    between atoms: C_19  and  C_22
REMARK                            x       y       z     vdW  Elec       q    Type
REMARK                         _______ _______ _______ _____ _____    ______ ____
ROOT
ATOM      5  N   UNL     1      14.680   6.426   0.475  0.00  0.00    -0.298 NA
ATOM      8  C   UNL     1      14.155   3.878   0.444  0.00  0.00    -0.003 C 
ATOM      9  C   UNL     1      13.069   4.675  -0.314  0.00  0.00    +0.020 C 
ATOM     10  C   UNL     1      14.715   5.881   1.860  0.00  0.00    +0.072 C 
ATOM     11  C   UNL     1      14.261   4.405   1.887  0.00  0.00    +0.024 C 
ATOM     12  C   UNL     1      13.353   6.183  -0.139  0.00  0.00    +0.089 C 
ATOM     13  C   UNL     1      15.497   4.179  -0.252  0.00  0.00    +0.019 C 
ATOM     14  C   UNL     1      15.699   5.703  -0.326  0.00  0.00    +0.085 C 
ENDROOT
BRANCH   9  15
ATOM     15  C   UNL     1      11.648   4.316   0.117  0.00  0.00    +0.089 C 
BRANCH  15   6
ATOM      6  N   UNL     1      10.910   3.797  -1.034  0.00  0.00    -0.302 NA
ATOM     17  C   UNL     1      11.745   2.862  -1.799  0.00  0.00    +0.084 C 
ATOM     18  C   UNL     1      10.437   4.900  -1.880  0.00  0.00    +0.084 C 
ATOM     19  C   UNL     1      10.417   3.368  -3.891  0.00  0.00    -0.012 C 
ATOM     20  C   UNL     1      10.970   2.269  -2.978  0.00  0.00    +0.018 C 
ATOM     21  C   UNL     1       9.617   4.377  -3.061  0.00  0.00    +0.018 C 
ATOM     22  C   UNL     1       9.562   2.774  -5.007  0.00  0.00    +0.007 C 
ENDBRANCH  15   6
ENDBRANCH   9  15
BRANCH  10  16
ATOM     16  C   UNL     1      13.918   6.739   2.845  0.00  0.00    +0.124 C 
BRANCH  16   7
ATOM      7  N   UNL     1      12.742   5.983   3.303  0.00  0.00    -0.188 NA
ATOM     30  H   UNL     1      12.927   5.074   3.743  0.00  0.00    +0.148 HD
BRANCH   7   1
ATOM      1  S   UNL     1      11.299   6.800   3.695  0.00  0.00    +0.058 S 
ATOM      2  O   UNL     1      10.304   6.533   2.674  0.00  0.00    -0.153 OA
ATOM      3  O   UNL     1      11.614   8.166   4.067  0.00  0.00    -0.153 OA
BRANCH   1  23
ATOM     23  C   UNL     1      10.803   5.965   5.171  0.00  0.00    +0.105 A 
ATOM     24  C   UNL     1      10.093   4.766   5.089  0.00  0.00    +0.032 A 
ATOM     25  C   UNL     1      11.117   6.505   6.419  0.00  0.00    +0.032 A 
ATOM     26  C   UNL     1       9.699   4.108   6.255  0.00  0.00    +0.047 A 
ATOM     27  C   UNL     1      10.722   5.847   7.583  0.00  0.00    +0.047 A 
ATOM     28  C   UNL     1      10.014   4.649   7.501  0.00  0.00    +0.120 A 
BRANCH  28   4
ATOM      4  O   UNL     1       9.628   4.006   8.638  0.00  0.00    -0.495 OA
ATOM     29  C   UNL     1       9.228   4.821   9.739  0.00  0.00    +0.277 C 
ENDBRANCH  28   4
ENDBRANCH   1  23
ENDBRANCH   7   1
ENDBRANCH  16   7
ENDBRANCH  10  16
TORSDOF 7
ENDMDL
MODEL 5
REMARK VINA RESULT:      -6.2      3.336      8.767
REMARK  Name = 25389372
REMARK  9 active torsions:
REMARK  status: ('A' for Active; 'I' for Inactive)
REMARK    1  A    between atoms: S_1  and  N_7
REMARK    2  A    between atoms: S_1  and  C_23
REMARK    3  A    between atoms: O_4  and  C_28
REMARK    4  A    between atoms: O_4  and  C_29
REMARK    5  A    between atoms: N_6  and  C_15
REMARK    6  A    between atoms: N_7  and  C_16
REMARK    7  A    between atoms: C_9  and  C_15
REMARK    8  A    between atoms: C_10  and  C_16
REMARK    9  A    between atoms: C_19  and  C_22
REMARK                            x       y       z     vdW  Elec       q    Type
REMARK                         _______ _______ _______ _____ _____    ______ ____
ROOT
ATOM      5  N   UNL     1      -5.290 -10.061  11.501  0.00  0.00    -0.298 NA
ATOM      8  C   UNL     1      -4.184  -9.399   9.242  0.00  0.00    -0.003 C 
ATOM      9  C   UNL     1      -4.955 -10.732   9.109  0.00  0.00    +0.020 C 
ATOM     10  C   UNL     1      -3.844  -9.777  11.706  0.00  0.00    +0.072 C 
ATOM     11  C   UNL     1      -3.131  -9.528  10.358  0.00  0.00    +0.024 C 
ATOM     12  C   UNL     1      -5.466 -11.147  10.507  0.00  0.00    +0.089 C 
ATOM     13  C   UNL     1      -5.204  -8.336   9.696  0.00  0.00    +0.019 C 
ATOM     14  C   UNL     1      -5.924  -8.833  10.961  0.00  0.00    +0.085 C 
ENDROOT
BRANCH   9  15
ATOM     15  C   UNL     1      -4.132 -11.843   8.459  0.00  0.00    +0.089 C 
BRANCH  15   6
ATOM      6  N   UNL     1      -4.721 -12.186   7.165  0.00  0.00    -0.302 NA
ATOM     17  C   UNL     1      -3.749 -12.907   6.333  0.00  0.00    +0.084 C 
ATOM     18  C   UNL     1      -5.208 -10.978   6.485  0.00  0.00    +0.084 C 
ATOM     19  C   UNL     1      -4.926 -12.110   4.242  0.00  0.00    -0.012 C 
ATOM     20  C   UNL     1      -4.366 -13.321   4.995  0.00  0.00    +0.018 C 
ATOM     21  C   UNL     1      -5.876 -11.326   5.153  0.00  0.00    +0.018 C 
ATOM     22  C   UNL     1      -5.629 -12.541   2.957  0.00  0.00    +0.007 C 
ENDBRANCH  15   6
ENDBRANCH   9  15
BRANCH  10  16
ATOM     16  C   UNL     1      -3.146 -10.865  12.525  0.00  0.00    +0.124 C 
BRANCH  16   7
ATOM      7  N   UNL     1      -2.784 -10.320  13.844  0.00  0.00    -0.188 NA
ATOM     30  H   UNL     1      -3.088  -9.358  14.039  0.00  0.00    +0.148 HD
BRANCH   7   1
ATOM      1  S   UNL     1      -2.507 -11.369  15.156  0.00  0.00    +0.058 S 
ATOM      2  O   UNL     1      -1.284 -10.979  15.833  0.00  0.00    -0.153 OA
ATOM      3  O   UNL     1      -2.691 -12.739  14.716  0.00  0.00    -0.153 OA
BRANCH   1  23
ATOM     23  C   UNL     1      -3.865 -10.982  16.220  0.00  0.00    +0.105 A 
ATOM     24  C   UNL     1      -4.955 -10.266  15.725  0.00  0.00    +0.032 A 
ATOM     25  C   UNL     1      -3.845 -11.390  17.554  0.00  0.00    +0.032 A 
ATOM     26  C   UNL     1      -6.026  -9.958  16.565  0.00  0.00    +0.047 A 
ATOM     27  C   UNL     1      -4.916 -11.082  18.393  0.00  0.00    +0.047 A 
ATOM     28  C   UNL     1      -6.006 -10.366  17.898  0.00  0.00    +0.120 A 
BRANCH  28   4
ATOM      4  O   UNL     1      -7.051 -10.066  18.718  0.00  0.00    -0.495 OA
ATOM     29  C   UNL     1      -8.025 -11.087  18.928  0.00  0.00    +0.277 C 
ENDBRANCH  28   4
ENDBRANCH   1  23
ENDBRANCH   7   1
ENDBRANCH  16   7
ENDBRANCH  10  16
TORSDOF 7
ENDMDL
MODEL 6
REMARK VINA RESULT:      -6.2     23.564     27.495
REMARK  Name = 25389372
REMARK  9 active torsions:
REMARK  status: ('A' for Active; 'I' for Inactive)
REMARK    1  A    between atoms: S_1  and  N_7
REMARK    2  A    between atoms: S_1  and  C_23
REMARK    3  A    between atoms: O_4  and  C_28
REMARK    4  A    between atoms: O_4  and  C_29
REMARK    5  A    between atoms: N_6  and  C_15
REMARK    6  A    between atoms: N_7  and  C_16
REMARK    7  A    between atoms: C_9  and  C_15
REMARK    8  A    between atoms: C_10  and  C_16
REMARK    9  A    between atoms: C_19  and  C_22
REMARK                            x       y       z     vdW  Elec       q    Type
REMARK                         _______ _______ _______ _____ _____    ______ ____
ROOT
ATOM      5  N   UNL     1      14.344   7.946   4.004  0.00  0.00    -0.298 NA
ATOM      8  C   UNL     1      11.929   8.486   3.202  0.00  0.00    -0.003 C 
ATOM      9  C   UNL     1      11.907   7.725   4.548  0.00  0.00    +0.020 C 
ATOM     10  C   UNL     1      14.154   7.476   2.605  0.00  0.00    +0.072 C 
ATOM     11  C   UNL     1      12.686   7.648   2.155  0.00  0.00    +0.024 C 
ATOM     12  C   UNL     1      13.351   7.307   4.900  0.00  0.00    +0.089 C 
ATOM     13  C   UNL     1      12.741   9.776   3.430  0.00  0.00    +0.019 C 
ATOM     14  C   UNL     1      14.112   9.411   4.028  0.00  0.00    +0.085 C 
ENDROOT
BRANCH   9  15
ATOM     15  C   UNL     1      10.957   6.529   4.548  0.00  0.00    +0.089 C 
BRANCH  15   6
ATOM      6  N   UNL     1      10.815   6.026   5.914  0.00  0.00    -0.302 NA
ATOM     17  C   UNL     1       9.988   4.812   5.930  0.00  0.00    +0.084 C 
ATOM     18  C   UNL     1      10.250   7.063   6.787  0.00  0.00    +0.084 C 
ATOM     19  C   UNL     1       9.317   5.283   8.322  0.00  0.00    -0.012 C 
ATOM     20  C   UNL     1       9.871   4.242   7.346  0.00  0.00    +0.018 C 
ATOM     21  C   UNL     1      10.143   6.570   8.232  0.00  0.00    +0.018 C 
ATOM     22  C   UNL     1       9.298   4.742   9.749  0.00  0.00    +0.007 C 
ENDBRANCH  15   6
ENDBRANCH   9  15
BRANCH  10  16
ATOM     16  C   UNL     1      14.647   6.042   2.399  0.00  0.00    +0.124 C 
BRANCH  16   7
ATOM      7  N   UNL     1      13.503   5.183   2.052  0.00  0.00    -0.188 NA
ATOM     30  H   UNL     1      12.653   5.662   1.733  0.00  0.00    +0.148 HD
BRANCH   7   1
ATOM      1  S   UNL     1      13.761   3.571   1.565  0.00  0.00    +0.058 S 
ATOM      2  O   UNL     1      12.638   2.756   1.991  0.00  0.00    -0.153 OA
ATOM      3  O   UNL     1      15.115   3.182   1.909  0.00  0.00    -0.153 OA
BRANCH   1  23
ATOM     23  C   UNL     1      13.695   3.712  -0.196  0.00  0.00    +0.105 A 
ATOM     24  C   UNL     1      14.708   4.385  -0.880  0.00  0.00    +0.032 A 
ATOM     25  C   UNL     1      12.630   3.152  -0.902  0.00  0.00    +0.032 A 
ATOM     26  C   UNL     1      14.654   4.498  -2.269  0.00  0.00    +0.047 A 
ATOM     27  C   UNL     1      12.576   3.266  -2.291  0.00  0.00    +0.047 A 
ATOM     28  C   UNL     1      13.589   3.938  -2.974  0.00  0.00    +0.120 A 
BRANCH  28   4
ATOM      4  O   UNL     1      13.538   4.049  -4.330  0.00  0.00    -0.495 OA
ATOM     29  C   UNL     1      12.740   3.094  -5.029  0.00  0.00    +0.277 C 
ENDBRANCH  28   4
ENDBRANCH   1  23
ENDBRANCH   7   1
ENDBRANCH  16   7
ENDBRANCH  10  16
TORSDOF 7
ENDMDL
MODEL 7
REMARK VINA RESULT:      -6.1     24.977     27.404
REMARK  Name = 25389372
REMARK  9 active torsions:
REMARK  status: ('A' for Active; 'I' for Inactive)
REMARK    1  A    between atoms: S_1  and  N_7
REMARK    2  A    between atoms: S_1  and  C_23
REMARK    3  A    between atoms: O_4  and  C_28
REMARK    4  A    between atoms: O_4  and  C_29
REMARK    5  A    between atoms: N_6  and  C_15
REMARK    6  A    between atoms: N_7  and  C_16
REMARK    7  A    between atoms: C_9  and  C_15
REMARK    8  A    between atoms: C_10  and  C_16
REMARK    9  A    between atoms: C_19  and  C_22
REMARK                            x       y       z     vdW  Elec       q    Type
REMARK                         _______ _______ _______ _____ _____    ______ ____
ROOT
ATOM      5  N   UNL     1      10.049   7.409   3.665  0.00  0.00    -0.298 NA
ATOM      8  C   UNL     1       9.459   6.389   5.984  0.00  0.00    -0.003 C 
ATOM      9  C   UNL     1      10.187   7.743   6.146  0.00  0.00    +0.020 C 
ATOM     10  C   UNL     1      10.545   6.009   3.746  0.00  0.00    +0.072 C 
ATOM     11  C   UNL     1      10.341   5.429   5.164  0.00  0.00    +0.024 C 
ATOM     12  C   UNL     1      10.639   8.228   4.750  0.00  0.00    +0.089 C 
ATOM     13  C   UNL     1       8.188   6.661   5.155  0.00  0.00    +0.019 C 
ATOM     14  C   UNL     1       8.577   7.384   3.854  0.00  0.00    +0.085 C 
ENDROOT
BRANCH   9  15
ATOM     15  C   UNL     1      11.357   7.684   7.127  0.00  0.00    +0.089 C 
BRANCH  15   6
ATOM      6  N   UNL     1      12.588   8.062   6.435  0.00  0.00    -0.302 NA
ATOM     17  C   UNL     1      13.588   6.993   6.546  0.00  0.00    +0.084 C 
ATOM     18  C   UNL     1      13.106   9.330   6.964  0.00  0.00    +0.084 C 
ATOM     19  C   UNL     1      15.447   8.683   6.261  0.00  0.00    -0.012 C 
ATOM     20  C   UNL     1      14.865   7.349   5.782  0.00  0.00    +0.018 C 
ATOM     21  C   UNL     1      14.366   9.767   6.213  0.00  0.00    +0.018 C 
ATOM     22  C   UNL     1      16.662   9.082   5.427  0.00  0.00    +0.007 C 
ENDBRANCH  15   6
ENDBRANCH   9  15
BRANCH  10  16
ATOM     16  C   UNL     1      11.997   5.876   3.281  0.00  0.00    +0.124 C 
BRANCH  16   7
ATOM      7  N   UNL     1      12.187   4.555   2.661  0.00  0.00    -0.188 NA
ATOM     30  H   UNL     1      11.369   3.934   2.650  0.00  0.00    +0.148 HD
BRANCH   7   1
ATOM      1  S   UNL     1      13.398   4.329   1.485  0.00  0.00    +0.058 S 
ATOM      2  O   UNL     1      14.126   3.108   1.775  0.00  0.00    -0.153 OA
ATOM      3  O   UNL     1      14.114   5.576   1.295  0.00  0.00    -0.153 OA
BRANCH   1  23
ATOM     23  C   UNL     1      12.438   4.057   0.027  0.00  0.00    +0.105 A 
ATOM     24  C   UNL     1      12.789   3.038  -0.859  0.00  0.00    +0.032 A 
ATOM     25  C   UNL     1      11.331   4.862  -0.241  0.00  0.00    +0.032 A 
ATOM     26  C   UNL     1      12.033   2.825  -2.012  0.00  0.00    +0.047 A 
ATOM     27  C   UNL     1      10.575   4.650  -1.394  0.00  0.00    +0.047 A 
ATOM     28  C   UNL     1      10.926   3.631  -2.279  0.00  0.00    +0.120 A 
BRANCH  28   4
ATOM      4  O   UNL     1      10.188   3.422  -3.404  0.00  0.00    -0.495 OA
ATOM     29  C   UNL     1      10.900   3.314  -4.636  0.00  0.00    +0.277 C 
ENDBRANCH  28   4
ENDBRANCH   1  23
ENDBRANCH   7   1
ENDBRANCH  16   7
ENDBRANCH  10  16
TORSDOF 7
ENDMDL
MODEL 8
REMARK VINA RESULT:      -6.1     23.911     25.986
REMARK  Name = 25389372
REMARK  9 active torsions:
REMARK  status: ('A' for Active; 'I' for Inactive)
REMARK    1  A    between atoms: S_1  and  N_7
REMARK    2  A    between atoms: S_1  and  C_23
REMARK    3  A    between atoms: O_4  and  C_28
REMARK    4  A    between atoms: O_4  and  C_29
REMARK    5  A    between atoms: N_6  and  C_15
REMARK    6  A    between atoms: N_7  and  C_16
REMARK    7  A    between atoms: C_9  and  C_15
REMARK    8  A    between atoms: C_10  and  C_16
REMARK    9  A    between atoms: C_19  and  C_22
REMARK                            x       y       z     vdW  Elec       q    Type
REMARK                         _______ _______ _______ _____ _____    ______ ____
ROOT
ATOM      5  N   UNL     1       9.352   5.263   5.825  0.00  0.00    -0.298 NA
ATOM      8  C   UNL     1      10.924   7.094   6.795  0.00  0.00    -0.003 C 
ATOM      9  C   UNL     1       9.507   7.658   6.549  0.00  0.00    +0.020 C 
ATOM     10  C   UNL     1      10.598   5.345   5.016  0.00  0.00    +0.072 C 
ATOM     11  C   UNL     1      11.483   6.524   5.478  0.00  0.00    +0.024 C 
ATOM     12  C   UNL     1       8.662   6.575   5.842  0.00  0.00    +0.089 C 
ATOM     13  C   UNL     1      10.772   5.914   7.775  0.00  0.00    +0.019 C 
ATOM     14  C   UNL     1       9.733   4.924   7.218  0.00  0.00    +0.085 C 
ENDROOT
BRANCH   9  15
ATOM     15  C   UNL     1       9.508   8.970   5.767  0.00  0.00    +0.089 C 
BRANCH  15   6
ATOM      6  N   UNL     1       8.576   8.865   4.645  0.00  0.00    -0.302 NA
ATOM     17  C   UNL     1       9.294   8.978   3.369  0.00  0.00    +0.084 C 
ATOM     18  C   UNL     1       7.524   9.885   4.753  0.00  0.00    +0.084 C 
ATOM     19  C   UNL     1       7.196   9.832   2.247  0.00  0.00    -0.012 C 
ATOM     20  C   UNL     1       8.341   8.818   2.182  0.00  0.00    +0.018 C 
ATOM     21  C   UNL     1       6.511   9.754   3.615  0.00  0.00    +0.018 C 
ATOM     22  C   UNL     1       6.195   9.601   1.118  0.00  0.00    +0.007 C 
ENDBRANCH  15   6
ENDBRANCH   9  15
BRANCH  10  16
ATOM     16  C   UNL     1      10.316   5.402   3.513  0.00  0.00    +0.124 C 
BRANCH  16   7
ATOM      7  N   UNL     1      10.877   4.203   2.870  0.00  0.00    -0.188 NA
ATOM     30  H   UNL     1      10.242   3.403   2.762  0.00  0.00    +0.148 HD
BRANCH   7   1
ATOM      1  S   UNL     1      12.198   4.343   1.805  0.00  0.00    +0.058 S 
ATOM      2  O   UNL     1      12.975   3.118   1.839  0.00  0.00    -0.153 OA
ATOM      3  O   UNL     1      12.847   5.623   2.019  0.00  0.00    -0.153 OA
BRANCH   1  23
ATOM     23  C   UNL     1      11.388   4.431   0.236  0.00  0.00    +0.105 A 
ATOM     24  C   UNL     1      10.309   5.297   0.056  0.00  0.00    +0.032 A 
ATOM     25  C   UNL     1      11.826   3.633  -0.822  0.00  0.00    +0.032 A 
ATOM     26  C   UNL     1       9.668   5.364  -1.181  0.00  0.00    +0.047 A 
ATOM     27  C   UNL     1      11.184   3.701  -2.058  0.00  0.00    +0.047 A 
ATOM     28  C   UNL     1      10.106   4.567  -2.238  0.00  0.00    +0.120 A 
BRANCH  28   4
ATOM      4  O   UNL     1       9.480   4.633  -3.445  0.00  0.00    -0.495 OA
ATOM     29  C   UNL     1       9.198   3.396  -4.098  0.00  0.00    +0.277 C 
ENDBRANCH  28   4
ENDBRANCH   1  23
ENDBRANCH   7   1
ENDBRANCH  16   7
ENDBRANCH  10  16
TORSDOF 7
ENDMDL
MODEL 9
REMARK VINA RESULT:      -6.0      5.328      9.028
REMARK  Name = 25389372
REMARK  9 active torsions:
REMARK  status: ('A' for Active; 'I' for Inactive)
REMARK    1  A    between atoms: S_1  and  N_7
REMARK    2  A    between atoms: S_1  and  C_23
REMARK    3  A    between atoms: O_4  and  C_28
REMARK    4  A    between atoms: O_4  and  C_29
REMARK    5  A    between atoms: N_6  and  C_15
REMARK    6  A    between atoms: N_7  and  C_16
REMARK    7  A    between atoms: C_9  and  C_15
REMARK    8  A    between atoms: C_10  and  C_16
REMARK    9  A    between atoms: C_19  and  C_22
REMARK                            x       y       z     vdW  Elec       q    Type
REMARK                         _______ _______ _______ _____ _____    ______ ____
ROOT
ATOM      5  N   UNL     1     -10.954  -8.519  17.004  0.00  0.00    -0.298 NA
ATOM      8  C   UNL     1      -9.733 -10.814  16.904  0.00  0.00    -0.003 C 
ATOM      9  C   UNL     1      -8.748  -9.680  17.268  0.00  0.00    +0.020 C 
ATOM     10  C   UNL     1     -11.243  -9.194  15.710  0.00  0.00    +0.072 C 
ATOM     11  C   UNL     1     -10.413 -10.489  15.561  0.00  0.00    +0.024 C 
ATOM     12  C   UNL     1      -9.493  -8.330  17.170  0.00  0.00    +0.089 C 
ATOM     13  C   UNL     1     -10.833 -10.814  17.985  0.00  0.00    +0.019 C 
ATOM     14  C   UNL     1     -11.433  -9.401  18.097  0.00  0.00    +0.085 C 
ENDROOT
BRANCH   9  15
ATOM     15  C   UNL     1      -7.481  -9.686  16.414  0.00  0.00    +0.089 C 
BRANCH  15   6
ATOM      6  N   UNL     1      -6.339 -10.063  17.246  0.00  0.00    -0.302 NA
ATOM     17  C   UNL     1      -5.432 -10.948  16.504  0.00  0.00    +0.084 C 
ATOM     18  C   UNL     1      -6.797 -10.697  18.490  0.00  0.00    +0.084 C 
ATOM     19  C   UNL     1      -4.608 -11.949  18.674  0.00  0.00    -0.012 C 
ATOM     20  C   UNL     1      -4.204 -11.310  17.342  0.00  0.00    +0.018 C 
ATOM     21  C   UNL     1      -5.616 -11.049  19.397  0.00  0.00    +0.018 C 
ATOM     22  C   UNL     1      -3.385 -12.215  19.548  0.00  0.00    +0.007 C 
ENDBRANCH  15   6
ENDBRANCH   9  15
BRANCH  10  16
ATOM     16  C   UNL     1     -11.060  -8.261  14.511  0.00  0.00    +0.124 C 
BRANCH  16   7
ATOM      7  N   UNL     1     -12.331  -7.570  14.238  0.00  0.00    -0.188 NA
ATOM     30  H   UNL     1     -13.097  -8.150  13.874  0.00  0.00    +0.148 HD
BRANCH   7   1
ATOM      1  S   UNL     1     -12.720  -6.135  15.068  0.00  0.00    +0.058 S 
ATOM      2  O   UNL     1     -11.510  -5.559  15.623  0.00  0.00    -0.153 OA
ATOM      3  O   UNL     1     -13.870  -6.375  15.918  0.00  0.00    -0.153 OA
BRANCH   1  23
ATOM     23  C   UNL     1     -13.263  -5.092  13.748  0.00  0.00    +0.105 A 
ATOM     24  C   UNL     1     -14.616  -5.042  13.410  0.00  0.00    +0.032 A 
ATOM     25  C   UNL     1     -12.339  -4.320  13.043  0.00  0.00    +0.032 A 
ATOM     26  C   UNL     1     -15.044  -4.220  12.367  0.00  0.00    +0.047 A 
ATOM     27  C   UNL     1     -12.768  -3.499  11.999  0.00  0.00    +0.047 A 
ATOM     28  C   UNL     1     -14.120  -3.449  11.663  0.00  0.00    +0.120 A 
BRANCH  28   4
ATOM      4  O   UNL     1     -14.539  -2.648  10.645  0.00  0.00    -0.495 OA
ATOM     29  C   UNL     1     -15.695  -3.068   9.921  0.00  0.00    +0.277 C 
ENDBRANCH  28   4
ENDBRANCH   1  23
ENDBRANCH   7   1
ENDBRANCH  16   7
ENDBRANCH  10  16
TORSDOF 7
ENDMDL
MODEL 10
REMARK VINA RESULT:      -5.9     24.054     26.487
REMARK  Name = 25389372
REMARK  9 active torsions:
REMARK  status: ('A' for Active; 'I' for Inactive)
REMARK    1  A    between atoms: S_1  and  N_7
REMARK    2  A    between atoms: S_1  and  C_23
REMARK    3  A    between atoms: O_4  and  C_28
REMARK    4  A    between atoms: O_4  and  C_29
REMARK    5  A    between atoms: N_6  and  C_15
REMARK    6  A    between atoms: N_7  and  C_16
REMARK    7  A    between atoms: C_9  and  C_15
REMARK    8  A    between atoms: C_10  and  C_16
REMARK    9  A    between atoms: C_19  and  C_22
REMARK                            x       y       z     vdW  Elec       q    Type
REMARK                         _______ _______ _______ _____ _____    ______ ____
ROOT
ATOM      5  N   UNL     1      10.278   6.869   7.663  0.00  0.00    -0.298 NA
ATOM      8  C   UNL     1       9.626   5.179   5.796  0.00  0.00    -0.003 C 
ATOM      9  C   UNL     1      10.949   5.901   5.451  0.00  0.00    +0.020 C 
ATOM     10  C   UNL     1       8.878   7.114   7.220  0.00  0.00    +0.072 C 
ATOM     11  C   UNL     1       8.516   6.224   6.010  0.00  0.00    +0.024 C 
ATOM     12  C   UNL     1      11.209   6.989   6.516  0.00  0.00    +0.089 C 
ATOM     13  C   UNL     1       9.846   4.463   7.143  0.00  0.00    +0.019 C 
ATOM     14  C   UNL     1      10.357   5.480   8.179  0.00  0.00    +0.085 C 
ENDROOT
BRANCH   9  15
ATOM     15  C   UNL     1      10.968   6.481   4.038  0.00  0.00    +0.089 C 
BRANCH  15   6
ATOM      6  N   UNL     1      11.476   5.473   3.108  0.00  0.00    -0.302 NA
ATOM     17  C   UNL     1      12.738   5.920   2.505  0.00  0.00    +0.084 C 
ATOM     18  C   UNL     1      10.473   5.173   2.077  0.00  0.00    +0.084 C 
ATOM     19  C   UNL     1      12.303   4.467   0.482  0.00  0.00    -0.012 C 
ATOM     20  C   UNL     1      13.311   4.854   1.569  0.00  0.00    +0.018 C 
ATOM     21  C   UNL     1      10.969   4.081   1.127  0.00  0.00    +0.018 C 
ATOM     22  C   UNL     1      12.842   3.333  -0.386  0.00  0.00    +0.007 C 
ENDBRANCH  15   6
ENDBRANCH   9  15
BRANCH  10  16
ATOM     16  C   UNL     1       8.605   8.593   6.940  0.00  0.00    +0.124 C 
BRANCH  16   7
ATOM      7  N   UNL     1       7.969   8.726   5.619  0.00  0.00    -0.188 NA
ATOM     30  H   UNL     1       7.036   8.308   5.518  0.00  0.00    +0.148 HD
BRANCH   7   1
ATOM      1  S   UNL     1       8.405  10.006   4.585  0.00  0.00    +0.058 S 
ATOM      2  O   UNL     1       9.664   9.692   3.936  0.00  0.00    -0.153 OA
ATOM      3  O   UNL     1       8.242  11.263   5.291  0.00  0.00    -0.153 OA
BRANCH   1  23
ATOM     23  C   UNL     1       7.129   9.932   3.363  0.00  0.00    +0.105 A 
ATOM     24  C   UNL     1       7.437   9.555   2.056  0.00  0.00    +0.032 A 
ATOM     25  C   UNL     1       5.815  10.254   3.705  0.00  0.00    +0.032 A 
ATOM     26  C   UNL     1       6.431   9.499   1.091  0.00  0.00    +0.047 A 
ATOM     27  C   UNL     1       4.810  10.198   2.740  0.00  0.00    +0.047 A 
ATOM     28  C   UNL     1       5.118   9.820   1.433  0.00  0.00    +0.120 A 
BRANCH  28   4
ATOM      4  O   UNL     1       4.137   9.766   0.491  0.00  0.00    -0.495 OA
ATOM     29  C   UNL     1       4.134  10.789  -0.504  0.00  0.00    +0.277 C 
ENDBRANCH  28   4
ENDBRANCH   1  23
ENDBRANCH   7   1
ENDBRANCH  16   7
ENDBRANCH  10  16
TORSDOF 7
ENDMDL
