MODEL 1
REMARK VINA RESULT:      -8.3      0.000      0.000
REMARK  Name = 51136911
REMARK  5 active torsions:
REMARK  status: ('A' for Active; 'I' for Inactive)
REMARK    1  A    between atoms: N_4  and  C_14
REMARK    2  A    between atoms: C_10  and  C_15
REMARK    3  A    between atoms: C_14  and  C_16
REMARK    4  A    between atoms: C_19  and  C_23
REMARK    5  A    between atoms: C_28  and  C_29
REMARK                            x       y       z     vdW  Elec       q    Type
REMARK                         _______ _______ _______ _____ _____    ______ ____
ROOT
ATOM      1  O   UNL     1      14.793   8.832  19.936  0.00  0.00    -0.336 OA
ATOM      5  N   UNL     1      15.243   6.639  19.837  0.00  0.00    -0.190 NA
ATOM      6  N   UNL     1      16.166   8.703  20.184  0.00  0.00    -0.056 NA
ATOM     15  C   UNL     1      14.328   7.570  19.742  0.00  0.00    +0.245 A 
ATOM     19  C   UNL     1      16.355   7.383  20.109  0.00  0.00    +0.204 A 
ENDROOT
BRANCH  19  23
ATOM      7  N   UNL     1      19.208   5.032  19.714  0.00  0.00    -0.254 NA
ATOM     23  C   UNL     1      17.640   6.775  20.301  0.00  0.00    +0.041 A 
ATOM     25  C   UNL     1      18.549   7.295  21.217  0.00  0.00    +0.015 A 
ATOM     26  C   UNL     1      18.015   5.652  19.581  0.00  0.00    +0.123 A 
ATOM     27  C   UNL     1      19.787   6.685  21.381  0.00  0.00    +0.029 A 
ATOM     28  C   UNL     1      20.066   5.565  20.613  0.00  0.00    +0.074 A 
BRANCH  28  29
ATOM      8  N   UNL     1      22.581   2.887  21.239  0.00  0.00    -0.243 NA
ATOM      9  N   UNL     1      23.732   4.895  20.566  0.00  0.00    -0.243 NA
ATOM     29  C   UNL     1      21.331   4.880  20.729  0.00  0.00    +0.037 A 
ATOM     30  C   UNL     1      21.417   3.559  21.117  0.00  0.00    +0.124 A 
ATOM     31  C   UNL     1      22.533   5.504  20.465  0.00  0.00    +0.124 A 
ATOM     32  C   UNL     1      23.683   3.606  20.953  0.00  0.00    +0.221 A 
ENDBRANCH  28  29
ENDBRANCH  19  23
BRANCH  15  10
ATOM      4  N   UNL     1      12.069   8.601  19.911  0.00  0.00    -0.287 NA
ATOM     10  C   UNL     1      12.847   7.435  19.449  0.00  0.00    +0.146 C 
ATOM     11  C   UNL     1      12.548   7.338  17.942  0.00  0.00    +0.030 C 
ATOM     12  C   UNL     1      11.545   8.450  17.663  0.00  0.00    +0.017 C 
ATOM     13  C   UNL     1      10.916   8.711  19.016  0.00  0.00    +0.085 C 
BRANCH   4  14
ATOM     14  C   UNL     1      11.670   8.507  21.311  0.00  0.00    +0.120 C 
BRANCH  14  16
ATOM      2  O   UNL     1      10.542  11.534  25.061  0.00  0.00    -0.453 OA
ATOM      3  O   UNL     1      11.130  13.504  23.804  0.00  0.00    -0.453 OA
ATOM     16  C   UNL     1      11.535   9.864  21.947  0.00  0.00    -0.030 A 
ATOM     17  C   UNL     1      11.074   9.971  23.262  0.00  0.00    +0.054 A 
ATOM     18  C   UNL     1      11.878  11.014  21.214  0.00  0.00    +0.009 A 
ATOM     20  C   UNL     1      10.971  11.236  23.804  0.00  0.00    +0.167 A 
ATOM     21  C   UNL     1      11.764  12.283  21.786  0.00  0.00    +0.050 A 
ATOM     22  C   UNL     1      11.306  12.361  23.086  0.00  0.00    +0.166 A 
ATOM     24  C   UNL     1      10.647  12.972  25.054  0.00  0.00    +0.466 C 
ENDBRANCH  14  16
ENDBRANCH   4  14
ENDBRANCH  15  10
TORSDOF 5
ENDMDL
MODEL 2
REMARK VINA RESULT:      -8.2      2.884      4.699
REMARK  Name = 51136911
REMARK  5 active torsions:
REMARK  status: ('A' for Active; 'I' for Inactive)
REMARK    1  A    between atoms: N_4  and  C_14
REMARK    2  A    between atoms: C_10  and  C_15
REMARK    3  A    between atoms: C_14  and  C_16
REMARK    4  A    between atoms: C_19  and  C_23
REMARK    5  A    between atoms: C_28  and  C_29
REMARK                            x       y       z     vdW  Elec       q    Type
REMARK                         _______ _______ _______ _____ _____    ______ ____
ROOT
ATOM      1  O   UNL     1      14.270   6.920  19.473  0.00  0.00    -0.336 OA
ATOM      5  N   UNL     1      15.558   7.514  21.207  0.00  0.00    -0.190 NA
ATOM      6  N   UNL     1      15.528   6.348  19.239  0.00  0.00    -0.056 NA
ATOM     15  C   UNL     1      14.375   7.588  20.651  0.00  0.00    +0.245 A 
ATOM     19  C   UNL     1      16.231   6.743  20.304  0.00  0.00    +0.204 A 
ENDROOT
BRANCH  19  23
ATOM      7  N   UNL     1      19.512   5.064  19.815  0.00  0.00    -0.254 NA
ATOM     23  C   UNL     1      17.607   6.386  20.496  0.00  0.00    +0.041 A 
ATOM     25  C   UNL     1      18.367   6.978  21.500  0.00  0.00    +0.015 A 
ATOM     26  C   UNL     1      18.221   5.444  19.688  0.00  0.00    +0.123 A 
ATOM     27  C   UNL     1      19.699   6.613  21.662  0.00  0.00    +0.029 A 
ATOM     28  C   UNL     1      20.220   5.660  20.801  0.00  0.00    +0.074 A 
BRANCH  28  29
ATOM      8  N   UNL     1      23.942   5.672  20.609  0.00  0.00    -0.243 NA
ATOM      9  N   UNL     1      23.215   3.560  21.514  0.00  0.00    -0.243 NA
ATOM     29  C   UNL     1      21.594   5.232  20.910  0.00  0.00    +0.037 A 
ATOM     30  C   UNL     1      22.645   6.038  20.524  0.00  0.00    +0.124 A 
ATOM     31  C   UNL     1      21.943   3.992  21.402  0.00  0.00    +0.124 A 
ATOM     32  C   UNL     1      24.151   4.438  21.105  0.00  0.00    +0.221 A 
ENDBRANCH  28  29
ENDBRANCH  19  23
BRANCH  15  10
ATOM      4  N   UNL     1      12.320   8.845  20.026  0.00  0.00    -0.287 NA
ATOM     10  C   UNL     1      13.129   8.302  21.135  0.00  0.00    +0.146 C 
ATOM     11  C   UNL     1      12.171   7.369  21.899  0.00  0.00    +0.030 C 
ATOM     12  C   UNL     1      10.833   7.502  21.184  0.00  0.00    +0.017 C 
ATOM     13  C   UNL     1      10.931   8.845  20.488  0.00  0.00    +0.085 C 
BRANCH   4  14
ATOM     14  C   UNL     1      12.754  10.167  19.592  0.00  0.00    +0.120 C 
BRANCH  14  16
ATOM      2  O   UNL     1      15.865  11.653  16.042  0.00  0.00    -0.453 OA
ATOM      3  O   UNL     1      14.890  10.177  14.405  0.00  0.00    -0.453 OA
ATOM     16  C   UNL     1      13.300  10.145  18.190  0.00  0.00    -0.030 A 
ATOM     17  C   UNL     1      14.370  10.977  17.850  0.00  0.00    +0.054 A 
ATOM     18  C   UNL     1      12.732   9.284  17.235  0.00  0.00    +0.009 A 
ATOM     20  C   UNL     1      14.839  10.920  16.554  0.00  0.00    +0.167 A 
ATOM     21  C   UNL     1      13.226   9.246  15.929  0.00  0.00    +0.050 A 
ATOM     22  C   UNL     1      14.282  10.078  15.618  0.00  0.00    +0.166 A 
ATOM     24  C   UNL     1      15.893  11.177  14.681  0.00  0.00    +0.466 C 
ENDBRANCH  14  16
ENDBRANCH   4  14
ENDBRANCH  15  10
TORSDOF 5
ENDMDL
MODEL 3
REMARK VINA RESULT:      -7.8     27.143     31.478
REMARK  Name = 51136911
REMARK  5 active torsions:
REMARK  status: ('A' for Active; 'I' for Inactive)
REMARK    1  A    between atoms: N_4  and  C_14
REMARK    2  A    between atoms: C_10  and  C_15
REMARK    3  A    between atoms: C_14  and  C_16
REMARK    4  A    between atoms: C_19  and  C_23
REMARK    5  A    between atoms: C_28  and  C_29
REMARK                            x       y       z     vdW  Elec       q    Type
REMARK                         _______ _______ _______ _____ _____    ______ ____
ROOT
ATOM      1  O   UNL     1     -16.562   3.736  23.616  0.00  0.00    -0.336 OA
ATOM      5  N   UNL     1     -15.978   5.890  23.814  0.00  0.00    -0.190 NA
ATOM      6  N   UNL     1     -15.613   3.977  22.613  0.00  0.00    -0.056 NA
ATOM     15  C   UNL     1     -16.718   4.914  24.275  0.00  0.00    +0.245 A 
ATOM     19  C   UNL     1     -15.318   5.267  22.794  0.00  0.00    +0.204 A 
ENDROOT
BRANCH  19  23
ATOM      7  N   UNL     1     -13.912   7.729  20.388  0.00  0.00    -0.254 NA
ATOM     23  C   UNL     1     -14.368   5.963  21.974  0.00  0.00    +0.041 A 
ATOM     25  C   UNL     1     -13.029   5.587  21.952  0.00  0.00    +0.015 A 
ATOM     26  C   UNL     1     -14.755   7.031  21.181  0.00  0.00    +0.123 A 
ATOM     27  C   UNL     1     -12.131   6.282  21.149  0.00  0.00    +0.029 A 
ATOM     28  C   UNL     1     -12.619   7.335  20.392  0.00  0.00    +0.074 A 
BRANCH  28  29
ATOM      8  N   UNL     1     -10.455   8.292  17.512  0.00  0.00    -0.243 NA
ATOM      9  N   UNL     1     -10.507  10.115  19.087  0.00  0.00    -0.243 NA
ATOM     29  C   UNL     1     -11.745   8.101  19.535  0.00  0.00    +0.037 A 
ATOM     30  C   UNL     1     -11.274   7.606  18.337  0.00  0.00    +0.124 A 
ATOM     31  C   UNL     1     -11.324   9.374  19.862  0.00  0.00    +0.124 A 
ATOM     32  C   UNL     1     -10.116   9.522  17.943  0.00  0.00    +0.221 A 
ENDBRANCH  28  29
ENDBRANCH  19  23
BRANCH  15  10
ATOM      4  N   UNL     1     -17.116   4.407  26.679  0.00  0.00    -0.287 NA
ATOM     10  C   UNL     1     -17.704   4.918  25.425  0.00  0.00    +0.146 C 
ATOM     11  C   UNL     1     -18.202   6.333  25.775  0.00  0.00    +0.030 C 
ATOM     12  C   UNL     1     -17.906   6.503  27.259  0.00  0.00    +0.017 C 
ATOM     13  C   UNL     1     -17.821   5.079  27.771  0.00  0.00    +0.085 C 
BRANCH   4  14
ATOM     14  C   UNL     1     -17.183   2.955  26.794  0.00  0.00    +0.120 C 
BRANCH  14  16
ATOM      2  O   UNL     1     -16.074  -0.422  30.238  0.00  0.00    -0.453 OA
ATOM      3  O   UNL     1     -14.347   0.954  31.202  0.00  0.00    -0.453 OA
ATOM     16  C   UNL     1     -16.403   2.451  27.979  0.00  0.00    -0.030 A 
ATOM     17  C   UNL     1     -16.685   1.189  28.508  0.00  0.00    +0.054 A 
ATOM     18  C   UNL     1     -15.395   3.254  28.541  0.00  0.00    +0.009 A 
ATOM     20  C   UNL     1     -15.941   0.769  29.592  0.00  0.00    +0.167 A 
ATOM     21  C   UNL     1     -14.657   2.804  29.639  0.00  0.00    +0.050 A 
ATOM     22  C   UNL     1     -14.955   1.555  30.143  0.00  0.00    +0.166 A 
ATOM     24  C   UNL     1     -15.060  -0.298  31.256  0.00  0.00    +0.466 C 
ENDBRANCH  14  16
ENDBRANCH   4  14
ENDBRANCH  15  10
TORSDOF 5
ENDMDL
MODEL 4
REMARK VINA RESULT:      -7.8      2.280      4.853
REMARK  Name = 51136911
REMARK  5 active torsions:
REMARK  status: ('A' for Active; 'I' for Inactive)
REMARK    1  A    between atoms: N_4  and  C_14
REMARK    2  A    between atoms: C_10  and  C_15
REMARK    3  A    between atoms: C_14  and  C_16
REMARK    4  A    between atoms: C_19  and  C_23
REMARK    5  A    between atoms: C_28  and  C_29
REMARK                            x       y       z     vdW  Elec       q    Type
REMARK                         _______ _______ _______ _____ _____    ______ ____
ROOT
ATOM      1  O   UNL     1      14.427  12.081  21.169  0.00  0.00    -0.336 OA
ATOM      5  N   UNL     1      14.825  10.564  22.768  0.00  0.00    -0.190 NA
ATOM      6  N   UNL     1      15.457  11.262  20.684  0.00  0.00    -0.056 NA
ATOM     15  C   UNL     1      14.115  11.600  22.401  0.00  0.00    +0.245 A 
ATOM     19  C   UNL     1      15.634  10.394  21.682  0.00  0.00    +0.204 A 
ENDROOT
BRANCH  19  23
ATOM      7  N   UNL     1      18.901   8.636  21.940  0.00  0.00    -0.254 NA
ATOM     23  C   UNL     1      16.611   9.344  21.628  0.00  0.00    +0.041 A 
ATOM     25  C   UNL     1      16.259   8.058  21.231  0.00  0.00    +0.015 A 
ATOM     26  C   UNL     1      17.933   9.579  21.969  0.00  0.00    +0.123 A 
ATOM     27  C   UNL     1      17.228   7.061  21.189  0.00  0.00    +0.029 A 
ATOM     28  C   UNL     1      18.523   7.398  21.549  0.00  0.00    +0.074 A 
BRANCH  28  29
ATOM      8  N   UNL     1      20.794   4.685  20.378  0.00  0.00    -0.243 NA
ATOM      9  N   UNL     1      21.409   5.301  22.625  0.00  0.00    -0.243 NA
ATOM     29  C   UNL     1      19.579   6.415  21.530  0.00  0.00    +0.037 A 
ATOM     30  C   UNL     1      19.817   5.615  20.432  0.00  0.00    +0.124 A 
ATOM     31  C   UNL     1      20.415   6.212  22.609  0.00  0.00    +0.124 A 
ATOM     32  C   UNL     1      21.541   4.583  21.494  0.00  0.00    +0.221 A 
ENDBRANCH  28  29
ENDBRANCH  19  23
BRANCH  15  10
ATOM      4  N   UNL     1      11.970  11.405  23.647  0.00  0.00    -0.287 NA
ATOM     10  C   UNL     1      13.012  12.322  23.146  0.00  0.00    +0.146 C 
ATOM     11  C   UNL     1      13.525  13.053  24.401  0.00  0.00    +0.030 C 
ATOM     12  C   UNL     1      12.670  12.526  25.546  0.00  0.00    +0.017 C 
ATOM     13  C   UNL     1      11.419  12.022  24.854  0.00  0.00    +0.085 C 
BRANCH   4  14
ATOM     14  C   UNL     1      10.937  11.116  22.659  0.00  0.00    +0.120 C 
BRANCH  14  16
ATOM      2  O   UNL     1      12.550   8.530  18.759  0.00  0.00    -0.453 OA
ATOM      3  O   UNL     1      12.026   6.418  19.792  0.00  0.00    -0.453 OA
ATOM     16  C   UNL     1      11.214   9.835  21.917  0.00  0.00    -0.030 A 
ATOM     17  C   UNL     1      11.775   9.881  20.639  0.00  0.00    +0.054 A 
ATOM     18  C   UNL     1      10.909   8.602  22.521  0.00  0.00    +0.009 A 
ATOM     20  C   UNL     1      12.014   8.682  20.001  0.00  0.00    +0.167 A 
ATOM     21  C   UNL     1      11.160   7.402  21.852  0.00  0.00    +0.050 A 
ATOM     22  C   UNL     1      11.714   7.475  20.590  0.00  0.00    +0.166 A 
ATOM     24  C   UNL     1      12.556   7.094  18.634  0.00  0.00    +0.466 C 
ENDBRANCH  14  16
ENDBRANCH   4  14
ENDBRANCH  15  10
TORSDOF 5
ENDMDL
MODEL 5
REMARK VINA RESULT:      -7.7     29.200     32.794
REMARK  Name = 51136911
REMARK  5 active torsions:
REMARK  status: ('A' for Active; 'I' for Inactive)
REMARK    1  A    between atoms: N_4  and  C_14
REMARK    2  A    between atoms: C_10  and  C_15
REMARK    3  A    between atoms: C_14  and  C_16
REMARK    4  A    between atoms: C_19  and  C_23
REMARK    5  A    between atoms: C_28  and  C_29
REMARK                            x       y       z     vdW  Elec       q    Type
REMARK                         _______ _______ _______ _____ _____    ______ ____
ROOT
ATOM      1  O   UNL     1     -17.052   1.665  23.633  0.00  0.00    -0.336 OA
ATOM      5  N   UNL     1     -17.683   3.224  25.113  0.00  0.00    -0.190 NA
ATOM      6  N   UNL     1     -16.455   1.311  24.850  0.00  0.00    -0.056 NA
ATOM     15  C   UNL     1     -17.756   2.802  23.876  0.00  0.00    +0.245 A 
ATOM     19  C   UNL     1     -16.874   2.277  25.672  0.00  0.00    +0.204 A 
ENDROOT
BRANCH  19  23
ATOM      7  N   UNL     1     -16.214   1.171  29.161  0.00  0.00    -0.254 NA
ATOM     23  C   UNL     1     -16.502   2.326  27.057  0.00  0.00    +0.041 A 
ATOM     25  C   UNL     1     -16.081   3.516  27.644  0.00  0.00    +0.015 A 
ATOM     26  C   UNL     1     -16.550   1.193  27.852  0.00  0.00    +0.123 A 
ATOM     27  C   UNL     1     -15.726   3.533  28.988  0.00  0.00    +0.029 A 
ATOM     28  C   UNL     1     -15.810   2.345  29.697  0.00  0.00    +0.074 A 
BRANCH  28  29
ATOM      8  N   UNL     1     -15.248   3.368  33.236  0.00  0.00    -0.243 NA
ATOM      9  N   UNL     1     -14.641   1.049  32.990  0.00  0.00    -0.243 NA
ATOM     29  C   UNL     1     -15.457   2.288  31.095  0.00  0.00    +0.037 A 
ATOM     30  C   UNL     1     -15.570   3.383  31.925  0.00  0.00    +0.124 A 
ATOM     31  C   UNL     1     -14.982   1.136  31.688  0.00  0.00    +0.124 A 
ATOM     32  C   UNL     1     -14.796   2.185  33.695  0.00  0.00    +0.221 A 
ENDBRANCH  28  29
ENDBRANCH  19  23
BRANCH  15  10
ATOM      4  N   UNL     1     -17.607   3.998  21.699  0.00  0.00    -0.287 NA
ATOM     10  C   UNL     1     -18.506   3.395  22.702  0.00  0.00    +0.146 C 
ATOM     11  C   UNL     1     -19.312   2.340  21.920  0.00  0.00    +0.030 C 
ATOM     12  C   UNL     1     -18.840   2.469  20.477  0.00  0.00    +0.017 C 
ATOM     13  C   UNL     1     -18.284   3.877  20.408  0.00  0.00    +0.085 C 
BRANCH   4  14
ATOM     14  C   UNL     1     -17.251   5.379  22.005  0.00  0.00    +0.120 C 
BRANCH  14  16
ATOM      2  O   UNL     1     -13.412   7.753  19.974  0.00  0.00    -0.453 OA
ATOM      3  O   UNL     1     -11.802   6.440  21.195  0.00  0.00    -0.453 OA
ATOM     16  C   UNL     1     -15.781   5.635  21.810  0.00  0.00    -0.030 A 
ATOM     17  C   UNL     1     -15.362   6.633  20.927  0.00  0.00    +0.054 A 
ATOM     18  C   UNL     1     -14.841   4.869  22.523  0.00  0.00    +0.009 A 
ATOM     20  C   UNL     1     -14.004   6.833  20.785  0.00  0.00    +0.167 A 
ATOM     21  C   UNL     1     -13.472   5.092  22.360  0.00  0.00    +0.050 A 
ATOM     22  C   UNL     1     -13.084   6.083  21.482  0.00  0.00    +0.166 A 
ATOM     24  C   UNL     1     -12.018   7.499  20.240  0.00  0.00    +0.466 C 
ENDBRANCH  14  16
ENDBRANCH   4  14
ENDBRANCH  15  10
TORSDOF 5
ENDMDL
MODEL 6
REMARK VINA RESULT:      -7.6     26.538     30.571
REMARK  Name = 51136911
REMARK  5 active torsions:
REMARK  status: ('A' for Active; 'I' for Inactive)
REMARK    1  A    between atoms: N_4  and  C_14
REMARK    2  A    between atoms: C_10  and  C_15
REMARK    3  A    between atoms: C_14  and  C_16
REMARK    4  A    between atoms: C_19  and  C_23
REMARK    5  A    between atoms: C_28  and  C_29
REMARK                            x       y       z     vdW  Elec       q    Type
REMARK                         _______ _______ _______ _____ _____    ______ ____
ROOT
ATOM      1  O   UNL     1      -4.927 -12.079  16.451  0.00  0.00    -0.336 OA
ATOM      5  N   UNL     1      -5.319 -10.166  15.353  0.00  0.00    -0.190 NA
ATOM      6  N   UNL     1      -6.251 -11.725  16.744  0.00  0.00    -0.056 NA
ATOM     15  C   UNL     1      -4.453 -11.108  15.627  0.00  0.00    +0.245 A 
ATOM     19  C   UNL     1      -6.407 -10.588  16.061  0.00  0.00    +0.204 A 
ENDROOT
BRANCH  19  23
ATOM      7  N   UNL     1      -9.623  -9.137  14.886  0.00  0.00    -0.254 NA
ATOM     23  C   UNL     1      -7.636  -9.847  16.065  0.00  0.00    +0.041 A 
ATOM     25  C   UNL     1      -8.043  -9.141  17.192  0.00  0.00    +0.015 A 
ATOM     26  C   UNL     1      -8.454  -9.813  14.948  0.00  0.00    +0.123 A 
ATOM     27  C   UNL     1      -9.240  -8.434  17.167  0.00  0.00    +0.029 A 
ATOM     28  C   UNL     1      -9.986  -8.463  16.000  0.00  0.00    +0.074 A 
BRANCH  28  29
ATOM      8  N   UNL     1     -13.622  -7.676  16.232  0.00  0.00    -0.243 NA
ATOM      9  N   UNL     1     -12.475  -5.784  15.279  0.00  0.00    -0.243 NA
ATOM     29  C   UNL     1     -11.239  -7.752  15.901  0.00  0.00    +0.037 A 
ATOM     30  C   UNL     1     -12.432  -8.309  16.311  0.00  0.00    +0.124 A 
ATOM     31  C   UNL     1     -11.322  -6.474  15.388  0.00  0.00    +0.124 A 
ATOM     32  C   UNL     1     -13.570  -6.434  15.713  0.00  0.00    +0.221 A 
ENDBRANCH  28  29
ENDBRANCH  19  23
BRANCH  15  10
ATOM      4  N   UNL     1      -2.748 -10.521  13.911  0.00  0.00    -0.287 NA
ATOM     10  C   UNL     1      -3.021 -11.263  15.157  0.00  0.00    +0.146 C 
ATOM     11  C   UNL     1      -2.001 -10.712  16.172  0.00  0.00    +0.030 C 
ATOM     12  C   UNL     1      -1.161  -9.713  15.388  0.00  0.00    +0.017 C 
ATOM     13  C   UNL     1      -1.332 -10.154  13.948  0.00  0.00    +0.085 C 
BRANCH   4  14
ATOM     14  C   UNL     1      -3.089 -11.272  12.709  0.00  0.00    +0.120 C 
BRANCH  14  16
ATOM      2  O   UNL     1      -7.239  -9.337  10.831  0.00  0.00    -0.453 OA
ATOM      3  O   UNL     1      -6.048  -8.168   9.093  0.00  0.00    -0.453 OA
ATOM     16  C   UNL     1      -3.851 -10.432  11.720  0.00  0.00    -0.030 A 
ATOM     17  C   UNL     1      -5.241 -10.333  11.819  0.00  0.00    +0.054 A 
ATOM     18  C   UNL     1      -3.156  -9.750  10.705  0.00  0.00    +0.009 A 
ATOM     20  C   UNL     1      -5.896  -9.549  10.892  0.00  0.00    +0.167 A 
ATOM     21  C   UNL     1      -3.843  -8.962   9.779  0.00  0.00    +0.050 A 
ATOM     22  C   UNL     1      -5.216  -8.882   9.898  0.00  0.00    +0.166 A 
ATOM     24  C   UNL     1      -7.328  -8.460   9.689  0.00  0.00    +0.466 C 
ENDBRANCH  14  16
ENDBRANCH   4  14
ENDBRANCH  15  10
TORSDOF 5
ENDMDL
MODEL 7
REMARK VINA RESULT:      -7.6      2.255      4.628
REMARK  Name = 51136911
REMARK  5 active torsions:
REMARK  status: ('A' for Active; 'I' for Inactive)
REMARK    1  A    between atoms: N_4  and  C_14
REMARK    2  A    between atoms: C_10  and  C_15
REMARK    3  A    between atoms: C_14  and  C_16
REMARK    4  A    between atoms: C_19  and  C_23
REMARK    5  A    between atoms: C_28  and  C_29
REMARK                            x       y       z     vdW  Elec       q    Type
REMARK                         _______ _______ _______ _____ _____    ______ ____
ROOT
ATOM      1  O   UNL     1      15.319   9.715  21.435  0.00  0.00    -0.336 OA
ATOM      5  N   UNL     1      15.558   7.832  20.244  0.00  0.00    -0.190 NA
ATOM      6  N   UNL     1      16.624   9.264  21.674  0.00  0.00    -0.056 NA
ATOM     15  C   UNL     1      14.762   8.814  20.583  0.00  0.00    +0.245 A 
ATOM     19  C   UNL     1      16.689   8.152  20.938  0.00  0.00    +0.204 A 
ENDROOT
BRANCH  19  23
ATOM      7  N   UNL     1      20.120   6.900  21.633  0.00  0.00    -0.254 NA
ATOM     23  C   UNL     1      17.867   7.336  20.875  0.00  0.00    +0.041 A 
ATOM     25  C   UNL     1      17.926   6.227  20.037  0.00  0.00    +0.015 A 
ATOM     26  C   UNL     1      18.981   7.626  21.645  0.00  0.00    +0.123 A 
ATOM     27  C   UNL     1      19.082   5.454  19.997  0.00  0.00    +0.029 A 
ATOM     28  C   UNL     1      20.142   5.830  20.807  0.00  0.00    +0.074 A 
BRANCH  28  29
ATOM      8  N   UNL     1      22.537   2.997  21.164  0.00  0.00    -0.243 NA
ATOM      9  N   UNL     1      23.756   4.971  20.514  0.00  0.00    -0.243 NA
ATOM     29  C   UNL     1      21.372   5.075  20.818  0.00  0.00    +0.037 A 
ATOM     30  C   UNL     1      21.407   3.734  21.140  0.00  0.00    +0.124 A 
ATOM     31  C   UNL     1      22.589   5.646  20.511  0.00  0.00    +0.124 A 
ATOM     32  C   UNL     1      23.659   3.670  20.845  0.00  0.00    +0.221 A 
ENDBRANCH  28  29
ENDBRANCH  19  23
BRANCH  15  10
ATOM      4  N   UNL     1      12.524   7.848  20.083  0.00  0.00    -0.287 NA
ATOM     10  C   UNL     1      13.331   9.081  20.162  0.00  0.00    +0.146 C 
ATOM     11  C   UNL     1      12.577   9.979  21.161  0.00  0.00    +0.030 C 
ATOM     12  C   UNL     1      11.329   9.191  21.539  0.00  0.00    +0.017 C 
ATOM     13  C   UNL     1      11.144   8.236  20.377  0.00  0.00    +0.085 C 
BRANCH   4  14
ATOM     14  C   UNL     1      12.640   7.167  18.799  0.00  0.00    +0.120 C 
BRANCH  14  16
ATOM      2  O   UNL     1      14.919  10.271  15.690  0.00  0.00    -0.453 OA
ATOM      3  O   UNL     1      12.874  10.797  14.528  0.00  0.00    -0.453 OA
ATOM     16  C   UNL     1      12.665   8.139  17.649  0.00  0.00    -0.030 A 
ATOM     17  C   UNL     1      13.873   8.725  17.263  0.00  0.00    +0.054 A 
ATOM     18  C   UNL     1      11.472   8.446  16.971  0.00  0.00    +0.009 A 
ATOM     20  C   UNL     1      13.847   9.606  16.202  0.00  0.00    +0.167 A 
ATOM     21  C   UNL     1      11.474   9.342  15.900  0.00  0.00    +0.050 A 
ATOM     22  C   UNL     1      12.679   9.908  15.539  0.00  0.00    +0.166 A 
ATOM     24  C   UNL     1      14.295  11.023  14.629  0.00  0.00    +0.466 C 
ENDBRANCH  14  16
ENDBRANCH   4  14
ENDBRANCH  15  10
TORSDOF 5
ENDMDL
MODEL 8
REMARK VINA RESULT:      -7.3      4.570     12.166
REMARK  Name = 51136911
REMARK  5 active torsions:
REMARK  status: ('A' for Active; 'I' for Inactive)
REMARK    1  A    between atoms: N_4  and  C_14
REMARK    2  A    between atoms: C_10  and  C_15
REMARK    3  A    between atoms: C_14  and  C_16
REMARK    4  A    between atoms: C_19  and  C_23
REMARK    5  A    between atoms: C_28  and  C_29
REMARK                            x       y       z     vdW  Elec       q    Type
REMARK                         _______ _______ _______ _____ _____    ______ ____
ROOT
ATOM      1  O   UNL     1      21.127   4.874  20.451  0.00  0.00    -0.336 OA
ATOM      5  N   UNL     1      20.300   6.888  20.980  0.00  0.00    -0.190 NA
ATOM      6  N   UNL     1      19.787   4.866  20.041  0.00  0.00    -0.056 NA
ATOM     15  C   UNL     1      21.345   6.101  20.993  0.00  0.00    +0.245 A 
ATOM     19  C   UNL     1      19.368   6.086  20.386  0.00  0.00    +0.204 A 
ENDROOT
BRANCH  19  23
ATOM      7  N   UNL     1      15.963   6.326  18.911  0.00  0.00    -0.254 NA
ATOM     23  C   UNL     1      18.026   6.536  20.154  0.00  0.00    +0.041 A 
ATOM     25  C   UNL     1      17.479   7.575  20.901  0.00  0.00    +0.015 A 
ATOM     26  C   UNL     1      17.233   5.951  19.180  0.00  0.00    +0.123 A 
ATOM     27  C   UNL     1      16.175   7.989  20.654  0.00  0.00    +0.029 A 
ATOM     28  C   UNL     1      15.465   7.338  19.657  0.00  0.00    +0.074 A 
BRANCH  28  29
ATOM      8  N   UNL     1      12.542   9.295  18.423  0.00  0.00    -0.243 NA
ATOM      9  N   UNL     1      11.751   7.227  19.375  0.00  0.00    -0.243 NA
ATOM     29  C   UNL     1      14.107   7.714  19.346  0.00  0.00    +0.037 A 
ATOM     30  C   UNL     1      13.800   8.909  18.728  0.00  0.00    +0.124 A 
ATOM     31  C   UNL     1      13.031   6.905  19.649  0.00  0.00    +0.124 A 
ATOM     32  C   UNL     1      11.581   8.418  18.771  0.00  0.00    +0.221 A 
ENDBRANCH  28  29
ENDBRANCH  19  23
BRANCH  15  10
ATOM      4  N   UNL     1      23.594   5.162  21.499  0.00  0.00    -0.287 NA
ATOM     10  C   UNL     1      22.742   6.366  21.518  0.00  0.00    +0.146 C 
ATOM     11  C   UNL     1      23.507   7.400  20.670  0.00  0.00    +0.030 C 
ATOM     12  C   UNL     1      24.803   6.707  20.271  0.00  0.00    +0.017 C 
ATOM     13  C   UNL     1      24.970   5.630  21.324  0.00  0.00    +0.085 C 
BRANCH   4  14
ATOM     14  C   UNL     1      23.443   4.333  22.689  0.00  0.00    +0.120 C 
BRANCH  14  16
ATOM      2  O   UNL     1      26.507   0.704  24.081  0.00  0.00    -0.453 OA
ATOM      3  O   UNL     1      25.936  -0.667  22.183  0.00  0.00    -0.453 OA
ATOM     16  C   UNL     1      24.095   2.987  22.520  0.00  0.00    -0.030 A 
ATOM     17  C   UNL     1      25.021   2.541  23.466  0.00  0.00    +0.054 A 
ATOM     18  C   UNL     1      23.761   2.186  21.413  0.00  0.00    +0.009 A 
ATOM     20  C   UNL     1      25.589   1.299  23.271  0.00  0.00    +0.167 A 
ATOM     21  C   UNL     1      24.351   0.932  21.239  0.00  0.00    +0.050 A 
ATOM     22  C   UNL     1      25.264   0.516  22.187  0.00  0.00    +0.166 A 
ATOM     24  C   UNL     1      26.722  -0.541  23.386  0.00  0.00    +0.466 C 
ENDBRANCH  14  16
ENDBRANCH   4  14
ENDBRANCH  15  10
TORSDOF 5
ENDMDL
MODEL 9
REMARK VINA RESULT:      -7.3     29.762     32.004
REMARK  Name = 51136911
REMARK  5 active torsions:
REMARK  status: ('A' for Active; 'I' for Inactive)
REMARK    1  A    between atoms: N_4  and  C_14
REMARK    2  A    between atoms: C_10  and  C_15
REMARK    3  A    between atoms: C_14  and  C_16
REMARK    4  A    between atoms: C_19  and  C_23
REMARK    5  A    between atoms: C_28  and  C_29
REMARK                            x       y       z     vdW  Elec       q    Type
REMARK                         _______ _______ _______ _____ _____    ______ ____
ROOT
ATOM      1  O   UNL     1     -14.303  -5.357  13.369  0.00  0.00    -0.336 OA
ATOM      5  N   UNL     1     -12.092  -5.024  13.515  0.00  0.00    -0.190 NA
ATOM      6  N   UNL     1     -13.815  -6.349  14.230  0.00  0.00    -0.056 NA
ATOM     15  C   UNL     1     -13.223  -4.621  12.995  0.00  0.00    +0.245 A 
ATOM     19  C   UNL     1     -12.506  -6.087  14.266  0.00  0.00    +0.204 A 
ENDROOT
BRANCH  19  23
ATOM      7  N   UNL     1      -9.971  -8.664  15.136  0.00  0.00    -0.254 NA
ATOM     23  C   UNL     1     -11.584  -6.866  15.041  0.00  0.00    +0.041 A 
ATOM     25  C   UNL     1     -11.393  -6.613  16.395  0.00  0.00    +0.015 A 
ATOM     26  C   UNL     1     -10.855  -7.893  14.464  0.00  0.00    +0.123 A 
ATOM     27  C   UNL     1     -10.492  -7.385  17.120  0.00  0.00    +0.029 A 
ATOM     28  C   UNL     1      -9.812  -8.390  16.450  0.00  0.00    +0.074 A 
BRANCH  28  29
ATOM      8  N   UNL     1      -8.357 -10.807  18.885  0.00  0.00    -0.243 NA
ATOM      9  N   UNL     1      -6.621 -10.072  17.386  0.00  0.00    -0.243 NA
ATOM     29  C   UNL     1      -8.861  -9.229  17.138  0.00  0.00    +0.037 A 
ATOM     30  C   UNL     1      -9.219 -10.012  18.216  0.00  0.00    +0.124 A 
ATOM     31  C   UNL     1      -7.535  -9.300  16.764  0.00  0.00    +0.124 A 
ATOM     32  C   UNL     1      -7.093 -10.788  18.423  0.00  0.00    +0.221 A 
ENDBRANCH  28  29
ENDBRANCH  19  23
BRANCH  15  10
ATOM      4  N   UNL     1     -13.201  -3.806  10.643  0.00  0.00    -0.287 NA
ATOM     10  C   UNL     1     -13.489  -3.467  12.051  0.00  0.00    +0.146 C 
ATOM     11  C   UNL     1     -14.965  -3.027  12.053  0.00  0.00    +0.030 C 
ATOM     12  C   UNL     1     -15.402  -3.093  10.595  0.00  0.00    +0.017 C 
ATOM     13  C   UNL     1     -14.099  -2.988   9.828  0.00  0.00    +0.085 C 
BRANCH   4  14
ATOM     14  C   UNL     1     -11.802  -3.613  10.281  0.00  0.00    +0.120 C 
BRANCH  14  16
ATOM      2  O   UNL     1      -8.434  -6.070   7.614  0.00  0.00    -0.453 OA
ATOM      3  O   UNL     1      -9.425  -8.209   8.113  0.00  0.00    -0.453 OA
ATOM     16  C   UNL     1     -11.192  -4.867   9.714  0.00  0.00    -0.030 A 
ATOM     17  C   UNL     1     -10.055  -4.781   8.907  0.00  0.00    +0.054 A 
ATOM     18  C   UNL     1     -11.771  -6.115  10.005  0.00  0.00    +0.009 A 
ATOM     20  C   UNL     1      -9.530  -5.958   8.414  0.00  0.00    +0.167 A 
ATOM     21  C   UNL     1     -11.219  -7.291   9.493  0.00  0.00    +0.050 A 
ATOM     22  C   UNL     1     -10.096  -7.180   8.698  0.00  0.00    +0.166 A 
ATOM     24  C   UNL     1      -8.373  -7.499   7.429  0.00  0.00    +0.466 C 
ENDBRANCH  14  16
ENDBRANCH   4  14
ENDBRANCH  15  10
TORSDOF 5
ENDMDL
MODEL 10
REMARK VINA RESULT:      -7.1      5.125      8.276
REMARK  Name = 51136911
REMARK  5 active torsions:
REMARK  status: ('A' for Active; 'I' for Inactive)
REMARK    1  A    between atoms: N_4  and  C_14
REMARK    2  A    between atoms: C_10  and  C_15
REMARK    3  A    between atoms: C_14  and  C_16
REMARK    4  A    between atoms: C_19  and  C_23
REMARK    5  A    between atoms: C_28  and  C_29
REMARK                            x       y       z     vdW  Elec       q    Type
REMARK                         _______ _______ _______ _____ _____    ______ ____
ROOT
ATOM      1  O   UNL     1      12.860  10.560  19.270  0.00  0.00    -0.336 OA
ATOM      5  N   UNL     1      13.762   9.310  17.644  0.00  0.00    -0.190 NA
ATOM      6  N   UNL     1      13.598  11.439  18.465  0.00  0.00    -0.056 NA
ATOM     15  C   UNL     1      13.012   9.328  18.716  0.00  0.00    +0.245 A 
ATOM     19  C   UNL     1      14.099  10.628  17.530  0.00  0.00    +0.204 A 
ENDROOT
BRANCH  19  23
ATOM      7  N   UNL     1      16.623  12.658  15.705  0.00  0.00    -0.254 NA
ATOM     23  C   UNL     1      14.939  11.102  16.468  0.00  0.00    +0.041 A 
ATOM     25  C   UNL     1      14.908  10.507  15.211  0.00  0.00    +0.015 A 
ATOM     26  C   UNL     1      15.806  12.164  16.661  0.00  0.00    +0.123 A 
ATOM     27  C   UNL     1      15.735  10.986  14.201  0.00  0.00    +0.029 A 
ATOM     28  C   UNL     1      16.567  12.055  14.496  0.00  0.00    +0.074 A 
BRANCH  28  29
ATOM      8  N   UNL     1      19.603  13.495  12.884  0.00  0.00    -0.243 NA
ATOM      9  N   UNL     1      17.857  13.312  11.233  0.00  0.00    -0.243 NA
ATOM     29  C   UNL     1      17.452  12.605  13.497  0.00  0.00    +0.037 A 
ATOM     30  C   UNL     1      18.748  12.976  13.790  0.00  0.00    +0.124 A 
ATOM     31  C   UNL     1      17.057  12.799  12.190  0.00  0.00    +0.124 A 
ATOM     32  C   UNL     1      19.098  13.634  11.643  0.00  0.00    +0.221 A 
ENDBRANCH  28  29
ENDBRANCH  19  23
BRANCH  15  10
ATOM      4  N   UNL     1      13.048   7.672  20.573  0.00  0.00    -0.287 NA
ATOM     10  C   UNL     1      12.299   8.185  19.409  0.00  0.00    +0.146 C 
ATOM     11  C   UNL     1      10.929   8.599  19.978  0.00  0.00    +0.030 C 
ATOM     12  C   UNL     1      10.980   8.222  21.452  0.00  0.00    +0.017 C 
ATOM     13  C   UNL     1      12.052   7.153  21.511  0.00  0.00    +0.085 C 
BRANCH   4  14
ATOM     14  C   UNL     1      14.043   6.667  20.217  0.00  0.00    +0.120 C 
BRANCH  14  16
ATOM      2  O   UNL     1      18.961   6.119  20.302  0.00  0.00    -0.453 OA
ATOM      3  O   UNL     1      19.292   8.208  21.457  0.00  0.00    -0.453 OA
ATOM     16  C   UNL     1      15.438   7.110  20.568  0.00  0.00    -0.030 A 
ATOM     17  C   UNL     1      16.528   6.310  20.218  0.00  0.00    +0.054 A 
ATOM     18  C   UNL     1      15.631   8.329  21.241  0.00  0.00    +0.009 A 
ATOM     20  C   UNL     1      17.788   6.760  20.557  0.00  0.00    +0.167 A 
ATOM     21  C   UNL     1      16.917   8.762  21.573  0.00  0.00    +0.050 A 
ATOM     22  C   UNL     1      17.977   7.953  21.218  0.00  0.00    +0.166 A 
ATOM     24  C   UNL     1      19.909   7.043  20.874  0.00  0.00    +0.466 C 
ENDBRANCH  14  16
ENDBRANCH   4  14
ENDBRANCH  15  10
TORSDOF 5
ENDMDL
