MODEL 1
REMARK VINA RESULT:      -7.4      0.000      0.000
REMARK  Name = 45784217
REMARK  4 active torsions:
REMARK  status: ('A' for Active; 'I' for Inactive)
REMARK    1  A    between atoms: N_1  and  C_10
REMARK    2  A    between atoms: C_5  and  C_9
REMARK    3  A    between atoms: C_10  and  C_13
REMARK    4  A    between atoms: C_17  and  C_20
REMARK                            x       y       z     vdW  Elec       q    Type
REMARK                         _______ _______ _______ _____ _____    ______ ____
ROOT
ATOM      1  N   UNL     1      12.098   4.132   1.620  0.00  0.00    -0.296 NA
ATOM      5  C   UNL     1      10.460   5.072   3.009  0.00  0.00    +0.070 C 
ATOM      6  C   UNL     1      11.271   6.193   2.338  0.00  0.00    +0.028 C 
ATOM      7  C   UNL     1      11.305   3.807   2.807  0.00  0.00    +0.096 C 
ATOM      8  C   UNL     1      12.534   5.514   1.822  0.00  0.00    +0.085 C 
ENDROOT
BRANCH   5   9
ATOM      2  N   UNL     1      10.271   4.350   5.406  0.00  0.00    -0.342 N 
ATOM      3  N   UNL     1       9.636   6.435   4.971  0.00  0.00    -0.232 NA
ATOM      9  C   UNL     1      10.110   5.323   4.458  0.00  0.00    +0.113 A 
ATOM     11  C   UNL     1       9.874   4.871   6.610  0.00  0.00    +0.066 A 
ATOM     12  C   UNL     1       9.482   6.174   6.313  0.00  0.00    +0.089 A 
ATOM     14  C   UNL     1       9.825   4.332   7.896  0.00  0.00    +0.031 A 
ATOM     15  C   UNL     1       9.010   7.000   7.346  0.00  0.00    +0.030 A 
ATOM     17  C   UNL     1       9.353   5.169   8.913  0.00  0.00    -0.048 A 
ATOM     18  C   UNL     1       8.952   6.480   8.645  0.00  0.00    +0.005 A 
ATOM     20  C   UNL     1       9.277   4.649  10.311  0.00  0.00    +0.044 C 
ATOM     23  H   UNL     1      10.620   3.414   5.251  0.00  0.00    +0.167 HD
ENDBRANCH   5   9
BRANCH   1  10
ATOM     10  C   UNL     1      13.218   3.221   1.435  0.00  0.00    +0.139 C 
BRANCH  10  13
ATOM      4  N   UNL     1      15.419   3.896   0.646  0.00  0.00    -0.259 NA
ATOM     13  C   UNL     1      14.126   3.667   0.320  0.00  0.00    +0.055 A 
ATOM     16  C   UNL     1      13.610   3.820  -0.956  0.00  0.00    +0.024 A 
ATOM     19  C   UNL     1      14.475   4.233  -1.964  0.00  0.00    +0.003 A 
ATOM     21  C   UNL     1      16.230   4.296  -0.359  0.00  0.00    +0.111 A 
ATOM     22  C   UNL     1      15.811   4.478  -1.668  0.00  0.00    +0.020 A 
ENDBRANCH  10  13
ENDBRANCH   1  10
TORSDOF 3
ENDMDL
MODEL 2
REMARK VINA RESULT:      -7.1     16.453     20.040
REMARK  Name = 45784217
REMARK  4 active torsions:
REMARK  status: ('A' for Active; 'I' for Inactive)
REMARK    1  A    between atoms: N_1  and  C_10
REMARK    2  A    between atoms: C_5  and  C_9
REMARK    3  A    between atoms: C_10  and  C_13
REMARK    4  A    between atoms: C_17  and  C_20
REMARK                            x       y       z     vdW  Elec       q    Type
REMARK                         _______ _______ _______ _____ _____    ______ ____
ROOT
ATOM      1  N   UNL     1      11.656   9.885  21.488  0.00  0.00    -0.296 NA
ATOM      5  C   UNL     1      13.489   9.390  20.113  0.00  0.00    +0.070 C 
ATOM      6  C   UNL     1      12.202   8.848  19.469  0.00  0.00    +0.028 C 
ATOM      7  C   UNL     1      13.104   9.679  21.570  0.00  0.00    +0.096 C 
ATOM      8  C   UNL     1      11.174   8.832  20.594  0.00  0.00    +0.085 C 
ENDROOT
BRANCH   5   9
ATOM      2  N   UNL     1      15.798   8.659  20.773  0.00  0.00    -0.342 N 
ATOM      3  N   UNL     1      14.828   7.466  19.168  0.00  0.00    -0.232 NA
ATOM      9  C   UNL     1      14.691   8.482  19.990  0.00  0.00    +0.113 A 
ATOM     11  C   UNL     1      16.709   7.692  20.435  0.00  0.00    +0.066 A 
ATOM     12  C   UNL     1      16.080   6.960  19.431  0.00  0.00    +0.089 A 
ATOM     14  C   UNL     1      17.990   7.402  20.905  0.00  0.00    +0.031 A 
ATOM     15  C   UNL     1      16.756   5.872  18.851  0.00  0.00    +0.030 A 
ATOM     17  C   UNL     1      18.647   6.316  20.317  0.00  0.00    -0.048 A 
ATOM     18  C   UNL     1      18.042   5.564  19.307  0.00  0.00    +0.005 A 
ATOM     20  C   UNL     1      20.021   5.957  20.779  0.00  0.00    +0.044 C 
ATOM     23  H   UNL     1      15.925   9.373  21.478  0.00  0.00    +0.167 HD
ENDBRANCH   5   9
BRANCH   1  10
ATOM     10  C   UNL     1      11.015   9.838  22.794  0.00  0.00    +0.139 C 
BRANCH  10  13
ATOM      4  N   UNL     1      10.832  12.257  22.602  0.00  0.00    -0.259 NA
ATOM     13  C   UNL     1      10.949  11.198  23.436  0.00  0.00    +0.055 A 
ATOM     16  C   UNL     1      11.010  11.302  24.816  0.00  0.00    +0.024 A 
ATOM     19  C   UNL     1      10.945  12.573  25.377  0.00  0.00    +0.003 A 
ATOM     21  C   UNL     1      10.774  13.476  23.183  0.00  0.00    +0.111 A 
ATOM     22  C   UNL     1      10.825  13.685  24.552  0.00  0.00    +0.020 A 
ENDBRANCH  10  13
ENDBRANCH   1  10
TORSDOF 3
ENDMDL
MODEL 3
REMARK VINA RESULT:      -6.7     16.788     19.401
REMARK  Name = 45784217
REMARK  4 active torsions:
REMARK  status: ('A' for Active; 'I' for Inactive)
REMARK    1  A    between atoms: N_1  and  C_10
REMARK    2  A    between atoms: C_5  and  C_9
REMARK    3  A    between atoms: C_10  and  C_13
REMARK    4  A    between atoms: C_17  and  C_20
REMARK                            x       y       z     vdW  Elec       q    Type
REMARK                         _______ _______ _______ _____ _____    ______ ____
ROOT
ATOM      1  N   UNL     1      21.330   4.910  21.201  0.00  0.00    -0.296 NA
ATOM      5  C   UNL     1      19.684   6.479  20.630  0.00  0.00    +0.070 C 
ATOM      6  C   UNL     1      20.313   6.861  21.980  0.00  0.00    +0.028 C 
ATOM      7  C   UNL     1      20.108   5.021  20.402  0.00  0.00    +0.096 C 
ATOM      8  C   UNL     1      21.027   5.602  22.454  0.00  0.00    +0.085 C 
ENDROOT
BRANCH   5   9
ATOM      2  N   UNL     1      17.472   7.136  21.618  0.00  0.00    -0.342 N 
ATOM      3  N   UNL     1      17.422   6.454  19.503  0.00  0.00    -0.232 NA
ATOM      9  C   UNL     1      18.188   6.678  20.547  0.00  0.00    +0.113 A 
ATOM     11  C   UNL     1      16.156   7.213  21.239  0.00  0.00    +0.066 A 
ATOM     12  C   UNL     1      16.151   6.782  19.915  0.00  0.00    +0.089 A 
ATOM     14  C   UNL     1      15.005   7.610  21.920  0.00  0.00    +0.031 A 
ATOM     15  C   UNL     1      14.934   6.738  19.214  0.00  0.00    +0.030 A 
ATOM     17  C   UNL     1      13.802   7.560  21.207  0.00  0.00    -0.048 A 
ATOM     18  C   UNL     1      13.766   7.131  19.878  0.00  0.00    +0.005 A 
ATOM     20  C   UNL     1      12.536   7.973  21.881  0.00  0.00    +0.044 C 
ATOM     23  H   UNL     1      17.842   7.376  22.528  0.00  0.00    +0.167 HD
ENDBRANCH   5   9
BRANCH   1  10
ATOM     10  C   UNL     1      21.728   3.526  21.416  0.00  0.00    +0.139 C 
BRANCH  10  13
ATOM      4  N   UNL     1      23.775   4.285  20.339  0.00  0.00    -0.259 NA
ATOM     13  C   UNL     1      23.158   3.285  21.010  0.00  0.00    +0.055 A 
ATOM     16  C   UNL     1      23.762   2.081  21.333  0.00  0.00    +0.024 A 
ATOM     19  C   UNL     1      25.083   1.890  20.945  0.00  0.00    +0.003 A 
ATOM     21  C   UNL     1      25.058   4.063  19.977  0.00  0.00    +0.111 A 
ATOM     22  C   UNL     1      25.750   2.895  20.253  0.00  0.00    +0.020 A 
ENDBRANCH  10  13
ENDBRANCH   1  10
TORSDOF 3
ENDMDL
MODEL 4
REMARK VINA RESULT:      -6.7     22.212     25.444
REMARK  Name = 45784217
REMARK  4 active torsions:
REMARK  status: ('A' for Active; 'I' for Inactive)
REMARK    1  A    between atoms: N_1  and  C_10
REMARK    2  A    between atoms: C_5  and  C_9
REMARK    3  A    between atoms: C_10  and  C_13
REMARK    4  A    between atoms: C_17  and  C_20
REMARK                            x       y       z     vdW  Elec       q    Type
REMARK                         _______ _______ _______ _____ _____    ______ ____
ROOT
ATOM      1  N   UNL     1      -2.154 -10.993  13.654  0.00  0.00    -0.296 NA
ATOM      5  C   UNL     1      -3.212 -10.260  15.613  0.00  0.00    +0.070 C 
ATOM      6  C   UNL     1      -1.815 -10.804  15.956  0.00  0.00    +0.028 C 
ATOM      7  C   UNL     1      -3.497 -10.781  14.198  0.00  0.00    +0.096 C 
ATOM      8  C   UNL     1      -1.401 -11.622  14.739  0.00  0.00    +0.085 C 
ENDROOT
BRANCH   5   9
ATOM      2  N   UNL     1      -5.525 -10.026  16.560  0.00  0.00    -0.342 N 
ATOM      3  N   UNL     1      -4.208 -11.499  17.578  0.00  0.00    -0.232 NA
ATOM      9  C   UNL     1      -4.295 -10.621  16.604  0.00  0.00    +0.113 A 
ATOM     11  C   UNL     1      -6.283 -10.556  17.573  0.00  0.00    +0.066 A 
ATOM     12  C   UNL     1      -5.438 -11.473  18.194  0.00  0.00    +0.089 A 
ATOM     14  C   UNL     1      -7.594 -10.320  17.988  0.00  0.00    +0.031 A 
ATOM     15  C   UNL     1      -5.913 -12.205  19.295  0.00  0.00    +0.030 A 
ATOM     17  C   UNL     1      -8.050 -11.058  19.085  0.00  0.00    -0.048 A 
ATOM     18  C   UNL     1      -7.226 -11.985  19.728  0.00  0.00    +0.005 A 
ATOM     20  C   UNL     1      -9.445 -10.850  19.576  0.00  0.00    +0.044 C 
ATOM     23  H   UNL     1      -5.827  -9.322  15.900  0.00  0.00    +0.167 HD
ENDBRANCH   5   9
BRANCH   1  10
ATOM     10  C   UNL     1      -2.167 -11.805  12.446  0.00  0.00    +0.139 C 
BRANCH  10  13
ATOM      4  N   UNL     1      -3.777 -11.833  10.621  0.00  0.00    -0.259 NA
ATOM     13  C   UNL     1      -2.864 -11.108  11.308  0.00  0.00    +0.055 A 
ATOM     16  C   UNL     1      -2.548  -9.790  11.024  0.00  0.00    +0.024 A 
ATOM     19  C   UNL     1      -3.210  -9.175   9.967  0.00  0.00    +0.003 A 
ATOM     21  C   UNL     1      -4.400 -11.202   9.601  0.00  0.00    +0.111 A 
ATOM     22  C   UNL     1      -4.155  -9.887   9.237  0.00  0.00    +0.020 A 
ENDBRANCH  10  13
ENDBRANCH   1  10
TORSDOF 3
ENDMDL
MODEL 5
REMARK VINA RESULT:      -6.6      1.880      2.446
REMARK  Name = 45784217
REMARK  4 active torsions:
REMARK  status: ('A' for Active; 'I' for Inactive)
REMARK    1  A    between atoms: N_1  and  C_10
REMARK    2  A    between atoms: C_5  and  C_9
REMARK    3  A    between atoms: C_10  and  C_13
REMARK    4  A    between atoms: C_17  and  C_20
REMARK                            x       y       z     vdW  Elec       q    Type
REMARK                         _______ _______ _______ _____ _____    ______ ____
ROOT
ATOM      1  N   UNL     1      11.296   5.135   0.997  0.00  0.00    -0.296 NA
ATOM      5  C   UNL     1      10.075   6.221   2.678  0.00  0.00    +0.070 C 
ATOM      6  C   UNL     1      11.230   7.125   2.215  0.00  0.00    +0.028 C 
ATOM      7  C   UNL     1      10.430   4.829   2.137  0.00  0.00    +0.096 C 
ATOM      8  C   UNL     1      12.182   6.199   1.469  0.00  0.00    +0.085 C 
ENDROOT
BRANCH   5   9
ATOM      2  N   UNL     1      10.110   5.138   4.942  0.00  0.00    -0.342 N 
ATOM      3  N   UNL     1       9.324   7.216   4.876  0.00  0.00    -0.232 NA
ATOM      9  C   UNL     1       9.822   6.227   4.168  0.00  0.00    +0.113 A 
ATOM     11  C   UNL     1       9.776   5.444   6.237  0.00  0.00    +0.066 A 
ATOM     12  C   UNL     1       9.288   6.747   6.169  0.00  0.00    +0.089 A 
ATOM     14  C   UNL     1       9.856   4.717   7.425  0.00  0.00    +0.031 A 
ATOM     15  C   UNL     1       8.849   7.375   7.347  0.00  0.00    +0.030 A 
ATOM     17  C   UNL     1       9.415   5.358   8.587  0.00  0.00    -0.048 A 
ATOM     18  C   UNL     1       8.920   6.664   8.550  0.00  0.00    +0.005 A 
ATOM     20  C   UNL     1       9.476   4.631   9.890  0.00  0.00    +0.044 C 
ATOM     23  H   UNL     1      10.500   4.261   4.622  0.00  0.00    +0.167 HD
ENDBRANCH   5   9
BRANCH   1  10
ATOM     10  C   UNL     1      12.032   3.968   0.530  0.00  0.00    +0.139 C 
BRANCH  10  13
ATOM      4  N   UNL     1      10.568   4.187  -1.402  0.00  0.00    -0.259 NA
ATOM     13  C   UNL     1      11.685   3.619  -0.893  0.00  0.00    +0.055 A 
ATOM     16  C   UNL     1      12.504   2.753  -1.598  0.00  0.00    +0.024 A 
ATOM     19  C   UNL     1      12.157   2.451  -2.910  0.00  0.00    +0.003 A 
ATOM     21  C   UNL     1      10.262   3.870  -2.679  0.00  0.00    +0.111 A 
ATOM     22  C   UNL     1      11.016   3.016  -3.468  0.00  0.00    +0.020 A 
ENDBRANCH  10  13
ENDBRANCH   1  10
TORSDOF 3
ENDMDL
MODEL 6
REMARK VINA RESULT:      -6.5     28.951     33.779
REMARK  Name = 45784217
REMARK  4 active torsions:
REMARK  status: ('A' for Active; 'I' for Inactive)
REMARK    1  A    between atoms: N_1  and  C_10
REMARK    2  A    between atoms: C_5  and  C_9
REMARK    3  A    between atoms: C_10  and  C_13
REMARK    4  A    between atoms: C_17  and  C_20
REMARK                            x       y       z     vdW  Elec       q    Type
REMARK                         _______ _______ _______ _____ _____    ______ ____
ROOT
ATOM      1  N   UNL     1     -15.175   5.816  22.051  0.00  0.00    -0.296 NA
ATOM      5  C   UNL     1     -15.786   3.861  23.191  0.00  0.00    +0.070 C 
ATOM      6  C   UNL     1     -17.033   4.495  22.553  0.00  0.00    +0.028 C 
ATOM      7  C   UNL     1     -14.726   4.970  23.158  0.00  0.00    +0.096 C 
ATOM      8  C   UNL     1     -16.624   5.925  22.222  0.00  0.00    +0.085 C 
ENDROOT
BRANCH   5   9
ATOM      2  N   UNL     1     -15.772   4.041  25.695  0.00  0.00    -0.342 N 
ATOM      3  N   UNL     1     -16.412   2.079  24.870  0.00  0.00    -0.232 NA
ATOM      9  C   UNL     1     -16.001   3.291  24.575  0.00  0.00    +0.113 A 
ATOM     11  C   UNL     1     -16.054   3.260  26.786  0.00  0.00    +0.066 A 
ATOM     12  C   UNL     1     -16.451   2.040  26.245  0.00  0.00    +0.089 A 
ATOM     14  C   UNL     1     -15.997   3.507  28.158  0.00  0.00    +0.031 A 
ATOM     15  C   UNL     1     -16.816   0.994  27.110  0.00  0.00    +0.030 A 
ATOM     17  C   UNL     1     -16.364   2.455  29.004  0.00  0.00    -0.048 A 
ATOM     18  C   UNL     1     -16.767   1.220  28.490  0.00  0.00    +0.005 A 
ATOM     20  C   UNL     1     -16.325   2.659  30.483  0.00  0.00    +0.044 C 
ATOM     23  H   UNL     1     -15.452   5.001  25.719  0.00  0.00    +0.167 HD
ENDBRANCH   5   9
BRANCH   1  10
ATOM     10  C   UNL     1     -14.520   7.116  22.045  0.00  0.00    +0.139 C 
BRANCH  10  13
ATOM      4  N   UNL     1     -14.159   7.793  19.736  0.00  0.00    -0.259 NA
ATOM     13  C   UNL     1     -13.607   7.279  20.859  0.00  0.00    +0.055 A 
ATOM     16  C   UNL     1     -12.279   6.904  20.967  0.00  0.00    +0.024 A 
ATOM     19  C   UNL     1     -11.462   7.068  19.853  0.00  0.00    +0.003 A 
ATOM     21  C   UNL     1     -13.336   7.938  18.674  0.00  0.00    +0.111 A 
ATOM     22  C   UNL     1     -11.994   7.594  18.681  0.00  0.00    +0.020 A 
ENDBRANCH  10  13
ENDBRANCH   1  10
TORSDOF 3
ENDMDL
MODEL 7
REMARK VINA RESULT:      -6.4     22.993     26.463
REMARK  Name = 45784217
REMARK  4 active torsions:
REMARK  status: ('A' for Active; 'I' for Inactive)
REMARK    1  A    between atoms: N_1  and  C_10
REMARK    2  A    between atoms: C_5  and  C_9
REMARK    3  A    between atoms: C_10  and  C_13
REMARK    4  A    between atoms: C_17  and  C_20
REMARK                            x       y       z     vdW  Elec       q    Type
REMARK                         _______ _______ _______ _____ _____    ______ ____
ROOT
ATOM      1  N   UNL     1      -4.257 -10.551  14.540  0.00  0.00    -0.296 NA
ATOM      5  C   UNL     1      -5.534  -9.660  16.292  0.00  0.00    +0.070 C 
ATOM      6  C   UNL     1      -4.273 -10.330  16.864  0.00  0.00    +0.028 C 
ATOM      7  C   UNL     1      -5.640 -10.192  14.856  0.00  0.00    +0.096 C 
ATOM      8  C   UNL     1      -3.755 -11.220  15.741  0.00  0.00    +0.085 C 
ENDROOT
BRANCH   5   9
ATOM      2  N   UNL     1      -7.956  -9.231  16.796  0.00  0.00    -0.342 N 
ATOM      3  N   UNL     1      -6.933 -10.683  18.131  0.00  0.00    -0.232 NA
ATOM      9  C   UNL     1      -6.793  -9.884  17.098  0.00  0.00    +0.113 A 
ATOM     11  C   UNL     1      -8.909  -9.637  17.693  0.00  0.00    +0.066 A 
ATOM     12  C   UNL     1      -8.246 -10.544  18.517  0.00  0.00    +0.089 A 
ATOM     14  C   UNL     1     -10.254  -9.300  17.852  0.00  0.00    +0.031 A 
ATOM     15  C   UNL     1      -8.951 -11.159  19.565  0.00  0.00    +0.030 A 
ATOM     17  C   UNL     1     -10.940  -9.923  18.900  0.00  0.00    -0.048 A 
ATOM     18  C   UNL     1     -10.301 -10.836  19.743  0.00  0.00    +0.005 A 
ATOM     20  C   UNL     1     -12.382  -9.603  19.121  0.00  0.00    +0.044 C 
ATOM     23  H   UNL     1      -8.092  -8.567  16.045  0.00  0.00    +0.167 HD
ENDBRANCH   5   9
BRANCH   1  10
ATOM     10  C   UNL     1      -4.159 -11.393  13.357  0.00  0.00    +0.139 C 
BRANCH  10  13
ATOM      4  N   UNL     1      -4.995 -10.296  11.352  0.00  0.00    -0.259 NA
ATOM     13  C   UNL     1      -3.913 -10.584  12.111  0.00  0.00    +0.055 A 
ATOM     16  C   UNL     1      -2.624 -10.182  11.806  0.00  0.00    +0.024 A 
ATOM     19  C   UNL     1      -2.431  -9.435  10.649  0.00  0.00    +0.003 A 
ATOM     21  C   UNL     1      -4.769  -9.569  10.235  0.00  0.00    +0.111 A 
ATOM     22  C   UNL     1      -3.519  -9.119   9.843  0.00  0.00    +0.020 A 
ENDBRANCH  10  13
ENDBRANCH   1  10
TORSDOF 3
ENDMDL
MODEL 8
REMARK VINA RESULT:      -6.4     23.379     27.252
REMARK  Name = 45784217
REMARK  4 active torsions:
REMARK  status: ('A' for Active; 'I' for Inactive)
REMARK    1  A    between atoms: N_1  and  C_10
REMARK    2  A    between atoms: C_5  and  C_9
REMARK    3  A    between atoms: C_10  and  C_13
REMARK    4  A    between atoms: C_17  and  C_20
REMARK                            x       y       z     vdW  Elec       q    Type
REMARK                         _______ _______ _______ _____ _____    ______ ____
ROOT
ATOM      1  N   UNL     1      -4.890 -11.692  17.199  0.00  0.00    -0.296 NA
ATOM      5  C   UNL     1      -6.569 -10.305  18.067  0.00  0.00    +0.070 C 
ATOM      6  C   UNL     1      -6.588 -11.656  18.801  0.00  0.00    +0.028 C 
ATOM      7  C   UNL     1      -5.729 -10.558  16.807  0.00  0.00    +0.096 C 
ATOM      8  C   UNL     1      -5.790 -12.601  17.910  0.00  0.00    +0.085 C 
ENDROOT
BRANCH   5   9
ATOM      2  N   UNL     1      -8.075  -8.620  16.975  0.00  0.00    -0.342 N 
ATOM      3  N   UNL     1      -9.091 -10.187  18.180  0.00  0.00    -0.232 NA
ATOM      9  C   UNL     1      -7.932  -9.729  17.761  0.00  0.00    +0.113 A 
ATOM     11  C   UNL     1      -9.414  -8.344  16.880  0.00  0.00    +0.066 A 
ATOM     12  C   UNL     1     -10.028  -9.336  17.641  0.00  0.00    +0.089 A 
ATOM     14  C   UNL     1     -10.122  -7.342  16.215  0.00  0.00    +0.031 A 
ATOM     15  C   UNL     1     -11.428  -9.344  17.756  0.00  0.00    +0.030 A 
ATOM     17  C   UNL     1     -11.515  -7.365  16.341  0.00  0.00    -0.048 A 
ATOM     18  C   UNL     1     -12.158  -8.348  17.097  0.00  0.00    +0.005 A 
ATOM     20  C   UNL     1     -12.328  -6.318  15.652  0.00  0.00    +0.044 C 
ATOM     23  H   UNL     1      -7.328  -8.094  16.539  0.00  0.00    +0.167 HD
ENDBRANCH   5   9
BRANCH   1  10
ATOM     10  C   UNL     1      -4.250 -12.329  16.057  0.00  0.00    +0.139 C 
BRANCH  10  13
ATOM      4  N   UNL     1      -3.282 -11.224  14.117  0.00  0.00    -0.259 NA
ATOM     13  C   UNL     1      -3.189 -11.452  15.447  0.00  0.00    +0.055 A 
ATOM     16  C   UNL     1      -2.192 -10.931  16.254  0.00  0.00    +0.024 A 
ATOM     19  C   UNL     1      -1.228 -10.124  15.660  0.00  0.00    +0.003 A 
ATOM     21  C   UNL     1      -2.327 -10.436  13.574  0.00  0.00    +0.111 A 
ATOM     22  C   UNL     1      -1.289  -9.867  14.295  0.00  0.00    +0.020 A 
ENDBRANCH  10  13
ENDBRANCH   1  10
TORSDOF 3
ENDMDL
MODEL 9
REMARK VINA RESULT:      -6.4     26.085     28.453
REMARK  Name = 45784217
REMARK  4 active torsions:
REMARK  status: ('A' for Active; 'I' for Inactive)
REMARK    1  A    between atoms: N_1  and  C_10
REMARK    2  A    between atoms: C_5  and  C_9
REMARK    3  A    between atoms: C_10  and  C_13
REMARK    4  A    between atoms: C_17  and  C_20
REMARK                            x       y       z     vdW  Elec       q    Type
REMARK                         _______ _______ _______ _____ _____    ______ ____
ROOT
ATOM      1  N   UNL     1     -11.914  -7.254  14.770  0.00  0.00    -0.296 NA
ATOM      5  C   UNL     1     -10.715  -8.265  16.512  0.00  0.00    +0.070 C 
ATOM      6  C   UNL     1     -10.824  -6.754  16.773  0.00  0.00    +0.028 C 
ATOM      7  C   UNL     1     -11.086  -8.433  15.033  0.00  0.00    +0.096 C 
ATOM      8  C   UNL     1     -11.220  -6.149  15.432  0.00  0.00    +0.085 C 
ENDROOT
BRANCH   5   9
ATOM      2  N   UNL     1      -8.311  -8.779  16.002  0.00  0.00    -0.342 N 
ATOM      3  N   UNL     1      -9.068  -9.532  17.952  0.00  0.00    -0.232 NA
ATOM      9  C   UNL     1      -9.375  -8.874  16.857  0.00  0.00    +0.113 A 
ATOM     11  C   UNL     1      -7.248  -9.418  16.586  0.00  0.00    +0.066 A 
ATOM     12  C   UNL     1      -7.746  -9.880  17.802  0.00  0.00    +0.089 A 
ATOM     14  C   UNL     1      -5.933  -9.627  16.168  0.00  0.00    +0.031 A 
ATOM     15  C   UNL     1      -6.895 -10.594  18.663  0.00  0.00    +0.030 A 
ATOM     17  C   UNL     1      -5.101 -10.340  17.037  0.00  0.00    -0.048 A 
ATOM     18  C   UNL     1      -5.572 -10.816  18.263  0.00  0.00    +0.005 A 
ATOM     20  C   UNL     1      -3.683 -10.595  16.646  0.00  0.00    +0.044 C 
ATOM     23  H   UNL     1      -8.306  -8.319  15.101  0.00  0.00    +0.167 HD
ENDBRANCH   5   9
BRANCH   1  10
ATOM     10  C   UNL     1     -12.104  -7.015  13.347  0.00  0.00    +0.139 C 
BRANCH  10  13
ATOM      4  N   UNL     1     -14.219  -5.824  13.509  0.00  0.00    -0.259 NA
ATOM     13  C   UNL     1     -12.934  -5.785  13.090  0.00  0.00    +0.055 A 
ATOM     16  C   UNL     1     -12.358  -4.699  12.453  0.00  0.00    +0.024 A 
ATOM     19  C   UNL     1     -13.152  -3.578  12.232  0.00  0.00    +0.003 A 
ATOM     21  C   UNL     1     -14.960  -4.717  13.276  0.00  0.00    +0.111 A 
ATOM     22  C   UNL     1     -14.478  -3.580  12.648  0.00  0.00    +0.020 A 
ENDBRANCH  10  13
ENDBRANCH   1  10
TORSDOF 3
ENDMDL
MODEL 10
REMARK VINA RESULT:      -6.3     27.348     32.074
REMARK  Name = 45784217
REMARK  4 active torsions:
REMARK  status: ('A' for Active; 'I' for Inactive)
REMARK    1  A    between atoms: N_1  and  C_10
REMARK    2  A    between atoms: C_5  and  C_9
REMARK    3  A    between atoms: C_10  and  C_13
REMARK    4  A    between atoms: C_17  and  C_20
REMARK                            x       y       z     vdW  Elec       q    Type
REMARK                         _______ _______ _______ _____ _____    ______ ____
ROOT
ATOM      1  N   UNL     1     -13.341   6.925  20.843  0.00  0.00    -0.296 NA
ATOM      5  C   UNL     1     -14.699   5.193  21.652  0.00  0.00    +0.070 C 
ATOM      6  C   UNL     1     -15.565   6.216  20.896  0.00  0.00    +0.028 C 
ATOM      7  C   UNL     1     -13.372   5.921  21.909  0.00  0.00    +0.096 C 
ATOM      8  C   UNL     1     -14.700   7.466  20.793  0.00  0.00    +0.085 C 
ENDROOT
BRANCH   5   9
ATOM      2  N   UNL     1     -15.523   3.300  23.079  0.00  0.00    -0.342 N 
ATOM      3  N   UNL     1     -15.731   5.332  23.955  0.00  0.00    -0.232 NA
ATOM      9  C   UNL     1     -15.323   4.642  22.913  0.00  0.00    +0.113 A 
ATOM     11  C   UNL     1     -16.097   3.111  24.310  0.00  0.00    +0.066 A 
ATOM     12  C   UNL     1     -16.217   4.395  24.837  0.00  0.00    +0.089 A 
ATOM     14  C   UNL     1     -16.511   1.964  24.988  0.00  0.00    +0.031 A 
ATOM     15  C   UNL     1     -16.781   4.561  26.113  0.00  0.00    +0.030 A 
ATOM     17  C   UNL     1     -17.069   2.148  26.257  0.00  0.00    -0.048 A 
ATOM     18  C   UNL     1     -17.203   3.424  26.811  0.00  0.00    +0.005 A 
ATOM     20  C   UNL     1     -17.530   0.958  27.032  0.00  0.00    +0.044 C 
ATOM     23  H   UNL     1     -15.289   2.573  22.416  0.00  0.00    +0.167 HD
ENDBRANCH   5   9
BRANCH   1  10
ATOM     10  C   UNL     1     -12.344   7.957  21.083  0.00  0.00    +0.139 C 
BRANCH  10  13
ATOM      4  N   UNL     1     -10.956   9.499  19.811  0.00  0.00    -0.259 NA
ATOM     13  C   UNL     1     -11.576   8.298  19.833  0.00  0.00    +0.055 A 
ATOM     16  C   UNL     1     -11.542   7.388  18.789  0.00  0.00    +0.024 A 
ATOM     19  C   UNL     1     -10.824   7.732  17.649  0.00  0.00    +0.003 A 
ATOM     21  C   UNL     1     -10.268   9.799  18.686  0.00  0.00    +0.111 A 
ATOM     22  C   UNL     1     -10.173   8.959  17.588  0.00  0.00    +0.020 A 
ENDBRANCH  10  13
ENDBRANCH   1  10
TORSDOF 3
ENDMDL
