MODEL 1
REMARK VINA RESULT:      -6.1      0.000      0.000
REMARK  Name = 75537066
REMARK  3 active torsions:
REMARK  status: ('A' for Active; 'I' for Inactive)
REMARK    1  A    between atoms: N_3  and  C_12
REMARK    2  A    between atoms: N_4  and  C_13
REMARK    3  A    between atoms: C_12  and  C_14
REMARK                            x       y       z     vdW  Elec       q    Type
REMARK                         _______ _______ _______ _____ _____    ______ ____
ROOT
ATOM      1  O   UNL     1      12.123   6.796  18.523  0.00  0.00    -0.252 OA
ATOM      2  N   UNL     1      12.913   8.865  17.740  0.00  0.00    -0.278 N 
ATOM      3  N   UNL     1      14.004   7.884  19.441  0.00  0.00    -0.279 N 
ATOM      4  N   UNL     1      13.681  10.860  15.912  0.00  0.00    -0.302 NA
ATOM      6  C   UNL     1      13.914   9.834  18.137  0.00  0.00    +0.109 C 
ATOM      7  C   UNL     1      14.787   9.067  19.128  0.00  0.00    +0.133 C 
ATOM      8  C   UNL     1      14.652  10.369  16.910  0.00  0.00    +0.108 C 
ATOM      9  C   UNL     1      12.002   9.189  16.663  0.00  0.00    +0.125 C 
ATOM     10  C   UNL     1      12.775   9.776  15.480  0.00  0.00    +0.103 C 
ATOM     11  C   UNL     1      12.910   7.732  18.565  0.00  0.00    +0.305 C 
ATOM     13  C   UNL     1      14.379  11.430  14.760  0.00  0.00    +0.105 C 
ENDROOT
BRANCH   3  12
ATOM     12  C   UNL     1      14.427   6.928  20.440  0.00  0.00    +0.146 C 
BRANCH  12  14
ATOM      5  N   UNL     1      18.080   6.497  21.317  0.00  0.00    -0.263 NA
ATOM     14  C   UNL     1      15.883   6.587  20.311  0.00  0.00    -0.012 A 
ATOM     15  C   UNL     1      16.396   6.066  19.128  0.00  0.00    +0.008 A 
ATOM     16  C   UNL     1      16.759   6.781  21.367  0.00  0.00    +0.115 A 
ATOM     17  C   UNL     1      17.749   5.761  19.038  0.00  0.00    +0.020 A 
ATOM     18  C   UNL     1      18.541   5.993  20.150  0.00  0.00    +0.111 A 
ENDBRANCH  12  14
ENDBRANCH   3  12
TORSDOF 2
ENDMDL
MODEL 2
REMARK VINA RESULT:      -5.9      2.650      3.864
REMARK  Name = 75537066
REMARK  3 active torsions:
REMARK  status: ('A' for Active; 'I' for Inactive)
REMARK    1  A    between atoms: N_3  and  C_12
REMARK    2  A    between atoms: N_4  and  C_13
REMARK    3  A    between atoms: C_12  and  C_14
REMARK                            x       y       z     vdW  Elec       q    Type
REMARK                         _______ _______ _______ _____ _____    ______ ____
ROOT
ATOM      1  O   UNL     1      14.467   7.648  17.501  0.00  0.00    -0.252 OA
ATOM      2  N   UNL     1      13.071   7.509  19.385  0.00  0.00    -0.278 N 
ATOM      3  N   UNL     1      15.157   6.692  19.544  0.00  0.00    -0.279 N 
ATOM      4  N   UNL     1      11.207   8.305  21.336  0.00  0.00    -0.302 NA
ATOM      6  C   UNL     1      13.123   6.898  20.697  0.00  0.00    +0.109 C 
ATOM      7  C   UNL     1      14.601   6.556  20.879  0.00  0.00    +0.133 C 
ATOM      8  C   UNL     1      12.549   7.847  21.749  0.00  0.00    +0.108 C 
ATOM      9  C   UNL     1      11.839   8.124  18.939  0.00  0.00    +0.125 C 
ATOM     10  C   UNL     1      11.269   9.017  20.043  0.00  0.00    +0.103 C 
ATOM     11  C   UNL     1      14.256   7.321  18.661  0.00  0.00    +0.305 C 
ATOM     13  C   UNL     1      10.624   9.166  22.364  0.00  0.00    +0.105 C 
ENDROOT
BRANCH   3  12
ATOM     12  C   UNL     1      16.531   6.349  19.248  0.00  0.00    +0.146 C 
BRANCH  12  14
ATOM      5  N   UNL     1      18.138   8.826  21.610  0.00  0.00    -0.263 NA
ATOM     14  C   UNL     1      17.485   6.941  20.244  0.00  0.00    -0.012 A 
ATOM     15  C   UNL     1      18.565   6.210  20.725  0.00  0.00    +0.008 A 
ATOM     16  C   UNL     1      17.317   8.234  20.715  0.00  0.00    +0.115 A 
ATOM     17  C   UNL     1      19.432   6.784  21.647  0.00  0.00    +0.020 A 
ATOM     18  C   UNL     1      19.177   8.084  22.054  0.00  0.00    +0.111 A 
ENDBRANCH  12  14
ENDBRANCH   3  12
TORSDOF 2
ENDMDL
MODEL 3
REMARK VINA RESULT:      -5.9      2.841      6.360
REMARK  Name = 75537066
REMARK  3 active torsions:
REMARK  status: ('A' for Active; 'I' for Inactive)
REMARK    1  A    between atoms: N_3  and  C_12
REMARK    2  A    between atoms: N_4  and  C_13
REMARK    3  A    between atoms: C_12  and  C_14
REMARK                            x       y       z     vdW  Elec       q    Type
REMARK                         _______ _______ _______ _____ _____    ______ ____
ROOT
ATOM      1  O   UNL     1      15.982   9.779  20.452  0.00  0.00    -0.252 OA
ATOM      2  N   UNL     1      17.324   7.886  20.814  0.00  0.00    -0.278 N 
ATOM      3  N   UNL     1      15.554   7.690  19.444  0.00  0.00    -0.279 N 
ATOM      4  N   UNL     1      19.653   6.337  21.113  0.00  0.00    -0.302 NA
ATOM      6  C   UNL     1      17.280   6.478  20.476  0.00  0.00    +0.109 C 
ATOM      7  C   UNL     1      16.224   6.403  19.374  0.00  0.00    +0.133 C 
ATOM      8  C   UNL     1      18.668   5.985  20.070  0.00  0.00    +0.108 C 
ATOM      9  C   UNL     1      18.349   8.366  21.715  0.00  0.00    +0.125 C 
ATOM     10  C   UNL     1      19.712   7.800  21.309  0.00  0.00    +0.103 C 
ATOM     11  C   UNL     1      16.251   8.601  20.265  0.00  0.00    +0.305 C 
ATOM     13  C   UNL     1      20.974   5.817  20.762  0.00  0.00    +0.105 C 
ENDROOT
BRANCH   3  12
ATOM     12  C   UNL     1      14.399   7.998  18.630  0.00  0.00    +0.146 C 
BRANCH  12  14
ATOM      5  N   UNL     1      11.413   6.771  20.599  0.00  0.00    -0.263 NA
ATOM     14  C   UNL     1      13.132   8.010  19.435  0.00  0.00    -0.012 A 
ATOM     15  C   UNL     1      12.505   9.206  19.767  0.00  0.00    +0.008 A 
ATOM     16  C   UNL     1      12.551   6.831  19.872  0.00  0.00    +0.115 A 
ATOM     17  C   UNL     1      11.332   9.186  20.514  0.00  0.00    +0.020 A 
ATOM     18  C   UNL     1      10.832   7.954  20.901  0.00  0.00    +0.111 A 
ENDBRANCH  12  14
ENDBRANCH   3  12
TORSDOF 2
ENDMDL
MODEL 4
REMARK VINA RESULT:      -5.7      4.334      6.376
REMARK  Name = 75537066
REMARK  3 active torsions:
REMARK  status: ('A' for Active; 'I' for Inactive)
REMARK    1  A    between atoms: N_3  and  C_12
REMARK    2  A    between atoms: N_4  and  C_13
REMARK    3  A    between atoms: C_12  and  C_14
REMARK                            x       y       z     vdW  Elec       q    Type
REMARK                         _______ _______ _______ _____ _____    ______ ____
ROOT
ATOM      1  O   UNL     1      10.611   8.525  19.726  0.00  0.00    -0.252 OA
ATOM      2  N   UNL     1      12.959   8.471  19.789  0.00  0.00    -0.278 N 
ATOM      3  N   UNL     1      11.860   9.162  21.623  0.00  0.00    -0.279 N 
ATOM      4  N   UNL     1      15.573   7.503  19.414  0.00  0.00    -0.302 NA
ATOM      6  C   UNL     1      14.002   8.895  20.700  0.00  0.00    +0.109 C 
ATOM      7  C   UNL     1      13.260   9.141  22.012  0.00  0.00    +0.133 C 
ATOM      8  C   UNL     1      15.105   7.839  20.774  0.00  0.00    +0.108 C 
ATOM      9  C   UNL     1      13.320   7.979  18.477  0.00  0.00    +0.125 C 
ATOM     10  C   UNL     1      14.466   6.971  18.593  0.00  0.00    +0.103 C 
ATOM     11  C   UNL     1      11.675   8.701  20.303  0.00  0.00    +0.305 C 
ATOM     13  C   UNL     1      16.670   6.538  19.477  0.00  0.00    +0.105 C 
ENDROOT
BRANCH   3  12
ATOM     12  C   UNL     1      10.808   9.479  22.563  0.00  0.00    +0.146 C 
BRANCH  12  14
ATOM      5  N   UNL     1      11.210  13.235  22.744  0.00  0.00    -0.263 NA
ATOM     14  C   UNL     1      10.959  10.861  23.130  0.00  0.00    -0.012 A 
ATOM     15  C   UNL     1      10.990  11.074  24.503  0.00  0.00    +0.008 A 
ATOM     16  C   UNL     1      11.072  11.966  22.300  0.00  0.00    +0.115 A 
ATOM     17  C   UNL     1      11.131  12.365  24.999  0.00  0.00    +0.020 A 
ATOM     18  C   UNL     1      11.236  13.401  24.086  0.00  0.00    +0.111 A 
ENDBRANCH  12  14
ENDBRANCH   3  12
TORSDOF 2
ENDMDL
MODEL 5
REMARK VINA RESULT:      -5.6      4.281      5.348
REMARK  Name = 75537066
REMARK  3 active torsions:
REMARK  status: ('A' for Active; 'I' for Inactive)
REMARK    1  A    between atoms: N_3  and  C_12
REMARK    2  A    between atoms: N_4  and  C_13
REMARK    3  A    between atoms: C_12  and  C_14
REMARK                            x       y       z     vdW  Elec       q    Type
REMARK                         _______ _______ _______ _____ _____    ______ ____
ROOT
ATOM      1  O   UNL     1      12.471  10.091  19.689  0.00  0.00    -0.252 OA
ATOM      2  N   UNL     1      11.379  10.733  21.667  0.00  0.00    -0.278 N 
ATOM      3  N   UNL     1      11.694   8.541  21.289  0.00  0.00    -0.279 N 
ATOM      4  N   UNL     1      10.844  12.179  24.019  0.00  0.00    -0.302 NA
ATOM      6  C   UNL     1      10.688  10.073  22.755  0.00  0.00    +0.109 C 
ATOM      7  C   UNL     1      11.103   8.610  22.614  0.00  0.00    +0.133 C 
ATOM      8  C   UNL     1      11.058  10.720  24.090  0.00  0.00    +0.108 C 
ATOM      9  C   UNL     1      11.359  12.178  21.588  0.00  0.00    +0.125 C 
ATOM     10  C   UNL     1      11.675  12.783  22.957  0.00  0.00    +0.103 C 
ATOM     11  C   UNL     1      11.915   9.824  20.745  0.00  0.00    +0.305 C 
ATOM     13  C   UNL     1      11.138  12.800  25.311  0.00  0.00    +0.105 C 
ENDROOT
BRANCH   3  12
ATOM     12  C   UNL     1      12.128   7.290  20.706  0.00  0.00    +0.146 C 
BRANCH  12  14
ATOM      5  N   UNL     1      15.798   7.357  21.617  0.00  0.00    -0.263 NA
ATOM     14  C   UNL     1      13.621   7.221  20.572  0.00  0.00    -0.012 A 
ATOM     15  C   UNL     1      14.220   6.969  19.343  0.00  0.00    +0.008 A 
ATOM     16  C   UNL     1      14.448   7.406  21.669  0.00  0.00    +0.115 A 
ATOM     17  C   UNL     1      15.606   6.911  19.249  0.00  0.00    +0.020 A 
ATOM     18  C   UNL     1      16.342   7.110  20.405  0.00  0.00    +0.111 A 
ENDBRANCH  12  14
ENDBRANCH   3  12
TORSDOF 2
ENDMDL
MODEL 6
REMARK VINA RESULT:      -5.6      1.782      6.005
REMARK  Name = 75537066
REMARK  3 active torsions:
REMARK  status: ('A' for Active; 'I' for Inactive)
REMARK    1  A    between atoms: N_3  and  C_12
REMARK    2  A    between atoms: N_4  and  C_13
REMARK    3  A    between atoms: C_12  and  C_14
REMARK                            x       y       z     vdW  Elec       q    Type
REMARK                         _______ _______ _______ _____ _____    ______ ____
ROOT
ATOM      1  O   UNL     1      13.830  10.271  20.988  0.00  0.00    -0.252 OA
ATOM      2  N   UNL     1      15.090   8.289  20.987  0.00  0.00    -0.278 N 
ATOM      3  N   UNL     1      13.043   8.249  20.062  0.00  0.00    -0.279 N 
ATOM      4  N   UNL     1      17.317   6.594  20.704  0.00  0.00    -0.302 NA
ATOM      6  C   UNL     1      14.876   6.900  20.639  0.00  0.00    +0.109 C 
ATOM      7  C   UNL     1      13.592   6.927  19.811  0.00  0.00    +0.133 C 
ATOM      8  C   UNL     1      16.097   6.339  19.911  0.00  0.00    +0.108 C 
ATOM      9  C   UNL     1      16.325   8.674  21.636  0.00  0.00    +0.125 C 
ATOM     10  C   UNL     1      17.517   8.043  20.912  0.00  0.00    +0.103 C 
ATOM     11  C   UNL     1      13.969   9.086  20.718  0.00  0.00    +0.305 C 
ATOM     13  C   UNL     1      18.484   6.009  20.045  0.00  0.00    +0.105 C 
ENDROOT
BRANCH   3  12
ATOM     12  C   UNL     1      11.755   8.654  19.546  0.00  0.00    +0.146 C 
BRANCH  12  14
ATOM      5  N   UNL     1      13.035   9.847  16.193  0.00  0.00    -0.263 NA
ATOM     14  C   UNL     1      11.809   8.953  18.075  0.00  0.00    -0.012 A 
ATOM     15  C   UNL     1      10.742   8.639  17.241  0.00  0.00    +0.008 A 
ATOM     16  C   UNL     1      12.922   9.550  17.507  0.00  0.00    +0.115 A 
ATOM     17  C   UNL     1      10.820   8.928  15.883  0.00  0.00    +0.020 A 
ATOM     18  C   UNL     1      11.978   9.527  15.414  0.00  0.00    +0.111 A 
ENDBRANCH  12  14
ENDBRANCH   3  12
TORSDOF 2
ENDMDL
MODEL 7
REMARK VINA RESULT:      -5.5      3.945      5.739
REMARK  Name = 75537066
REMARK  3 active torsions:
REMARK  status: ('A' for Active; 'I' for Inactive)
REMARK    1  A    between atoms: N_3  and  C_12
REMARK    2  A    between atoms: N_4  and  C_13
REMARK    3  A    between atoms: C_12  and  C_14
REMARK                            x       y       z     vdW  Elec       q    Type
REMARK                         _______ _______ _______ _____ _____    ______ ____
ROOT
ATOM      1  O   UNL     1      13.644   8.003  22.162  0.00  0.00    -0.252 OA
ATOM      2  N   UNL     1      13.154   7.789  19.875  0.00  0.00    -0.278 N 
ATOM      3  N   UNL     1      11.519   8.473  21.255  0.00  0.00    -0.279 N 
ATOM      4  N   UNL     1      13.480   8.004  17.089  0.00  0.00    -0.302 NA
ATOM      6  C   UNL     1      11.978   7.865  19.034  0.00  0.00    +0.109 C 
ATOM      7  C   UNL     1      10.940   8.546  19.924  0.00  0.00    +0.133 C 
ATOM      8  C   UNL     1      12.298   8.608  17.737  0.00  0.00    +0.108 C 
ATOM      9  C   UNL     1      14.408   7.350  19.301  0.00  0.00    +0.125 C 
ATOM     10  C   UNL     1      14.659   8.074  17.976  0.00  0.00    +0.103 C 
ATOM     11  C   UNL     1      12.871   8.075  21.217  0.00  0.00    +0.305 C 
ATOM     13  C   UNL     1      13.759   8.668  15.817  0.00  0.00    +0.105 C 
ENDROOT
BRANCH   3  12
ATOM     12  C   UNL     1      10.799   8.915  22.429  0.00  0.00    +0.146 C 
BRANCH  12  14
ATOM      5  N   UNL     1      11.194  12.145  24.357  0.00  0.00    -0.263 NA
ATOM     14  C   UNL     1      11.046  10.366  22.725  0.00  0.00    -0.012 A 
ATOM     15  C   UNL     1      11.346  11.265  21.708  0.00  0.00    +0.008 A 
ATOM     16  C   UNL     1      10.983  10.852  24.021  0.00  0.00    +0.115 A 
ATOM     17  C   UNL     1      11.569  12.603  22.012  0.00  0.00    +0.020 A 
ATOM     18  C   UNL     1      11.482  12.988  23.340  0.00  0.00    +0.111 A 
ENDBRANCH  12  14
ENDBRANCH   3  12
TORSDOF 2
ENDMDL
MODEL 8
REMARK VINA RESULT:      -5.5      4.594      5.664
REMARK  Name = 75537066
REMARK  3 active torsions:
REMARK  status: ('A' for Active; 'I' for Inactive)
REMARK    1  A    between atoms: N_3  and  C_12
REMARK    2  A    between atoms: N_4  and  C_13
REMARK    3  A    between atoms: C_12  and  C_14
REMARK                            x       y       z     vdW  Elec       q    Type
REMARK                         _______ _______ _______ _____ _____    ______ ____
ROOT
ATOM      1  O   UNL     1      10.511   8.447  22.853  0.00  0.00    -0.252 OA
ATOM      2  N   UNL     1      11.345  10.641  22.966  0.00  0.00    -0.278 N 
ATOM      3  N   UNL     1      11.580   9.510  21.039  0.00  0.00    -0.279 N 
ATOM      4  N   UNL     1      11.430  13.389  23.559  0.00  0.00    -0.302 NA
ATOM      6  C   UNL     1      12.134  11.516  22.125  0.00  0.00    +0.109 C 
ATOM      7  C   UNL     1      12.089  10.841  20.756  0.00  0.00    +0.133 C 
ATOM      8  C   UNL     1      11.572  12.937  22.160  0.00  0.00    +0.108 C 
ATOM      9  C   UNL     1      11.019  11.057  24.314  0.00  0.00    +0.125 C 
ATOM     10  C   UNL     1      10.517  12.503  24.309  0.00  0.00    +0.103 C 
ATOM     11  C   UNL     1      11.077   9.409  22.353  0.00  0.00    +0.305 C 
ATOM     13  C   UNL     1      10.949  14.770  23.601  0.00  0.00    +0.105 C 
ENDROOT
BRANCH   3  12
ATOM     12  C   UNL     1      11.482   8.493  20.016  0.00  0.00    +0.146 C 
BRANCH  12  14
ATOM      5  N   UNL     1      14.722   6.576  20.382  0.00  0.00    -0.263 NA
ATOM     14  C   UNL     1      12.820   7.898  19.686  0.00  0.00    -0.012 A 
ATOM     15  C   UNL     1      13.402   8.091  18.438  0.00  0.00    +0.008 A 
ATOM     16  C   UNL     1      13.515   7.139  20.614  0.00  0.00    +0.115 A 
ATOM     17  C   UNL     1      14.643   7.528  18.160  0.00  0.00    +0.020 A 
ATOM     18  C   UNL     1      15.255   6.787  19.157  0.00  0.00    +0.111 A 
ENDBRANCH  12  14
ENDBRANCH   3  12
TORSDOF 2
ENDMDL
MODEL 9
REMARK VINA RESULT:      -5.4      1.626      2.080
REMARK  Name = 75537066
REMARK  3 active torsions:
REMARK  status: ('A' for Active; 'I' for Inactive)
REMARK    1  A    between atoms: N_3  and  C_12
REMARK    2  A    between atoms: N_4  and  C_13
REMARK    3  A    between atoms: C_12  and  C_14
REMARK                            x       y       z     vdW  Elec       q    Type
REMARK                         _______ _______ _______ _____ _____    ______ ____
ROOT
ATOM      1  O   UNL     1      12.830   7.096  21.306  0.00  0.00    -0.252 OA
ATOM      2  N   UNL     1      12.756   8.571  19.479  0.00  0.00    -0.278 N 
ATOM      3  N   UNL     1      14.712   8.299  20.548  0.00  0.00    -0.279 N 
ATOM      4  N   UNL     1      12.131   9.544  16.915  0.00  0.00    -0.302 NA
ATOM      6  C   UNL     1      13.647   9.525  18.853  0.00  0.00    +0.109 C 
ATOM      7  C   UNL     1      15.018   9.170  19.427  0.00  0.00    +0.133 C 
ATOM      8  C   UNL     1      13.544   9.432  17.332  0.00  0.00    +0.108 C 
ATOM      9  C   UNL     1      11.379   8.493  19.038  0.00  0.00    +0.125 C 
ATOM     10  C   UNL     1      11.320   8.462  17.509  0.00  0.00    +0.103 C 
ATOM     11  C   UNL     1      13.363   7.891  20.544  0.00  0.00    +0.305 C 
ATOM     13  C   UNL     1      12.027   9.516  15.456  0.00  0.00    +0.105 C 
ENDROOT
BRANCH   3  12
ATOM     12  C   UNL     1      15.739   7.814  21.445  0.00  0.00    +0.146 C 
BRANCH  12  14
ATOM      5  N   UNL     1      17.265   5.446  18.922  0.00  0.00    -0.263 NA
ATOM     14  C   UNL     1      16.751   6.964  20.733  0.00  0.00    -0.012 A 
ATOM     15  C   UNL     1      18.065   6.889  21.178  0.00  0.00    +0.008 A 
ATOM     16  C   UNL     1      16.405   6.230  19.609  0.00  0.00    +0.115 A 
ATOM     17  C   UNL     1      18.981   6.093  20.499  0.00  0.00    +0.020 A 
ATOM     18  C   UNL     1      18.534   5.398  19.387  0.00  0.00    +0.111 A 
ENDBRANCH  12  14
ENDBRANCH   3  12
TORSDOF 2
ENDMDL
MODEL 10
REMARK VINA RESULT:      -5.3     31.137     32.245
REMARK  Name = 75537066
REMARK  3 active torsions:
REMARK  status: ('A' for Active; 'I' for Inactive)
REMARK    1  A    between atoms: N_3  and  C_12
REMARK    2  A    between atoms: N_4  and  C_13
REMARK    3  A    between atoms: C_12  and  C_14
REMARK                            x       y       z     vdW  Elec       q    Type
REMARK                         _______ _______ _______ _____ _____    ______ ____
ROOT
ATOM      1  O   UNL     1     -16.164   5.707  30.934  0.00  0.00    -0.252 OA
ATOM      2  N   UNL     1     -14.736   3.866  30.636  0.00  0.00    -0.278 N 
ATOM      3  N   UNL     1     -14.584   5.032  32.550  0.00  0.00    -0.279 N 
ATOM      4  N   UNL     1     -13.915   1.266  29.945  0.00  0.00    -0.302 NA
ATOM      6  C   UNL     1     -13.612   3.276  31.332  0.00  0.00    +0.109 C 
ATOM      7  C   UNL     1     -13.666   3.919  32.717  0.00  0.00    +0.133 C 
ATOM      8  C   UNL     1     -13.722   1.752  31.326  0.00  0.00    +0.108 C 
ATOM      9  C   UNL     1     -15.107   3.359  29.332  0.00  0.00    +0.125 C 
ATOM     10  C   UNL     1     -15.147   1.829  29.356  0.00  0.00    +0.103 C 
ATOM     11  C   UNL     1     -15.272   4.965  31.321  0.00  0.00    +0.305 C 
ATOM     13  C   UNL     1     -13.962  -0.196  29.922  0.00  0.00    +0.105 C 
ENDROOT
BRANCH   3  12
ATOM     12  C   UNL     1     -14.839   5.981  33.611  0.00  0.00    +0.146 C 
BRANCH  12  14
ATOM      5  N   UNL     1     -12.325   8.453  34.981  0.00  0.00    -0.263 NA
ATOM     14  C   UNL     1     -13.796   7.061  33.660  0.00  0.00    -0.012 A 
ATOM     15  C   UNL     1     -13.334   7.664  32.496  0.00  0.00    +0.008 A 
ATOM     16  C   UNL     1     -13.264   7.487  34.866  0.00  0.00    +0.115 A 
ATOM     17  C   UNL     1     -12.368   8.662  32.572  0.00  0.00    +0.020 A 
ATOM     18  C   UNL     1     -11.901   9.016  33.827  0.00  0.00    +0.111 A 
ENDBRANCH  12  14
ENDBRANCH   3  12
TORSDOF 2
ENDMDL
