MODEL 1
REMARK VINA RESULT:      -7.2      0.000      0.000
REMARK  Name = 45360850
REMARK  9 active torsions:
REMARK  status: ('A' for Active; 'I' for Inactive)
REMARK    1  A    between atoms: N_4  and  C_15
REMARK    2  A    between atoms: N_5  and  C_17
REMARK    3  A    between atoms: N_7  and  C_26
REMARK    4  A    between atoms: C_12  and  C_16
REMARK    5  A    between atoms: C_15  and  C_19
REMARK    6  A    between atoms: C_16  and  C_18
REMARK    7  A    between atoms: C_18  and  C_20
REMARK    8  A    between atoms: C_25  and  C_27
REMARK    9  A    between atoms: C_26  and  C_28
REMARK                            x       y       z     vdW  Elec       q    Type
REMARK                         _______ _______ _______ _____ _____    ______ ____
ROOT
ATOM      1  O   UNL     1     -13.238   4.717  23.058  0.00  0.00    -0.274 OA
ATOM      4  N   UNL     1     -14.791   6.557  21.834  0.00  0.00    -0.286 NA
ATOM      5  N   UNL     1     -16.955   3.719  22.637  0.00  0.00    -0.296 NA
ATOM      6  N   UNL     1     -14.838   4.074  24.563  0.00  0.00    -0.312 N 
ATOM      8  C   UNL     1     -16.698   5.147  22.348  0.00  0.00    +0.084 C 
ATOM      9  C   UNL     1     -15.414   5.802  22.937  0.00  0.00    +0.161 C 
ATOM     10  C   UNL     1     -16.561   5.466  20.848  0.00  0.00    +0.036 C 
ATOM     11  C   UNL     1     -15.827   6.791  20.835  0.00  0.00    +0.087 C 
ATOM     12  C   UNL     1     -17.174   3.411  24.078  0.00  0.00    +0.074 C 
ATOM     13  C   UNL     1     -14.385   4.821  23.493  0.00  0.00    +0.232 C 
ATOM     14  C   UNL     1     -16.203   4.115  25.046  0.00  0.00    +0.123 C 
ATOM     17  C   UNL     1     -18.081   3.217  21.831  0.00  0.00    +0.105 C 
ATOM     32  H   UNL     1     -14.194   3.417  24.995  0.00  0.00    +0.149 HD
ENDROOT
BRANCH   4  15
ATOM     15  C   UNL     1     -14.158   7.797  22.268  0.00  0.00    +0.120 C 
BRANCH  15  19
ATOM     19  C   UNL     1     -13.062   8.225  21.330  0.00  0.00    -0.033 A 
ATOM     21  C   UNL     1     -12.931   9.568  20.977  0.00  0.00    +0.005 A 
ATOM     22  C   UNL     1     -12.178   7.279  20.811  0.00  0.00    +0.005 A 
ATOM     23  C   UNL     1     -11.917   9.965  20.105  0.00  0.00    +0.003 A 
ATOM     24  C   UNL     1     -11.164   7.676  19.939  0.00  0.00    +0.003 A 
ATOM     25  C   UNL     1     -11.034   9.019  19.586  0.00  0.00    -0.050 A 
ATOM     27  C   UNL     1      -9.950   9.443  18.654  0.00  0.00    +0.044 C 
ENDBRANCH  15  19
ENDBRANCH   4  15
BRANCH  12  16
ATOM     16  C   UNL     1     -17.061   1.893  24.329  0.00  0.00    +0.029 C 
BRANCH  16  18
ATOM     18  C   UNL     1     -18.324   1.360  24.980  0.00  0.00    +0.097 C 
BRANCH  18  20
ATOM      2  O   UNL     1     -18.593  -0.376  26.646  0.00  0.00    -0.276 OA
ATOM      7  N   UNL     1     -17.039   1.308  27.012  0.00  0.00    -0.308 N 
ATOM     20  C   UNL     1     -18.023   0.651  26.288  0.00  0.00    +0.213 C 
ATOM     33  H   UNL     1     -16.625   2.153  26.625  0.00  0.00    +0.149 HD
BRANCH   7  26
ATOM     26  C   UNL     1     -16.576   0.831  28.293  0.00  0.00    +0.178 C 
BRANCH  26  28
ATOM      3  O   UNL     1     -14.729   1.348  29.793  0.00  0.00    -0.466 OA
ATOM     28  C   UNL     1     -15.704   1.845  28.986  0.00  0.00    +0.122 A 
ATOM     29  C   UNL     1     -15.674   3.220  28.983  0.00  0.00    +0.046 A 
ATOM     30  C   UNL     1     -14.614   3.592  29.842  0.00  0.00    +0.041 A 
ATOM     31  C   UNL     1     -14.070   2.418  30.310  0.00  0.00    +0.195 A 
ENDBRANCH  26  28
ENDBRANCH   7  26
ENDBRANCH  18  20
ENDBRANCH  16  18
ENDBRANCH  12  16
TORSDOF 7
ENDMDL
MODEL 2
REMARK VINA RESULT:      -7.0     29.975     34.358
REMARK  Name = 45360850
REMARK  9 active torsions:
REMARK  status: ('A' for Active; 'I' for Inactive)
REMARK    1  A    between atoms: N_4  and  C_15
REMARK    2  A    between atoms: N_5  and  C_17
REMARK    3  A    between atoms: N_7  and  C_26
REMARK    4  A    between atoms: C_12  and  C_16
REMARK    5  A    between atoms: C_15  and  C_19
REMARK    6  A    between atoms: C_16  and  C_18
REMARK    7  A    between atoms: C_18  and  C_20
REMARK    8  A    between atoms: C_25  and  C_27
REMARK    9  A    between atoms: C_26  and  C_28
REMARK                            x       y       z     vdW  Elec       q    Type
REMARK                         _______ _______ _______ _____ _____    ______ ____
ROOT
ATOM      1  O   UNL     1      20.102   6.266  23.883  0.00  0.00    -0.274 OA
ATOM      4  N   UNL     1      21.115   5.311  21.569  0.00  0.00    -0.286 NA
ATOM      5  N   UNL     1      17.920   6.893  20.747  0.00  0.00    -0.296 NA
ATOM      6  N   UNL     1      19.255   8.180  22.956  0.00  0.00    -0.312 N 
ATOM      8  C   UNL     1      19.284   6.418  20.424  0.00  0.00    +0.084 C 
ATOM      9  C   UNL     1      20.403   6.600  21.490  0.00  0.00    +0.161 C 
ATOM     10  C   UNL     1      19.366   4.909  20.128  0.00  0.00    +0.036 C 
ATOM     11  C   UNL     1      20.832   4.588  20.334  0.00  0.00    +0.087 C 
ATOM     12  C   UNL     1      17.812   8.365  20.952  0.00  0.00    +0.074 C 
ATOM     13  C   UNL     1      19.910   6.966  22.888  0.00  0.00    +0.232 C 
ATOM     14  C   UNL     1      18.944   8.986  21.794  0.00  0.00    +0.123 C 
ATOM     17  C   UNL     1      16.956   6.448  19.726  0.00  0.00    +0.105 C 
ATOM     32  H   UNL     1      18.922   8.494  23.863  0.00  0.00    +0.149 HD
ENDROOT
BRANCH   4  15
ATOM     15  C   UNL     1      22.547   5.454  21.804  0.00  0.00    +0.120 C 
BRANCH  15  19
ATOM     19  C   UNL     1      23.247   4.122  21.831  0.00  0.00    -0.033 A 
ATOM     21  C   UNL     1      22.968   3.208  22.847  0.00  0.00    +0.005 A 
ATOM     22  C   UNL     1      24.177   3.803  20.841  0.00  0.00    +0.005 A 
ATOM     23  C   UNL     1      23.620   1.975  22.873  0.00  0.00    +0.003 A 
ATOM     24  C   UNL     1      24.829   2.570  20.868  0.00  0.00    +0.003 A 
ATOM     25  C   UNL     1      24.550   1.656  21.884  0.00  0.00    -0.050 A 
ATOM     27  C   UNL     1      25.246   0.338  21.913  0.00  0.00    +0.044 C 
ENDBRANCH  15  19
ENDBRANCH   4  15
BRANCH  12  16
ATOM     16  C   UNL     1      16.476   8.717  21.637  0.00  0.00    +0.029 C 
BRANCH  16  18
ATOM     18  C   UNL     1      15.990  10.085  21.195  0.00  0.00    +0.097 C 
BRANCH  18  20
ATOM      2  O   UNL     1      13.725  10.904  20.947  0.00  0.00    -0.276 OA
ATOM      7  N   UNL     1      14.319   8.903  19.933  0.00  0.00    -0.308 N 
ATOM     20  C   UNL     1      14.557  10.037  20.696  0.00  0.00    +0.213 C 
ATOM     33  H   UNL     1      15.079   8.244  19.780  0.00  0.00    +0.149 HD
BRANCH   7  26
ATOM     26  C   UNL     1      13.031   8.626  19.344  0.00  0.00    +0.178 C 
BRANCH  26  28
ATOM      3  O   UNL     1      12.351   6.623  20.550  0.00  0.00    -0.466 OA
ATOM     28  C   UNL     1      12.106   7.939  20.315  0.00  0.00    +0.122 A 
ATOM     29  C   UNL     1      11.024   8.368  21.047  0.00  0.00    +0.046 A 
ATOM     30  C   UNL     1      10.574   7.245  21.780  0.00  0.00    +0.041 A 
ATOM     31  C   UNL     1      11.414   6.208  21.443  0.00  0.00    +0.195 A 
ENDBRANCH  26  28
ENDBRANCH   7  26
ENDBRANCH  18  20
ENDBRANCH  16  18
ENDBRANCH  12  16
TORSDOF 7
ENDMDL
MODEL 3
REMARK VINA RESULT:      -6.9     27.755     32.207
REMARK  Name = 45360850
REMARK  9 active torsions:
REMARK  status: ('A' for Active; 'I' for Inactive)
REMARK    1  A    between atoms: N_4  and  C_15
REMARK    2  A    between atoms: N_5  and  C_17
REMARK    3  A    between atoms: N_7  and  C_26
REMARK    4  A    between atoms: C_12  and  C_16
REMARK    5  A    between atoms: C_15  and  C_19
REMARK    6  A    between atoms: C_16  and  C_18
REMARK    7  A    between atoms: C_18  and  C_20
REMARK    8  A    between atoms: C_25  and  C_27
REMARK    9  A    between atoms: C_26  and  C_28
REMARK                            x       y       z     vdW  Elec       q    Type
REMARK                         _______ _______ _______ _____ _____    ______ ____
ROOT
ATOM      1  O   UNL     1      18.293   6.223  19.750  0.00  0.00    -0.274 OA
ATOM      4  N   UNL     1      18.993   8.170  21.485  0.00  0.00    -0.286 NA
ATOM      5  N   UNL     1      15.748   9.120  20.088  0.00  0.00    -0.296 NA
ATOM      6  N   UNL     1      16.070   6.261  20.292  0.00  0.00    -0.312 N 
ATOM      8  C   UNL     1      16.796   9.139  21.132  0.00  0.00    +0.084 C 
ATOM      9  C   UNL     1      17.562   7.818  21.437  0.00  0.00    +0.161 C 
ATOM     10  C   UNL     1      17.949  10.118  20.842  0.00  0.00    +0.036 C 
ATOM     11  C   UNL     1      19.074   9.608  21.719  0.00  0.00    +0.087 C 
ATOM     12  C   UNL     1      14.586   8.241  20.397  0.00  0.00    +0.074 C 
ATOM     13  C   UNL     1      17.372   6.709  20.406  0.00  0.00    +0.232 C 
ATOM     14  C   UNL     1      14.953   6.865  20.988  0.00  0.00    +0.123 C 
ATOM     17  C   UNL     1      15.288  10.486  19.784  0.00  0.00    +0.105 C 
ATOM     32  H   UNL     1      15.879   5.507  19.639  0.00  0.00    +0.149 HD
ENDROOT
BRANCH   4  15
ATOM     15  C   UNL     1      19.742   7.410  22.479  0.00  0.00    +0.120 C 
BRANCH  15  19
ATOM     19  C   UNL     1      20.882   6.647  21.859  0.00  0.00    -0.033 A 
ATOM     21  C   UNL     1      21.771   7.295  21.002  0.00  0.00    +0.005 A 
ATOM     22  C   UNL     1      21.046   5.290  22.140  0.00  0.00    +0.005 A 
ATOM     23  C   UNL     1      22.825   6.586  20.426  0.00  0.00    +0.003 A 
ATOM     24  C   UNL     1      22.101   4.582  21.563  0.00  0.00    +0.003 A 
ATOM     25  C   UNL     1      22.990   5.230  20.706  0.00  0.00    -0.050 A 
ATOM     27  C   UNL     1      24.116   4.472  20.089  0.00  0.00    +0.044 C 
ENDBRANCH  15  19
ENDBRANCH   4  15
BRANCH  12  16
ATOM     16  C   UNL     1      13.745   7.991  19.128  0.00  0.00    +0.029 C 
BRANCH  16  18
ATOM     18  C   UNL     1      12.557   7.099  19.437  0.00  0.00    +0.097 C 
BRANCH  18  20
ATOM      2  O   UNL     1      10.550   8.453  19.410  0.00  0.00    -0.276 OA
ATOM      7  N   UNL     1      11.488   7.866  21.450  0.00  0.00    -0.308 N 
ATOM     20  C   UNL     1      11.418   7.882  20.065  0.00  0.00    +0.213 C 
ATOM     33  H   UNL     1      12.247   7.359  21.898  0.00  0.00    +0.149 HD
BRANCH   7  26
ATOM     26  C   UNL     1      10.517   8.540  22.279  0.00  0.00    +0.178 C 
BRANCH  26  28
ATOM      3  O   UNL     1      10.918  10.328  23.883  0.00  0.00    -0.466 OA
ATOM     28  C   UNL     1      10.922   9.961  22.574  0.00  0.00    +0.122 A 
ATOM     29  C   UNL     1      11.311  11.013  21.778  0.00  0.00    +0.046 A 
ATOM     30  C   UNL     1      11.563  12.095  22.652  0.00  0.00    +0.041 A 
ATOM     31  C   UNL     1      11.309  11.629  23.921  0.00  0.00    +0.195 A 
ENDBRANCH  26  28
ENDBRANCH   7  26
ENDBRANCH  18  20
ENDBRANCH  16  18
ENDBRANCH  12  16
TORSDOF 7
ENDMDL
MODEL 4
REMARK VINA RESULT:      -6.7     18.460     20.728
REMARK  Name = 45360850
REMARK  9 active torsions:
REMARK  status: ('A' for Active; 'I' for Inactive)
REMARK    1  A    between atoms: N_4  and  C_15
REMARK    2  A    between atoms: N_5  and  C_17
REMARK    3  A    between atoms: N_7  and  C_26
REMARK    4  A    between atoms: C_12  and  C_16
REMARK    5  A    between atoms: C_15  and  C_19
REMARK    6  A    between atoms: C_16  and  C_18
REMARK    7  A    between atoms: C_18  and  C_20
REMARK    8  A    between atoms: C_25  and  C_27
REMARK    9  A    between atoms: C_26  and  C_28
REMARK                            x       y       z     vdW  Elec       q    Type
REMARK                         _______ _______ _______ _____ _____    ______ ____
ROOT
ATOM      1  O   UNL     1      -7.728  -9.221  15.791  0.00  0.00    -0.274 OA
ATOM      4  N   UNL     1      -8.960 -10.903  17.507  0.00  0.00    -0.286 NA
ATOM      5  N   UNL     1      -5.849 -12.534  16.484  0.00  0.00    -0.296 NA
ATOM      6  N   UNL     1      -5.617  -9.660  16.560  0.00  0.00    -0.312 N 
ATOM      8  C   UNL     1      -6.974 -12.295  17.414  0.00  0.00    +0.084 C 
ATOM      9  C   UNL     1      -7.489 -10.838  17.595  0.00  0.00    +0.161 C 
ATOM     10  C   UNL     1      -8.265 -13.047  17.039  0.00  0.00    +0.036 C 
ATOM     11  C   UNL     1      -9.345 -12.284  17.778  0.00  0.00    +0.087 C 
ATOM     12  C   UNL     1      -4.570 -11.881  16.882  0.00  0.00    +0.074 C 
ATOM     13  C   UNL     1      -6.987  -9.841  16.554  0.00  0.00    +0.232 C 
ATOM     14  C   UNL     1      -4.713 -10.432  17.387  0.00  0.00    +0.123 C 
ATOM     17  C   UNL     1      -5.641 -13.977  16.273  0.00  0.00    +0.105 C 
ATOM     32  H   UNL     1      -5.220  -8.992  15.906  0.00  0.00    +0.149 HD
ENDROOT
BRANCH   4  15
ATOM     15  C   UNL     1      -9.634  -9.962  18.394  0.00  0.00    +0.120 C 
BRANCH  15  19
ATOM     19  C   UNL     1     -10.571  -9.056  17.641  0.00  0.00    -0.033 A 
ATOM     21  C   UNL     1     -10.184  -7.752  17.334  0.00  0.00    +0.005 A 
ATOM     22  C   UNL     1     -11.829  -9.520  17.253  0.00  0.00    +0.005 A 
ATOM     23  C   UNL     1     -11.054  -6.911  16.639  0.00  0.00    +0.003 A 
ATOM     24  C   UNL     1     -12.699  -8.679  16.559  0.00  0.00    +0.003 A 
ATOM     25  C   UNL     1     -12.311  -7.375  16.252  0.00  0.00    -0.050 A 
ATOM     27  C   UNL     1     -13.241  -6.476  15.510  0.00  0.00    +0.044 C 
ENDBRANCH  15  19
ENDBRANCH   4  15
BRANCH  12  16
ATOM     16  C   UNL     1      -3.581 -11.866  15.698  0.00  0.00    +0.029 C 
BRANCH  16  18
ATOM     18  C   UNL     1      -2.444 -10.896  15.961  0.00  0.00    +0.097 C 
BRANCH  18  20
ATOM      2  O   UNL     1      -0.975  -9.510  14.626  0.00  0.00    -0.276 OA
ATOM      7  N   UNL     1      -2.347 -11.051  13.563  0.00  0.00    -0.308 N 
ATOM     20  C   UNL     1      -1.827 -10.393  14.668  0.00  0.00    +0.213 C 
ATOM     33  H   UNL     1      -3.049 -11.773  13.705  0.00  0.00    +0.149 HD
BRANCH   7  26
ATOM     26  C   UNL     1      -1.920 -10.751  12.217  0.00  0.00    +0.178 C 
BRANCH  26  28
ATOM      3  O   UNL     1      -4.250 -10.100  11.935  0.00  0.00    -0.466 OA
ATOM     28  C   UNL     1      -2.985 -10.022  11.441  0.00  0.00    +0.122 A 
ATOM     29  C   UNL     1      -2.960  -9.262  10.295  0.00  0.00    +0.046 A 
ATOM     30  C   UNL     1      -4.293  -8.846  10.070  0.00  0.00    +0.041 A 
ATOM     31  C   UNL     1      -5.039  -9.381  11.094  0.00  0.00    +0.195 A 
ENDBRANCH  26  28
ENDBRANCH   7  26
ENDBRANCH  18  20
ENDBRANCH  16  18
ENDBRANCH  12  16
TORSDOF 7
ENDMDL
MODEL 5
REMARK VINA RESULT:      -6.6     17.747     19.739
REMARK  Name = 45360850
REMARK  9 active torsions:
REMARK  status: ('A' for Active; 'I' for Inactive)
REMARK    1  A    between atoms: N_4  and  C_15
REMARK    2  A    between atoms: N_5  and  C_17
REMARK    3  A    between atoms: N_7  and  C_26
REMARK    4  A    between atoms: C_12  and  C_16
REMARK    5  A    between atoms: C_15  and  C_19
REMARK    6  A    between atoms: C_16  and  C_18
REMARK    7  A    between atoms: C_18  and  C_20
REMARK    8  A    between atoms: C_25  and  C_27
REMARK    9  A    between atoms: C_26  and  C_28
REMARK                            x       y       z     vdW  Elec       q    Type
REMARK                         _______ _______ _______ _____ _____    ______ ____
ROOT
ATOM      1  O   UNL     1      -7.906  -8.888  16.988  0.00  0.00    -0.274 OA
ATOM      4  N   UNL     1     -10.202 -10.236  17.433  0.00  0.00    -0.286 NA
ATOM      5  N   UNL     1      -7.476 -12.645  17.816  0.00  0.00    -0.296 NA
ATOM      6  N   UNL     1      -6.715  -9.978  18.610  0.00  0.00    -0.312 N 
ATOM      8  C   UNL     1      -8.844 -12.144  18.070  0.00  0.00    +0.084 C 
ATOM      9  C   UNL     1      -9.048 -10.613  18.269  0.00  0.00    +0.161 C 
ATOM     10  C   UNL     1      -9.843 -12.456  16.940  0.00  0.00    +0.036 C 
ATOM     11  C   UNL     1     -10.958 -11.456  17.169  0.00  0.00    +0.087 C 
ATOM     12  C   UNL     1      -6.520 -12.425  18.939  0.00  0.00    +0.074 C 
ATOM     13  C   UNL     1      -7.857  -9.746  17.868  0.00  0.00    +0.232 C 
ATOM     14  C   UNL     1      -6.602 -11.033  19.596  0.00  0.00    +0.123 C 
ATOM     17  C   UNL     1      -7.501 -14.068  17.440  0.00  0.00    +0.105 C 
ATOM     32  H   UNL     1      -5.892  -9.417  18.409  0.00  0.00    +0.149 HD
ENDROOT
BRANCH   4  15
ATOM     15  C   UNL     1     -11.032  -9.196  18.029  0.00  0.00    +0.120 C 
BRANCH  15  19
ATOM     19  C   UNL     1     -11.460  -8.170  17.014  0.00  0.00    -0.033 A 
ATOM     21  C   UNL     1     -12.666  -8.327  16.330  0.00  0.00    +0.005 A 
ATOM     22  C   UNL     1     -10.650  -7.064  16.755  0.00  0.00    +0.005 A 
ATOM     23  C   UNL     1     -13.061  -7.378  15.387  0.00  0.00    +0.003 A 
ATOM     24  C   UNL     1     -11.046  -6.115  15.812  0.00  0.00    +0.003 A 
ATOM     25  C   UNL     1     -12.251  -6.272  15.128  0.00  0.00    -0.050 A 
ATOM     27  C   UNL     1     -12.674  -5.258  14.120  0.00  0.00    +0.044 C 
ENDBRANCH  15  19
ENDBRANCH   4  15
BRANCH  12  16
ATOM     16  C   UNL     1      -5.068 -12.627  18.459  0.00  0.00    +0.029 C 
BRANCH  16  18
ATOM     18  C   UNL     1      -4.989 -12.564  16.945  0.00  0.00    +0.097 C 
BRANCH  18  20
ATOM      2  O   UNL     1      -4.255 -10.257  16.879  0.00  0.00    -0.276 OA
ATOM      7  N   UNL     1      -3.172 -11.825  15.554  0.00  0.00    -0.308 N 
ATOM     20  C   UNL     1      -4.120 -11.410  16.478  0.00  0.00    +0.213 C 
ATOM     33  H   UNL     1      -3.139 -12.806  15.289  0.00  0.00    +0.149 HD
BRANCH   7  26
ATOM     26  C   UNL     1      -2.224 -10.913  14.958  0.00  0.00    +0.178 C 
BRANCH  26  28
ATOM      3  O   UNL     1      -3.882 -10.426  13.243  0.00  0.00    -0.466 OA
ATOM     28  C   UNL     1      -2.565 -10.609  13.523  0.00  0.00    +0.122 A 
ATOM     29  C   UNL     1      -1.805 -10.470  12.385  0.00  0.00    +0.046 A 
ATOM     30  C   UNL     1      -2.712 -10.183  11.339  0.00  0.00    +0.041 A 
ATOM     31  C   UNL     1      -3.963 -10.167  11.911  0.00  0.00    +0.195 A 
ENDBRANCH  26  28
ENDBRANCH   7  26
ENDBRANCH  18  20
ENDBRANCH  16  18
ENDBRANCH  12  16
TORSDOF 7
ENDMDL
MODEL 6
REMARK VINA RESULT:      -6.6     19.432     20.570
REMARK  Name = 45360850
REMARK  9 active torsions:
REMARK  status: ('A' for Active; 'I' for Inactive)
REMARK    1  A    between atoms: N_4  and  C_15
REMARK    2  A    between atoms: N_5  and  C_17
REMARK    3  A    between atoms: N_7  and  C_26
REMARK    4  A    between atoms: C_12  and  C_16
REMARK    5  A    between atoms: C_15  and  C_19
REMARK    6  A    between atoms: C_16  and  C_18
REMARK    7  A    between atoms: C_18  and  C_20
REMARK    8  A    between atoms: C_25  and  C_27
REMARK    9  A    between atoms: C_26  and  C_28
REMARK                            x       y       z     vdW  Elec       q    Type
REMARK                         _______ _______ _______ _____ _____    ______ ____
ROOT
ATOM      1  O   UNL     1      -5.904  -9.490  13.346  0.00  0.00    -0.274 OA
ATOM      4  N   UNL     1      -3.834 -10.615  12.026  0.00  0.00    -0.286 NA
ATOM      5  N   UNL     1      -3.037 -10.802  15.592  0.00  0.00    -0.296 NA
ATOM      6  N   UNL     1      -5.870 -10.982  15.082  0.00  0.00    -0.312 N 
ATOM      8  C   UNL     1      -2.931 -11.253  14.187  0.00  0.00    +0.084 C 
ATOM      9  C   UNL     1      -4.214 -11.242  13.306  0.00  0.00    +0.161 C 
ATOM     10  C   UNL     1      -1.952 -10.421  13.337  0.00  0.00    +0.036 C 
ATOM     11  C   UNL     1      -2.383 -10.714  11.915  0.00  0.00    +0.087 C 
ATOM     12  C   UNL     1      -3.915 -11.651  16.447  0.00  0.00    +0.074 C 
ATOM     13  C   UNL     1      -5.393 -10.467  13.892  0.00  0.00    +0.232 C 
ATOM     14  C   UNL     1      -5.241 -12.079  15.788  0.00  0.00    +0.123 C 
ATOM     17  C   UNL     1      -1.703 -10.673  16.202  0.00  0.00    +0.105 C 
ATOM     32  H   UNL     1      -6.669 -10.526  15.513  0.00  0.00    +0.149 HD
ENDROOT
BRANCH   4  15
ATOM     15  C   UNL     1      -4.513 -11.196  10.874  0.00  0.00    +0.120 C 
BRANCH  15  19
ATOM     19  C   UNL     1      -5.396 -10.195  10.179  0.00  0.00    -0.033 A 
ATOM     21  C   UNL     1      -6.653 -10.578   9.714  0.00  0.00    +0.005 A 
ATOM     22  C   UNL     1      -4.955  -8.883   9.999  0.00  0.00    +0.005 A 
ATOM     23  C   UNL     1      -7.470  -9.650   9.067  0.00  0.00    +0.003 A 
ATOM     24  C   UNL     1      -5.772  -7.956   9.351  0.00  0.00    +0.003 A 
ATOM     25  C   UNL     1      -7.029  -8.340   8.886  0.00  0.00    -0.050 A 
ATOM     27  C   UNL     1      -7.902  -7.349   8.194  0.00  0.00    +0.044 C 
ENDBRANCH  15  19
ENDBRANCH   4  15
BRANCH  12  16
ATOM     16  C   UNL     1      -4.263 -10.917  17.759  0.00  0.00    +0.029 C 
BRANCH  16  18
ATOM     18  C   UNL     1      -4.594 -11.910  18.857  0.00  0.00    +0.097 C 
BRANCH  18  20
ATOM      2  O   UNL     1      -5.909 -11.285  20.792  0.00  0.00    -0.276 OA
ATOM      7  N   UNL     1      -6.961 -11.502  18.734  0.00  0.00    -0.308 N 
ATOM     20  C   UNL     1      -5.869 -11.531  19.589  0.00  0.00    +0.213 C 
ATOM     33  H   UNL     1      -6.821 -11.718  17.750  0.00  0.00    +0.149 HD
BRANCH   7  26
ATOM     26  C   UNL     1      -8.289 -11.168  19.190  0.00  0.00    +0.178 C 
BRANCH  26  28
ATOM      3  O   UNL     1     -10.230  -9.834  18.571  0.00  0.00    -0.466 OA
ATOM     28  C   UNL     1      -8.909 -10.075  18.359  0.00  0.00    +0.122 A 
ATOM     29  C   UNL     1      -8.412  -9.231  17.393  0.00  0.00    +0.046 A 
ATOM     30  C   UNL     1      -9.496  -8.420  16.985  0.00  0.00    +0.041 A 
ATOM     31  C   UNL     1     -10.579  -8.825  17.730  0.00  0.00    +0.195 A 
ENDBRANCH  26  28
ENDBRANCH   7  26
ENDBRANCH  18  20
ENDBRANCH  16  18
ENDBRANCH  12  16
TORSDOF 7
ENDMDL
MODEL 7
REMARK VINA RESULT:      -6.5     20.735     22.001
REMARK  Name = 45360850
REMARK  9 active torsions:
REMARK  status: ('A' for Active; 'I' for Inactive)
REMARK    1  A    between atoms: N_4  and  C_15
REMARK    2  A    between atoms: N_5  and  C_17
REMARK    3  A    between atoms: N_7  and  C_26
REMARK    4  A    between atoms: C_12  and  C_16
REMARK    5  A    between atoms: C_15  and  C_19
REMARK    6  A    between atoms: C_16  and  C_18
REMARK    7  A    between atoms: C_18  and  C_20
REMARK    8  A    between atoms: C_25  and  C_27
REMARK    9  A    between atoms: C_26  and  C_28
REMARK                            x       y       z     vdW  Elec       q    Type
REMARK                         _______ _______ _______ _____ _____    ______ ____
ROOT
ATOM      1  O   UNL     1      -5.678  -9.569   7.352  0.00  0.00    -0.274 OA
ATOM      4  N   UNL     1      -7.677  -8.310   8.661  0.00  0.00    -0.286 NA
ATOM      5  N   UNL     1      -5.841 -10.251  11.160  0.00  0.00    -0.296 NA
ATOM      6  N   UNL     1      -4.143  -9.304   9.029  0.00  0.00    -0.312 N 
ATOM      8  C   UNL     1      -6.712  -9.135  10.729  0.00  0.00    +0.084 C 
ATOM      9  C   UNL     1      -6.395  -8.427   9.379  0.00  0.00    +0.161 C 
ATOM     10  C   UNL     1      -8.189  -9.531  10.544  0.00  0.00    +0.036 C 
ATOM     11  C   UNL     1      -8.738  -8.435   9.654  0.00  0.00    +0.087 C 
ATOM     12  C   UNL     1      -4.427  -9.863  11.425  0.00  0.00    +0.074 C 
ATOM     13  C   UNL     1      -5.403  -9.162   8.481  0.00  0.00    +0.232 C 
ATOM     14  C   UNL     1      -3.810  -8.910  10.382  0.00  0.00    +0.123 C 
ATOM     17  C   UNL     1      -6.410 -10.936  12.333  0.00  0.00    +0.105 C 
ATOM     32  H   UNL     1      -3.429  -9.765   8.472  0.00  0.00    +0.149 HD
ENDROOT
BRANCH   4  15
ATOM     15  C   UNL     1      -7.795  -7.080   7.885  0.00  0.00    +0.120 C 
BRANCH  15  19
ATOM     19  C   UNL     1      -8.567  -7.293   6.611  0.00  0.00    -0.033 A 
ATOM     21  C   UNL     1      -7.954  -7.905   5.518  0.00  0.00    +0.005 A 
ATOM     22  C   UNL     1      -9.896  -6.876   6.523  0.00  0.00    +0.005 A 
ATOM     23  C   UNL     1      -8.669  -8.099   4.336  0.00  0.00    +0.003 A 
ATOM     24  C   UNL     1     -10.610  -7.070   5.340  0.00  0.00    +0.003 A 
ATOM     25  C   UNL     1      -9.997  -7.681   4.247  0.00  0.00    -0.050 A 
ATOM     27  C   UNL     1     -10.760  -7.889   2.983  0.00  0.00    +0.044 C 
ENDBRANCH  15  19
ENDBRANCH   4  15
BRANCH  12  16
ATOM     16  C   UNL     1      -3.529 -11.115  11.498  0.00  0.00    +0.029 C 
BRANCH  16  18
ATOM     18  C   UNL     1      -2.204 -10.787  12.162  0.00  0.00    +0.097 C 
BRANCH  18  20
ATOM      2  O   UNL     1      -1.749 -12.470  13.842  0.00  0.00    -0.276 OA
ATOM      7  N   UNL     1      -2.559 -10.400  14.509  0.00  0.00    -0.308 N 
ATOM     20  C   UNL     1      -2.135 -11.335  13.576  0.00  0.00    +0.213 C 
ATOM     33  H   UNL     1      -2.856  -9.483  14.185  0.00  0.00    +0.149 HD
BRANCH   7  26
ATOM     26  C   UNL     1      -2.587 -10.681  15.924  0.00  0.00    +0.178 C 
BRANCH  26  28
ATOM      3  O   UNL     1      -4.903  -9.963  15.696  0.00  0.00    -0.466 OA
ATOM     28  C   UNL     1      -3.977 -10.563  16.491  0.00  0.00    +0.122 A 
ATOM     29  C   UNL     1      -4.541 -10.946  17.686  0.00  0.00    +0.046 A 
ATOM     30  C   UNL     1      -5.900 -10.556  17.622  0.00  0.00    +0.041 A 
ATOM     31  C   UNL     1      -6.070  -9.963  16.392  0.00  0.00    +0.195 A 
ENDBRANCH  26  28
ENDBRANCH   7  26
ENDBRANCH  18  20
ENDBRANCH  16  18
ENDBRANCH  12  16
TORSDOF 7
ENDMDL
MODEL 8
REMARK VINA RESULT:      -6.3     29.305     34.935
REMARK  Name = 45360850
REMARK  9 active torsions:
REMARK  status: ('A' for Active; 'I' for Inactive)
REMARK    1  A    between atoms: N_4  and  C_15
REMARK    2  A    between atoms: N_5  and  C_17
REMARK    3  A    between atoms: N_7  and  C_26
REMARK    4  A    between atoms: C_12  and  C_16
REMARK    5  A    between atoms: C_15  and  C_19
REMARK    6  A    between atoms: C_16  and  C_18
REMARK    7  A    between atoms: C_18  and  C_20
REMARK    8  A    between atoms: C_25  and  C_27
REMARK    9  A    between atoms: C_26  and  C_28
REMARK                            x       y       z     vdW  Elec       q    Type
REMARK                         _______ _______ _______ _____ _____    ______ ____
ROOT
ATOM      1  O   UNL     1      10.259   4.909  -1.354  0.00  0.00    -0.274 OA
ATOM      4  N   UNL     1      12.663   3.689  -1.517  0.00  0.00    -0.286 NA
ATOM      5  N   UNL     1      12.743   5.775   1.487  0.00  0.00    -0.296 NA
ATOM      6  N   UNL     1      10.106   4.748   0.924  0.00  0.00    -0.312 N 
ATOM      8  C   UNL     1      13.178   4.627   0.660  0.00  0.00    +0.084 C 
ATOM      9  C   UNL     1      12.104   3.858  -0.163  0.00  0.00    +0.161 C 
ATOM     10  C   UNL     1      14.210   4.993  -0.422  0.00  0.00    +0.036 C 
ATOM     11  C   UNL     1      14.109   3.849  -1.408  0.00  0.00    +0.087 C 
ATOM     12  C   UNL     1      11.809   5.419   2.593  0.00  0.00    +0.074 C 
ATOM     13  C   UNL     1      10.754   4.562  -0.282  0.00  0.00    +0.232 C 
ATOM     14  C   UNL     1      10.696   4.424   2.206  0.00  0.00    +0.123 C 
ATOM     17  C   UNL     1      13.904   6.508   2.017  0.00  0.00    +0.105 C 
ATOM     32  H   UNL     1       9.192   5.190   0.912  0.00  0.00    +0.149 HD
ENDROOT
BRANCH   4  15
ATOM     15  C   UNL     1      12.297   2.422  -2.139  0.00  0.00    +0.120 C 
BRANCH  15  19
ATOM     19  C   UNL     1      11.518   2.625  -3.411  0.00  0.00    -0.033 A 
ATOM     21  C   UNL     1      12.169   3.065  -4.564  0.00  0.00    +0.005 A 
ATOM     22  C   UNL     1      10.146   2.377  -3.437  0.00  0.00    +0.005 A 
ATOM     23  C   UNL     1      11.447   3.257  -5.742  0.00  0.00    +0.003 A 
ATOM     24  C   UNL     1       9.424   2.570  -4.615  0.00  0.00    +0.003 A 
ATOM     25  C   UNL     1      10.075   3.009  -5.768  0.00  0.00    -0.050 A 
ATOM     27  C   UNL     1       9.303   3.214  -7.027  0.00  0.00    +0.044 C 
ENDBRANCH  15  19
ENDBRANCH   4  15
BRANCH  12  16
ATOM     16  C   UNL     1      11.127   6.685   3.151  0.00  0.00    +0.029 C 
BRANCH  16  18
ATOM     18  C   UNL     1       9.935   6.316   4.015  0.00  0.00    +0.097 C 
BRANCH  18  20
ATOM      2  O   UNL     1       9.557   7.720   5.951  0.00  0.00    -0.276 OA
ATOM      7  N   UNL     1      11.027   5.931   6.122  0.00  0.00    -0.308 N 
ATOM     20  C   UNL     1      10.130   6.753   5.455  0.00  0.00    +0.213 C 
ATOM     33  H   UNL     1      11.446   5.152   5.622  0.00  0.00    +0.149 HD
BRANCH   7  26
ATOM     26  C   UNL     1      11.381   6.140   7.506  0.00  0.00    +0.178 C 
BRANCH  26  28
ATOM      3  O   UNL     1      10.444   4.266   8.746  0.00  0.00    -0.466 OA
ATOM     28  C   UNL     1      10.339   5.586   8.441  0.00  0.00    +0.122 A 
ATOM     29  C   UNL     1       9.258   6.146   9.082  0.00  0.00    +0.046 A 
ATOM     30  C   UNL     1       8.661   5.103   9.829  0.00  0.00    +0.041 A 
ATOM     31  C   UNL     1       9.418   3.980   9.591  0.00  0.00    +0.195 A 
ENDBRANCH  26  28
ENDBRANCH   7  26
ENDBRANCH  18  20
ENDBRANCH  16  18
ENDBRANCH  12  16
TORSDOF 7
ENDMDL
MODEL 9
REMARK VINA RESULT:      -6.3     32.091     36.246
REMARK  Name = 45360850
REMARK  9 active torsions:
REMARK  status: ('A' for Active; 'I' for Inactive)
REMARK    1  A    between atoms: N_4  and  C_15
REMARK    2  A    between atoms: N_5  and  C_17
REMARK    3  A    between atoms: N_7  and  C_26
REMARK    4  A    between atoms: C_12  and  C_16
REMARK    5  A    between atoms: C_15  and  C_19
REMARK    6  A    between atoms: C_16  and  C_18
REMARK    7  A    between atoms: C_18  and  C_20
REMARK    8  A    between atoms: C_25  and  C_27
REMARK    9  A    between atoms: C_26  and  C_28
REMARK                            x       y       z     vdW  Elec       q    Type
REMARK                         _______ _______ _______ _____ _____    ______ ____
ROOT
ATOM      1  O   UNL     1      15.776   6.941   4.650  0.00  0.00    -0.274 OA
ATOM      4  N   UNL     1      16.333   9.543   5.115  0.00  0.00    -0.286 NA
ATOM      5  N   UNL     1      12.812   9.377   4.134  0.00  0.00    -0.296 NA
ATOM      6  N   UNL     1      13.676   7.020   5.555  0.00  0.00    -0.312 N 
ATOM      8  C   UNL     1      13.968  10.001   4.815  0.00  0.00    +0.084 C 
ATOM      9  C   UNL     1      14.996   9.074   5.527  0.00  0.00    +0.161 C 
ATOM     10  C   UNL     1      14.874  10.824   3.880  0.00  0.00    +0.036 C 
ATOM     11  C   UNL     1      16.179  10.914   4.642  0.00  0.00    +0.087 C 
ATOM     12  C   UNL     1      11.881   8.649   5.042  0.00  0.00    +0.074 C 
ATOM     13  C   UNL     1      14.877   7.591   5.182  0.00  0.00    +0.232 C 
ATOM     14  C   UNL     1      12.569   7.774   6.108  0.00  0.00    +0.123 C 
ATOM     17  C   UNL     1      12.073  10.373   3.340  0.00  0.00    +0.105 C 
ATOM     32  H   UNL     1      13.541   6.030   5.374  0.00  0.00    +0.149 HD
ENDROOT
BRANCH   4  15
ATOM     15  C   UNL     1      17.333   9.435   6.170  0.00  0.00    +0.120 C 
BRANCH  15  19
ATOM     19  C   UNL     1      18.562   8.701   5.705  0.00  0.00    -0.033 A 
ATOM     21  C   UNL     1      18.679   8.314   4.371  0.00  0.00    +0.005 A 
ATOM     22  C   UNL     1      19.582   8.405   6.610  0.00  0.00    +0.005 A 
ATOM     23  C   UNL     1      19.817   7.630   3.941  0.00  0.00    +0.003 A 
ATOM     24  C   UNL     1      20.719   7.721   6.180  0.00  0.00    +0.003 A 
ATOM     25  C   UNL     1      20.837   7.334   4.845  0.00  0.00    -0.050 A 
ATOM     27  C   UNL     1      22.052   6.603   4.385  0.00  0.00    +0.044 C 
ENDBRANCH  15  19
ENDBRANCH   4  15
BRANCH  12  16
ATOM     16  C   UNL     1      10.939   7.736   4.230  0.00  0.00    +0.029 C 
BRANCH  16  18
ATOM     18  C   UNL     1      10.192   6.785   5.145  0.00  0.00    +0.097 C 
BRANCH  18  20
ATOM      2  O   UNL     1       9.870   4.391   5.308  0.00  0.00    -0.276 OA
ATOM      7  N   UNL     1      10.962   5.259   3.454  0.00  0.00    -0.308 N 
ATOM     20  C   UNL     1      10.307   5.347   4.674  0.00  0.00    +0.213 C 
ATOM     33  H   UNL     1      11.284   6.113   3.006  0.00  0.00    +0.149 HD
BRANCH   7  26
ATOM     26  C   UNL     1      11.198   3.997   2.794  0.00  0.00    +0.178 C 
BRANCH  26  28
ATOM      3  O   UNL     1      13.263   5.111   2.146  0.00  0.00    -0.466 OA
ATOM     28  C   UNL     1      12.484   4.006   2.011  0.00  0.00    +0.122 A 
ATOM     29  C   UNL     1      13.069   3.104   1.153  0.00  0.00    +0.046 A 
ATOM     30  C   UNL     1      14.286   3.691   0.734  0.00  0.00    +0.041 A 
ATOM     31  C   UNL     1      14.358   4.912   1.365  0.00  0.00    +0.195 A 
ENDBRANCH  26  28
ENDBRANCH   7  26
ENDBRANCH  18  20
ENDBRANCH  16  18
ENDBRANCH  12  16
TORSDOF 7
ENDMDL
MODEL 10
REMARK VINA RESULT:      -6.2     20.067     22.557
REMARK  Name = 45360850
REMARK  9 active torsions:
REMARK  status: ('A' for Active; 'I' for Inactive)
REMARK    1  A    between atoms: N_4  and  C_15
REMARK    2  A    between atoms: N_5  and  C_17
REMARK    3  A    between atoms: N_7  and  C_26
REMARK    4  A    between atoms: C_12  and  C_16
REMARK    5  A    between atoms: C_15  and  C_19
REMARK    6  A    between atoms: C_16  and  C_18
REMARK    7  A    between atoms: C_18  and  C_20
REMARK    8  A    between atoms: C_25  and  C_27
REMARK    9  A    between atoms: C_26  and  C_28
REMARK                            x       y       z     vdW  Elec       q    Type
REMARK                         _______ _______ _______ _____ _____    ______ ____
ROOT
ATOM      1  O   UNL     1      -6.523  -9.994  15.286  0.00  0.00    -0.274 OA
ATOM      4  N   UNL     1      -6.610 -11.783  17.306  0.00  0.00    -0.286 NA
ATOM      5  N   UNL     1      -4.305 -13.130  14.805  0.00  0.00    -0.296 NA
ATOM      6  N   UNL     1      -4.283 -10.247  14.890  0.00  0.00    -0.312 N 
ATOM      8  C   UNL     1      -4.834 -12.994  16.180  0.00  0.00    +0.084 C 
ATOM      9  C   UNL     1      -5.300 -11.588  16.659  0.00  0.00    +0.161 C 
ATOM     10  C   UNL     1      -6.080 -13.856  16.457  0.00  0.00    +0.036 C 
ATOM     11  C   UNL     1      -6.705 -13.193  17.667  0.00  0.00    +0.087 C 
ATOM     12  C   UNL     1      -3.051 -12.368  14.549  0.00  0.00    +0.074 C 
ATOM     13  C   UNL     1      -5.457 -10.548  15.552  0.00  0.00    +0.232 C 
ATOM     14  C   UNL     1      -3.032 -10.938  15.125  0.00  0.00    +0.123 C 
ATOM     17  C   UNL     1      -4.121 -14.548  14.452  0.00  0.00    +0.105 C 
ATOM     32  H   UNL     1      -4.315  -9.544  14.156  0.00  0.00    +0.149 HD
ENDROOT
BRANCH   4  15
ATOM     15  C   UNL     1      -6.825 -10.908  18.452  0.00  0.00    +0.120 C 
BRANCH  15  19
ATOM     19  C   UNL     1      -8.282 -10.585  18.647  0.00  0.00    -0.033 A 
ATOM     21  C   UNL     1      -8.935  -9.742  17.749  0.00  0.00    +0.005 A 
ATOM     22  C   UNL     1      -8.978 -11.128  19.727  0.00  0.00    +0.005 A 
ATOM     23  C   UNL     1     -10.285  -9.441  17.931  0.00  0.00    +0.003 A 
ATOM     24  C   UNL     1     -10.328 -10.826  19.909  0.00  0.00    +0.003 A 
ATOM     25  C   UNL     1     -10.981  -9.982  19.011  0.00  0.00    -0.050 A 
ATOM     27  C   UNL     1     -12.424  -9.660  19.206  0.00  0.00    +0.044 C 
ENDBRANCH  15  19
ENDBRANCH   4  15
BRANCH  12  16
ATOM     16  C   UNL     1      -2.783 -12.261  13.033  0.00  0.00    +0.029 C 
BRANCH  16  18
ATOM     18  C   UNL     1      -1.555 -11.413  12.762  0.00  0.00    +0.097 C 
BRANCH  18  20
ATOM      2  O   UNL     1      -1.043  -9.409  11.503  0.00  0.00    -0.276 OA
ATOM      7  N   UNL     1      -3.161 -10.344  11.326  0.00  0.00    -0.308 N 
ATOM     20  C   UNL     1      -1.860 -10.275  11.804  0.00  0.00    +0.213 C 
ATOM     33  H   UNL     1      -3.759 -11.106  11.635  0.00  0.00    +0.149 HD
BRANCH   7  26
ATOM     26  C   UNL     1      -3.693  -9.374  10.399  0.00  0.00    +0.178 C 
BRANCH  26  28
ATOM      3  O   UNL     1      -4.094 -11.373   9.068  0.00  0.00    -0.466 OA
ATOM     28  C   UNL     1      -4.277 -10.030   9.176  0.00  0.00    +0.122 A 
ATOM     29  C   UNL     1      -4.985  -9.551   8.098  0.00  0.00    +0.046 A 
ATOM     30  C   UNL     1      -5.255 -10.670   7.276  0.00  0.00    +0.041 A 
ATOM     31  C   UNL     1      -4.692 -11.754   7.908  0.00  0.00    +0.195 A 
ENDBRANCH  26  28
ENDBRANCH   7  26
ENDBRANCH  18  20
ENDBRANCH  16  18
ENDBRANCH  12  16
TORSDOF 7
ENDMDL
