MODEL 1
REMARK VINA RESULT:      -6.4      0.000      0.000
REMARK  Name = 75536899
REMARK  4 active torsions:
REMARK  status: ('A' for Active; 'I' for Inactive)
REMARK    1  A    between atoms: O_2  and  C_8
REMARK    2  A    between atoms: O_2  and  C_15
REMARK    3  A    between atoms: C_13  and  C_14
REMARK    4  A    between atoms: C_21  and  C_24
REMARK                            x       y       z     vdW  Elec       q    Type
REMARK                         _______ _______ _______ _____ _____    ______ ____
ROOT
ATOM      1  O   UNL     1      10.878   7.597  22.363  0.00  0.00    -0.375 OA
ATOM      3  O   UNL     1      14.263   6.935  18.984  0.00  0.00    -0.270 OA
ATOM      4  N   UNL     1      13.286   8.405  20.526  0.00  0.00    -0.292 N 
ATOM      8  C   UNL     1      11.721   9.847  21.937  0.00  0.00    +0.218 C 
ATOM      9  C   UNL     1      12.767   9.746  20.824  0.00  0.00    +0.155 C 
ATOM     10  C   UNL     1      13.180   7.374  21.560  0.00  0.00    +0.136 C 
ATOM     11  C   UNL     1      10.571   8.856  21.774  0.00  0.00    +0.206 C 
ATOM     12  C   UNL     1      11.775   6.788  21.608  0.00  0.00    +0.179 C 
ATOM     13  C   UNL     1      13.846   8.053  19.287  0.00  0.00    +0.247 C 
ENDROOT
BRANCH  13  14
ATOM     14  C   UNL     1      13.952   9.090  18.249  0.00  0.00    +0.037 A 
ATOM     16  C   UNL     1      13.147   9.023  17.111  0.00  0.00    +0.014 A 
ATOM     17  C   UNL     1      14.856  10.141  18.403  0.00  0.00    +0.014 A 
ATOM     18  C   UNL     1      13.248  10.007  16.127  0.00  0.00    +0.019 A 
ATOM     19  C   UNL     1      14.956  11.124  17.419  0.00  0.00    +0.019 A 
ATOM     21  C   UNL     1      14.152  11.058  16.281  0.00  0.00    +0.052 A 
BRANCH  21  24
ATOM      7  N   UNL     1      14.336  12.883  14.454  0.00  0.00    -0.191 NA
ATOM     24  C   UNL     1      14.254  12.065  15.273  0.00  0.00    +0.099 C 
ENDBRANCH  21  24
ENDBRANCH  13  14
BRANCH   8   2
ATOM      2  O   UNL     1      11.201  11.176  21.894  0.00  0.00    -0.468 OA
BRANCH   2  15
ATOM      5  N   UNL     1      10.592  13.076  23.087  0.00  0.00    -0.219 NA
ATOM      6  N   UNL     1      10.948  11.654  25.477  0.00  0.00    -0.256 NA
ATOM     15  C   UNL     1      10.981  11.786  23.097  0.00  0.00    +0.234 A 
ATOM     20  C   UNL     1      11.156  11.087  24.273  0.00  0.00    +0.177 A 
ATOM     22  C   UNL     1      10.384  13.643  24.291  0.00  0.00    +0.134 A 
ATOM     23  C   UNL     1      10.559  12.944  25.466  0.00  0.00    +0.130 A 
ENDBRANCH   2  15
ENDBRANCH   8   2
TORSDOF 4
ENDMDL
MODEL 2
REMARK VINA RESULT:      -6.2      3.672      5.569
REMARK  Name = 75536899
REMARK  4 active torsions:
REMARK  status: ('A' for Active; 'I' for Inactive)
REMARK    1  A    between atoms: O_2  and  C_8
REMARK    2  A    between atoms: O_2  and  C_15
REMARK    3  A    between atoms: C_13  and  C_14
REMARK    4  A    between atoms: C_21  and  C_24
REMARK                            x       y       z     vdW  Elec       q    Type
REMARK                         _______ _______ _______ _____ _____    ______ ____
ROOT
ATOM      1  O   UNL     1      12.776   7.485  21.963  0.00  0.00    -0.375 OA
ATOM      3  O   UNL     1      11.560   7.704  17.296  0.00  0.00    -0.270 OA
ATOM      4  N   UNL     1      13.285   7.509  18.871  0.00  0.00    -0.292 N 
ATOM      8  C   UNL     1      14.912   7.776  20.820  0.00  0.00    +0.218 C 
ATOM      9  C   UNL     1      14.620   7.917  19.324  0.00  0.00    +0.155 C 
ATOM     10  C   UNL     1      12.525   6.577  19.704  0.00  0.00    +0.136 C 
ATOM     11  C   UNL     1      13.836   8.401  21.705  0.00  0.00    +0.206 C 
ATOM     12  C   UNL     1      11.874   7.297  20.878  0.00  0.00    +0.179 C 
ATOM     13  C   UNL     1      12.687   7.995  17.697  0.00  0.00    +0.247 C 
ENDROOT
BRANCH  13  14
ATOM     14  C   UNL     1      13.453   8.931  16.859  0.00  0.00    +0.037 A 
ATOM     16  C   UNL     1      14.196   8.453  15.779  0.00  0.00    +0.014 A 
ATOM     17  C   UNL     1      13.434  10.296  17.143  0.00  0.00    +0.014 A 
ATOM     18  C   UNL     1      14.922   9.342  14.985  0.00  0.00    +0.019 A 
ATOM     19  C   UNL     1      14.158  11.184  16.348  0.00  0.00    +0.019 A 
ATOM     21  C   UNL     1      14.903  10.707  15.269  0.00  0.00    +0.052 A 
BRANCH  21  24
ATOM      7  N   UNL     1      16.249  12.355  13.793  0.00  0.00    -0.191 NA
ATOM     24  C   UNL     1      15.645  11.617  14.455  0.00  0.00    +0.099 C 
ENDBRANCH  21  24
ENDBRANCH  13  14
BRANCH   8   2
ATOM      2  O   UNL     1      16.155   8.436  21.062  0.00  0.00    -0.468 OA
BRANCH   2  15
ATOM      5  N   UNL     1      17.218   6.565  20.182  0.00  0.00    -0.219 NA
ATOM      6  N   UNL     1      19.577   7.323  21.495  0.00  0.00    -0.256 NA
ATOM     15  C   UNL     1      17.285   7.675  20.943  0.00  0.00    +0.234 A 
ATOM     20  C   UNL     1      18.445   8.047  21.589  0.00  0.00    +0.177 A 
ATOM     22  C   UNL     1      18.350   5.841  20.088  0.00  0.00    +0.134 A 
ATOM     23  C   UNL     1      19.510   6.214  20.734  0.00  0.00    +0.130 A 
ENDBRANCH   2  15
ENDBRANCH   8   2
TORSDOF 4
ENDMDL
MODEL 3
REMARK VINA RESULT:      -6.1     26.558     28.189
REMARK  Name = 75536899
REMARK  4 active torsions:
REMARK  status: ('A' for Active; 'I' for Inactive)
REMARK    1  A    between atoms: O_2  and  C_8
REMARK    2  A    between atoms: O_2  and  C_15
REMARK    3  A    between atoms: C_13  and  C_14
REMARK    4  A    between atoms: C_21  and  C_24
REMARK                            x       y       z     vdW  Elec       q    Type
REMARK                         _______ _______ _______ _____ _____    ______ ____
ROOT
ATOM      1  O   UNL     1      -3.337 -12.201  15.618  0.00  0.00    -0.375 OA
ATOM      3  O   UNL     1      -1.216 -10.358  11.692  0.00  0.00    -0.270 OA
ATOM      4  N   UNL     1      -3.091 -10.354  13.098  0.00  0.00    -0.292 N 
ATOM      8  C   UNL     1      -5.119 -10.931  14.538  0.00  0.00    +0.218 C 
ATOM      9  C   UNL     1      -4.552 -10.354  13.238  0.00  0.00    +0.155 C 
ATOM     10  C   UNL     1      -2.277 -10.421  14.312  0.00  0.00    +0.136 C 
ATOM     11  C   UNL     1      -4.551 -12.307  14.883  0.00  0.00    +0.206 C 
ATOM     12  C   UNL     1      -2.197 -11.848  14.840  0.00  0.00    +0.179 C 
ATOM     13  C   UNL     1      -2.436 -10.328  11.856  0.00  0.00    +0.247 C 
ENDROOT
BRANCH  13  14
ATOM     14  C   UNL     1      -3.255 -10.259  10.636  0.00  0.00    +0.037 A 
ATOM     16  C   UNL     1      -3.702 -11.433  10.029  0.00  0.00    +0.014 A 
ATOM     17  C   UNL     1      -3.585  -9.020  10.087  0.00  0.00    +0.014 A 
ATOM     18  C   UNL     1      -4.480 -11.367   8.872  0.00  0.00    +0.019 A 
ATOM     19  C   UNL     1      -4.363  -8.955   8.931  0.00  0.00    +0.019 A 
ATOM     21  C   UNL     1      -4.810 -10.128   8.323  0.00  0.00    +0.052 A 
BRANCH  21  24
ATOM      7  N   UNL     1      -6.254 -10.007   6.177  0.00  0.00    -0.191 NA
ATOM     24  C   UNL     1      -5.607 -10.062   7.139  0.00  0.00    +0.099 C 
ENDBRANCH  21  24
ENDBRANCH  13  14
BRANCH   8   2
ATOM      2  O   UNL     1      -6.531 -11.042  14.359  0.00  0.00    -0.468 OA
BRANCH   2  15
ATOM      5  N   UNL     1      -8.521  -9.893  14.711  0.00  0.00    -0.219 NA
ATOM      6  N   UNL     1      -7.605  -9.145  17.254  0.00  0.00    -0.256 NA
ATOM     15  C   UNL     1      -7.313 -10.271  15.174  0.00  0.00    +0.234 A 
ATOM     20  C   UNL     1      -6.863  -9.903  16.423  0.00  0.00    +0.177 A 
ATOM     22  C   UNL     1      -9.263  -9.135  15.542  0.00  0.00    +0.134 A 
ATOM     23  C   UNL     1      -8.813  -8.767  16.791  0.00  0.00    +0.130 A 
ENDBRANCH   2  15
ENDBRANCH   8   2
TORSDOF 4
ENDMDL
MODEL 4
REMARK VINA RESULT:      -6.0     26.438     29.580
REMARK  Name = 75536899
REMARK  4 active torsions:
REMARK  status: ('A' for Active; 'I' for Inactive)
REMARK    1  A    between atoms: O_2  and  C_8
REMARK    2  A    between atoms: O_2  and  C_15
REMARK    3  A    between atoms: C_13  and  C_14
REMARK    4  A    between atoms: C_21  and  C_24
REMARK                            x       y       z     vdW  Elec       q    Type
REMARK                         _______ _______ _______ _____ _____    ______ ____
ROOT
ATOM      1  O   UNL     1     -14.405   3.552  34.222  0.00  0.00    -0.375 OA
ATOM      3  O   UNL     1     -13.930   8.330  34.730  0.00  0.00    -0.270 OA
ATOM      4  N   UNL     1     -14.615   6.557  33.358  0.00  0.00    -0.292 N 
ATOM      8  C   UNL     1     -14.821   4.418  31.979  0.00  0.00    +0.218 C 
ATOM      9  C   UNL     1     -14.631   5.937  32.027  0.00  0.00    +0.155 C 
ATOM     10  C   UNL     1     -15.244   5.839  34.466  0.00  0.00    +0.136 C 
ATOM     11  C   UNL     1     -13.872   3.663  32.907  0.00  0.00    +0.206 C 
ATOM     12  C   UNL     1     -14.330   4.744  34.999  0.00  0.00    +0.179 C 
ATOM     13  C   UNL     1     -13.995   7.789  33.626  0.00  0.00    +0.247 C 
ENDROOT
BRANCH  13  14
ATOM     14  C   UNL     1     -13.364   8.511  32.510  0.00  0.00    +0.037 A 
ATOM     16  C   UNL     1     -14.140   9.304  31.664  0.00  0.00    +0.014 A 
ATOM     17  C   UNL     1     -11.989   8.403  32.299  0.00  0.00    +0.014 A 
ATOM     18  C   UNL     1     -13.540   9.989  30.607  0.00  0.00    +0.019 A 
ATOM     19  C   UNL     1     -11.390   9.089  31.243  0.00  0.00    +0.019 A 
ATOM     21  C   UNL     1     -12.165   9.882  30.396  0.00  0.00    +0.052 A 
BRANCH  21  24
ATOM      7  N   UNL     1     -11.054  11.154  28.434  0.00  0.00    -0.191 NA
ATOM     24  C   UNL     1     -11.552  10.584  29.313  0.00  0.00    +0.099 C 
ENDBRANCH  21  24
ENDBRANCH  13  14
BRANCH   8   2
ATOM      2  O   UNL     1     -14.575   4.015  30.632  0.00  0.00    -0.468 OA
BRANCH   2  15
ATOM      5  N   UNL     1     -13.537   1.963  30.290  0.00  0.00    -0.219 NA
ATOM      6  N   UNL     1     -16.054   0.784  29.921  0.00  0.00    -0.256 NA
ATOM     15  C   UNL     1     -14.677   2.678  30.366  0.00  0.00    +0.234 A 
ATOM     20  C   UNL     1     -15.914   2.097  30.184  0.00  0.00    +0.177 A 
ATOM     22  C   UNL     1     -13.677   0.649  30.027  0.00  0.00    +0.134 A 
ATOM     23  C   UNL     1     -14.914   0.069  29.846  0.00  0.00    +0.130 A 
ENDBRANCH   2  15
ENDBRANCH   8   2
TORSDOF 4
ENDMDL
MODEL 5
REMARK VINA RESULT:      -5.9     28.088     30.132
REMARK  Name = 75536899
REMARK  4 active torsions:
REMARK  status: ('A' for Active; 'I' for Inactive)
REMARK    1  A    between atoms: O_2  and  C_8
REMARK    2  A    between atoms: O_2  and  C_15
REMARK    3  A    between atoms: C_13  and  C_14
REMARK    4  A    between atoms: C_21  and  C_24
REMARK                            x       y       z     vdW  Elec       q    Type
REMARK                         _______ _______ _______ _____ _____    ______ ____
ROOT
ATOM      1  O   UNL     1      -7.578 -10.129   7.160  0.00  0.00    -0.375 OA
ATOM      3  O   UNL     1     -10.647  -6.547   6.133  0.00  0.00    -0.270 OA
ATOM      4  N   UNL     1      -8.768  -7.236   7.352  0.00  0.00    -0.292 N 
ATOM      8  C   UNL     1      -7.073  -8.433   8.840  0.00  0.00    +0.218 C 
ATOM      9  C   UNL     1      -8.048  -7.271   8.631  0.00  0.00    +0.155 C 
ATOM     10  C   UNL     1      -8.197  -7.957   6.214  0.00  0.00    +0.136 C 
ATOM     11  C   UNL     1      -7.690  -9.797   8.540  0.00  0.00    +0.206 C 
ATOM     12  C   UNL     1      -8.493  -9.449   6.307  0.00  0.00    +0.179 C 
ATOM     13  C   UNL     1      -9.995  -6.575   7.176  0.00  0.00    +0.247 C 
ENDROOT
BRANCH  13  14
ATOM     14  C   UNL     1     -10.567  -5.849   8.321  0.00  0.00    +0.037 A 
ATOM     16  C   UNL     1     -11.386  -6.518   9.232  0.00  0.00    +0.014 A 
ATOM     17  C   UNL     1     -10.291  -4.493   8.496  0.00  0.00    +0.014 A 
ATOM     18  C   UNL     1     -11.928  -5.830  10.317  0.00  0.00    +0.019 A 
ATOM     19  C   UNL     1     -10.832  -3.806   9.582  0.00  0.00    +0.019 A 
ATOM     21  C   UNL     1     -11.651  -4.474  10.493  0.00  0.00    +0.052 A 
BRANCH  21  24
ATOM      7  N   UNL     1     -12.658  -3.197  12.508  0.00  0.00    -0.191 NA
ATOM     24  C   UNL     1     -12.207  -3.769  11.605  0.00  0.00    +0.099 C 
ENDBRANCH  21  24
ENDBRANCH  13  14
BRANCH   8   2
ATOM      2  O   UNL     1      -6.674  -8.394  10.211  0.00  0.00    -0.468 OA
BRANCH   2  15
ATOM      5  N   UNL     1      -4.434  -8.652   9.643  0.00  0.00    -0.219 NA
ATOM      6  N   UNL     1      -4.052 -10.180  11.964  0.00  0.00    -0.256 NA
ATOM     15  C   UNL     1      -5.441  -8.907  10.502  0.00  0.00    +0.234 A 
ATOM     20  C   UNL     1      -5.252  -9.658  11.643  0.00  0.00    +0.177 A 
ATOM     22  C   UNL     1      -3.234  -9.174   9.964  0.00  0.00    +0.134 A 
ATOM     23  C   UNL     1      -3.046  -9.924  11.104  0.00  0.00    +0.130 A 
ENDBRANCH   2  15
ENDBRANCH   8   2
TORSDOF 4
ENDMDL
MODEL 6
REMARK VINA RESULT:      -5.8     24.503     26.829
REMARK  Name = 75536899
REMARK  4 active torsions:
REMARK  status: ('A' for Active; 'I' for Inactive)
REMARK    1  A    between atoms: O_2  and  C_8
REMARK    2  A    between atoms: O_2  and  C_15
REMARK    3  A    between atoms: C_13  and  C_14
REMARK    4  A    between atoms: C_21  and  C_24
REMARK                            x       y       z     vdW  Elec       q    Type
REMARK                         _______ _______ _______ _____ _____    ______ ____
ROOT
ATOM      1  O   UNL     1     -11.488  10.934  15.268  0.00  0.00    -0.375 OA
ATOM      3  O   UNL     1      -9.808   9.241  19.465  0.00  0.00    -0.270 OA
ATOM      4  N   UNL     1     -11.201   8.878  17.616  0.00  0.00    -0.292 N 
ATOM      8  C   UNL     1     -12.925   9.019  15.739  0.00  0.00    +0.218 C 
ATOM      9  C   UNL     1     -12.504   8.446  17.094  0.00  0.00    +0.155 C 
ATOM     10  C   UNL     1     -10.209   9.388  16.670  0.00  0.00    +0.136 C 
ATOM     11  C   UNL     1     -12.799  10.539  15.661  0.00  0.00    +0.206 C 
ATOM     12  C   UNL     1     -10.503  10.834  16.292  0.00  0.00    +0.179 C 
ATOM     13  C   UNL     1     -10.874   8.859  18.982  0.00  0.00    +0.247 C 
ENDROOT
BRANCH  13  14
ATOM     14  C   UNL     1     -11.872   8.346  19.933  0.00  0.00    +0.037 A 
ATOM     16  C   UNL     1     -11.842   7.006  20.320  0.00  0.00    +0.014 A 
ATOM     17  C   UNL     1     -12.847   9.200  20.449  0.00  0.00    +0.014 A 
ATOM     18  C   UNL     1     -12.789   6.520  21.222  0.00  0.00    +0.019 A 
ATOM     19  C   UNL     1     -13.792   8.713  21.351  0.00  0.00    +0.019 A 
ATOM     21  C   UNL     1     -13.764   7.373  21.738  0.00  0.00    +0.052 A 
BRANCH  21  24
ATOM      7  N   UNL     1     -15.519   6.469  23.414  0.00  0.00    -0.191 NA
ATOM     24  C   UNL     1     -14.732   6.875  22.663  0.00  0.00    +0.099 C 
ENDBRANCH  21  24
ENDBRANCH  13  14
BRANCH   8   2
ATOM      2  O   UNL     1     -14.293   8.655  15.544  0.00  0.00    -0.468 OA
BRANCH   2  15
ATOM      5  N   UNL     1     -15.761   7.112  14.614  0.00  0.00    -0.219 NA
ATOM      6  N   UNL     1     -13.771   6.365  12.785  0.00  0.00    -0.256 NA
ATOM     15  C   UNL     1     -14.541   7.684  14.615  0.00  0.00    +0.234 A 
ATOM     20  C   UNL     1     -13.563   7.317  13.715  0.00  0.00    +0.177 A 
ATOM     22  C   UNL     1     -15.969   6.160  13.683  0.00  0.00    +0.134 A 
ATOM     23  C   UNL     1     -14.991   5.793  12.784  0.00  0.00    +0.130 A 
ENDBRANCH   2  15
ENDBRANCH   8   2
TORSDOF 4
ENDMDL
MODEL 7
REMARK VINA RESULT:      -5.7     27.659     29.727
REMARK  Name = 75536899
REMARK  4 active torsions:
REMARK  status: ('A' for Active; 'I' for Inactive)
REMARK    1  A    between atoms: O_2  and  C_8
REMARK    2  A    between atoms: O_2  and  C_15
REMARK    3  A    between atoms: C_13  and  C_14
REMARK    4  A    between atoms: C_21  and  C_24
REMARK                            x       y       z     vdW  Elec       q    Type
REMARK                         _______ _______ _______ _____ _____    ______ ____
ROOT
ATOM      1  O   UNL     1     -11.679 -11.160  18.327  0.00  0.00    -0.375 OA
ATOM      3  O   UNL     1      -7.340 -12.197  20.170  0.00  0.00    -0.270 OA
ATOM      4  N   UNL     1      -8.603 -10.783  18.793  0.00  0.00    -0.292 N 
ATOM      8  C   UNL     1     -10.153  -9.751  17.047  0.00  0.00    +0.218 C 
ATOM      9  C   UNL     1      -8.731 -10.057  17.523  0.00  0.00    +0.155 C 
ATOM     10  C   UNL     1      -9.722 -10.737  19.735  0.00  0.00    +0.136 C 
ATOM     11  C   UNL     1     -11.068 -10.974  17.055  0.00  0.00    +0.206 C 
ATOM     12  C   UNL     1     -10.824 -11.706  19.326  0.00  0.00    +0.179 C 
ATOM     13  C   UNL     1      -7.475 -11.548  19.133  0.00  0.00    +0.247 C 
ENDROOT
BRANCH  13  14
ATOM     14  C   UNL     1      -6.351 -11.594  18.186  0.00  0.00    +0.037 A 
ATOM     16  C   UNL     1      -5.359 -10.613  18.233  0.00  0.00    +0.014 A 
ATOM     17  C   UNL     1      -6.275 -12.618  17.242  0.00  0.00    +0.014 A 
ATOM     18  C   UNL     1      -4.292 -10.657  17.335  0.00  0.00    +0.019 A 
ATOM     19  C   UNL     1      -5.208 -12.662  16.345  0.00  0.00    +0.019 A 
ATOM     21  C   UNL     1      -4.216 -11.682  16.391  0.00  0.00    +0.052 A 
BRANCH  21  24
ATOM      7  N   UNL     1      -2.236 -11.762  14.725  0.00  0.00    -0.191 NA
ATOM     24  C   UNL     1      -3.123 -11.727  15.472  0.00  0.00    +0.099 C 
ENDBRANCH  21  24
ENDBRANCH  13  14
BRANCH   8   2
ATOM      2  O   UNL     1     -10.043  -9.260  15.710  0.00  0.00    -0.468 OA
BRANCH   2  15
ATOM      5  N   UNL     1     -11.545  -8.110  14.359  0.00  0.00    -0.219 NA
ATOM      6  N   UNL     1     -11.200  -5.835  15.962  0.00  0.00    -0.256 NA
ATOM     15  C   UNL     1     -10.720  -8.107  15.425  0.00  0.00    +0.234 A 
ATOM     20  C   UNL     1     -10.551  -6.989  16.212  0.00  0.00    +0.177 A 
ATOM     22  C   UNL     1     -12.195  -6.956  14.109  0.00  0.00    +0.134 A 
ATOM     23  C   UNL     1     -12.025  -5.838  14.897  0.00  0.00    +0.130 A 
ENDBRANCH   2  15
ENDBRANCH   8   2
TORSDOF 4
ENDMDL
MODEL 8
REMARK VINA RESULT:      -5.6     13.538     17.121
REMARK  Name = 75536899
REMARK  4 active torsions:
REMARK  status: ('A' for Active; 'I' for Inactive)
REMARK    1  A    between atoms: O_2  and  C_8
REMARK    2  A    between atoms: O_2  and  C_15
REMARK    3  A    between atoms: C_13  and  C_14
REMARK    4  A    between atoms: C_21  and  C_24
REMARK                            x       y       z     vdW  Elec       q    Type
REMARK                         _______ _______ _______ _____ _____    ______ ____
ROOT
ATOM      1  O   UNL     1      11.678   6.848   0.989  0.00  0.00    -0.375 OA
ATOM      3  O   UNL     1       7.943   7.363   4.004  0.00  0.00    -0.270 OA
ATOM      4  N   UNL     1      10.258   7.556   3.691  0.00  0.00    -0.292 N 
ATOM      8  C   UNL     1      12.731   7.211   3.160  0.00  0.00    +0.218 C 
ATOM      9  C   UNL     1      11.615   7.326   4.202  0.00  0.00    +0.155 C 
ATOM     10  C   UNL     1      10.107   8.135   2.356  0.00  0.00    +0.136 C 
ATOM     11  C   UNL     1      12.409   6.224   2.040  0.00  0.00    +0.206 C 
ATOM     12  C   UNL     1      10.302   7.079   1.275  0.00  0.00    +0.179 C 
ATOM     13  C   UNL     1       9.097   7.216   4.406  0.00  0.00    +0.247 C 
ENDROOT
BRANCH  13  14
ATOM     14  C   UNL     1       9.249   6.635   5.749  0.00  0.00    +0.037 A 
ATOM     16  C   UNL     1       9.652   5.307   5.892  0.00  0.00    +0.014 A 
ATOM     17  C   UNL     1       8.992   7.412   6.878  0.00  0.00    +0.014 A 
ATOM     18  C   UNL     1       9.797   4.756   7.166  0.00  0.00    +0.019 A 
ATOM     19  C   UNL     1       9.138   6.861   8.151  0.00  0.00    +0.019 A 
ATOM     21  C   UNL     1       9.540   5.533   8.296  0.00  0.00    +0.052 A 
BRANCH  21  24
ATOM      7  N   UNL     1       9.810   4.510  10.659  0.00  0.00    -0.191 NA
ATOM     24  C   UNL     1       9.689   4.969   9.600  0.00  0.00    +0.099 C 
ENDBRANCH  21  24
ENDBRANCH  13  14
BRANCH   8   2
ATOM      2  O   UNL     1      13.897   6.764   3.853  0.00  0.00    -0.468 OA
BRANCH   2  15
ATOM      5  N   UNL     1      15.262   8.607   3.472  0.00  0.00    -0.219 NA
ATOM      6  N   UNL     1      15.794   8.744   6.222  0.00  0.00    -0.256 NA
ATOM     15  C   UNL     1      14.723   7.734   4.347  0.00  0.00    +0.234 A 
ATOM     20  C   UNL     1      14.985   7.802   5.699  0.00  0.00    +0.177 A 
ATOM     22  C   UNL     1      16.071   9.549   3.996  0.00  0.00    +0.134 A 
ATOM     23  C   UNL     1      16.332   9.616   5.347  0.00  0.00    +0.130 A 
ENDBRANCH   2  15
ENDBRANCH   8   2
TORSDOF 4
ENDMDL
MODEL 9
REMARK VINA RESULT:      -5.6     26.722     29.418
REMARK  Name = 75536899
REMARK  4 active torsions:
REMARK  status: ('A' for Active; 'I' for Inactive)
REMARK    1  A    between atoms: O_2  and  C_8
REMARK    2  A    between atoms: O_2  and  C_15
REMARK    3  A    between atoms: C_13  and  C_14
REMARK    4  A    between atoms: C_21  and  C_24
REMARK                            x       y       z     vdW  Elec       q    Type
REMARK                         _______ _______ _______ _____ _____    ______ ____
ROOT
ATOM      1  O   UNL     1      -5.822 -11.889  19.451  0.00  0.00    -0.375 OA
ATOM      3  O   UNL     1     -10.552 -11.617  18.523  0.00  0.00    -0.270 OA
ATOM      4  N   UNL     1      -8.370 -11.441  17.683  0.00  0.00    -0.292 N 
ATOM      8  C   UNL     1      -5.920 -10.887  17.228  0.00  0.00    +0.218 C 
ATOM      9  C   UNL     1      -7.397 -10.703  16.869  0.00  0.00    +0.155 C 
ATOM     10  C   UNL     1      -7.912 -12.625  18.410  0.00  0.00    +0.136 C 
ATOM     11  C   UNL     1      -5.632 -10.686  18.714  0.00  0.00    +0.206 C 
ATOM     12  C   UNL     1      -7.183 -12.235  19.689  0.00  0.00    +0.179 C 
ATOM     13  C   UNL     1      -9.711 -11.047  17.827  0.00  0.00    +0.247 C 
ENDROOT
BRANCH  13  14
ATOM     14  C   UNL     1     -10.171  -9.856  17.095  0.00  0.00    +0.037 A 
ATOM     16  C   UNL     1     -10.015  -8.589  17.656  0.00  0.00    +0.014 A 
ATOM     17  C   UNL     1     -10.762  -9.995  15.839  0.00  0.00    +0.014 A 
ATOM     18  C   UNL     1     -10.451  -7.460  16.961  0.00  0.00    +0.019 A 
ATOM     19  C   UNL     1     -11.197  -8.867  15.145  0.00  0.00    +0.019 A 
ATOM     21  C   UNL     1     -11.042  -7.599  15.705  0.00  0.00    +0.052 A 
BRANCH  21  24
ATOM      7  N   UNL     1     -11.849  -5.503  14.417  0.00  0.00    -0.191 NA
ATOM     24  C   UNL     1     -11.487  -6.442  14.994  0.00  0.00    +0.099 C 
ENDBRANCH  21  24
ENDBRANCH  13  14
BRANCH   8   2
ATOM      2  O   UNL     1      -5.189  -9.918  16.476  0.00  0.00    -0.468 OA
BRANCH   2  15
ATOM      5  N   UNL     1      -2.954 -10.544  16.350  0.00  0.00    -0.219 NA
ATOM      6  N   UNL     1      -3.304 -11.138  13.632  0.00  0.00    -0.256 NA
ATOM     15  C   UNL     1      -4.141 -10.384  15.733  0.00  0.00    +0.234 A 
ATOM     20  C   UNL     1      -4.312 -10.676  14.397  0.00  0.00    +0.177 A 
ATOM     22  C   UNL     1      -1.945 -11.006  15.586  0.00  0.00    +0.134 A 
ATOM     23  C   UNL     1      -2.117 -11.298  14.250  0.00  0.00    +0.130 A 
ENDBRANCH   2  15
ENDBRANCH   8   2
TORSDOF 4
ENDMDL
MODEL 10
REMARK VINA RESULT:      -5.5     26.920     29.139
REMARK  Name = 75536899
REMARK  4 active torsions:
REMARK  status: ('A' for Active; 'I' for Inactive)
REMARK    1  A    between atoms: O_2  and  C_8
REMARK    2  A    between atoms: O_2  and  C_15
REMARK    3  A    between atoms: C_13  and  C_14
REMARK    4  A    between atoms: C_21  and  C_24
REMARK                            x       y       z     vdW  Elec       q    Type
REMARK                         _______ _______ _______ _____ _____    ______ ____
ROOT
ATOM      1  O   UNL     1      -2.864  -9.878  10.876  0.00  0.00    -0.375 OA
ATOM      3  O   UNL     1      -1.547 -11.833  15.089  0.00  0.00    -0.270 OA
ATOM      4  N   UNL     1      -3.196 -11.660  13.433  0.00  0.00    -0.292 N 
ATOM      8  C   UNL     1      -4.920 -10.892  11.713  0.00  0.00    +0.218 C 
ATOM      9  C   UNL     1      -4.613 -11.491  13.088  0.00  0.00    +0.155 C 
ATOM     10  C   UNL     1      -2.220 -11.728  12.345  0.00  0.00    +0.136 C 
ATOM     11  C   UNL     1      -4.147  -9.605  11.431  0.00  0.00    +0.206 C 
ATOM     12  C   UNL     1      -1.895 -10.338  11.813  0.00  0.00    +0.179 C 
ATOM     13  C   UNL     1      -2.727 -11.724  14.755  0.00  0.00    +0.247 C 
ENDROOT
BRANCH  13  14
ATOM     14  C   UNL     1      -3.709 -11.657  15.849  0.00  0.00    +0.037 A 
ATOM     16  C   UNL     1      -4.400 -12.805  16.238  0.00  0.00    +0.014 A 
ATOM     17  C   UNL     1      -3.948 -10.445  16.498  0.00  0.00    +0.014 A 
ATOM     18  C   UNL     1      -5.330 -12.740  17.275  0.00  0.00    +0.019 A 
ATOM     19  C   UNL     1      -4.877 -10.382  17.535  0.00  0.00    +0.019 A 
ATOM     21  C   UNL     1      -5.569 -11.529  17.924  0.00  0.00    +0.052 A 
BRANCH  21  24
ATOM      7  N   UNL     1      -7.295 -11.412  19.851  0.00  0.00    -0.191 NA
ATOM     24  C   UNL     1      -6.522 -11.464  18.987  0.00  0.00    +0.099 C 
ENDBRANCH  21  24
ENDBRANCH  13  14
BRANCH   8   2
ATOM      2  O   UNL     1      -6.320 -10.609  11.689  0.00  0.00    -0.468 OA
BRANCH   2  15
ATOM      5  N   UNL     1      -7.443  -8.966  10.489  0.00  0.00    -0.219 NA
ATOM      6  N   UNL     1      -7.217 -10.540   8.179  0.00  0.00    -0.256 NA
ATOM     15  C   UNL     1      -6.834 -10.168  10.502  0.00  0.00    +0.234 A 
ATOM     20  C   UNL     1      -6.723 -10.941   9.366  0.00  0.00    +0.177 A 
ATOM     22  C   UNL     1      -7.937  -8.564   9.302  0.00  0.00    +0.134 A 
ATOM     23  C   UNL     1      -7.826  -9.338   8.166  0.00  0.00    +0.130 A 
ENDBRANCH   2  15
ENDBRANCH   8   2
TORSDOF 4
ENDMDL
