MODEL 1
REMARK VINA RESULT:      -7.7      0.000      0.000
REMARK  Name = 75536313
REMARK  8 active torsions:
REMARK  status: ('A' for Active; 'I' for Inactive)
REMARK    1  A    between atoms: O_2  and  C_7
REMARK    2  A    between atoms: N_4  and  C_11
REMARK    3  A    between atoms: N_4  and  C_14
REMARK    4  A    between atoms: C_6  and  C_11
REMARK    5  A    between atoms: C_8  and  C_12
REMARK    6  A    between atoms: C_12  and  C_13
REMARK    7  A    between atoms: C_14  and  C_16
REMARK    8  A    between atoms: C_17  and  C_18
REMARK                            x       y       z     vdW  Elec       q    Type
REMARK                         _______ _______ _______ _____ _____    ______ ____
ROOT
ATOM      1  O   UNL     1      10.700   8.159  19.919  0.00  0.00    -0.369 OA
ATOM      6  C   UNL     1      10.977   7.805  21.281  0.00  0.00    +0.161 C 
ATOM      7  C   UNL     1      11.832   6.534  21.364  0.00  0.00    +0.145 C 
ATOM      8  C   UNL     1      11.852   8.321  19.087  0.00  0.00    +0.125 C 
ATOM      9  C   UNL     1      13.059   6.599  20.459  0.00  0.00    +0.036 C 
ATOM     10  C   UNL     1      12.674   7.034  19.048  0.00  0.00    +0.034 C 
ENDROOT
BRANCH   7   2
ATOM      2  O   UNL     1      11.041   5.418  20.948  0.00  0.00    -0.389 OA
ATOM     30  H   UNL     1      10.932   4.832  21.718  0.00  0.00    +0.210 HD
ENDBRANCH   7   2
BRANCH   6  11
ATOM     11  C   UNL     1      11.581   8.982  22.044  0.00  0.00    +0.115 C 
BRANCH  11   4
ATOM      4  N   UNL     1      10.603  10.044  22.218  0.00  0.00    -0.309 NA
ATOM     29  H   UNL     1       9.833   9.905  21.564  0.00  0.00    +0.122 HD
BRANCH   4  14
ATOM     14  C   UNL     1      11.206  11.352  21.999  0.00  0.00    +0.116 C 
BRANCH  14  16
ATOM     16  C   UNL     1      10.930  12.295  23.139  0.00  0.00    -0.034 A 
ATOM     19  C   UNL     1      11.039  11.850  24.456  0.00  0.00    +0.005 A 
ATOM     20  C   UNL     1      10.563  13.616  22.878  0.00  0.00    +0.005 A 
ATOM     21  C   UNL     1      10.782  12.725  25.512  0.00  0.00    +0.000 A 
ATOM     22  C   UNL     1      10.306  14.490  23.933  0.00  0.00    +0.000 A 
ATOM     25  C   UNL     1      10.415  14.046  25.250  0.00  0.00    +0.000 A 
ENDBRANCH  14  16
ENDBRANCH   4  14
ENDBRANCH  11   4
ENDBRANCH   6  11
BRANCH   8  12
ATOM     12  C   UNL     1      11.360   8.694  17.694  0.00  0.00    +0.090 C 
BRANCH  12  13
ATOM      3  O   UNL     1      13.627   9.779  15.109  0.00  0.00    -0.354 OA
ATOM      5  N   UNL     1      12.527   9.058  15.557  0.00  0.00    -0.083 NA
ATOM     13  C   UNL     1      12.451   9.317  16.865  0.00  0.00    +0.087 A 
ATOM     15  C   UNL     1      13.468  10.187  17.296  0.00  0.00    +0.076 A 
ATOM     17  C   UNL     1      14.178  10.448  16.154  0.00  0.00    +0.167 A 
BRANCH  17  18
ATOM     18  C   UNL     1      15.330  11.244  15.845  0.00  0.00    +0.020 A 
ATOM     23  C   UNL     1      15.972  11.094  14.615  0.00  0.00    +0.011 A 
ATOM     24  C   UNL     1      15.808  12.169  16.773  0.00  0.00    +0.011 A 
ATOM     26  C   UNL     1      17.092  11.870  14.315  0.00  0.00    +0.001 A 
ATOM     27  C   UNL     1      16.928  12.944  16.472  0.00  0.00    +0.001 A 
ATOM     28  C   UNL     1      17.570  12.794  15.242  0.00  0.00    +0.000 A 
ENDBRANCH  17  18
ENDBRANCH  12  13
ENDBRANCH   8  12
TORSDOF 8
ENDMDL
MODEL 2
REMARK VINA RESULT:      -7.7      2.008      3.362
REMARK  Name = 75536313
REMARK  8 active torsions:
REMARK  status: ('A' for Active; 'I' for Inactive)
REMARK    1  A    between atoms: O_2  and  C_7
REMARK    2  A    between atoms: N_4  and  C_11
REMARK    3  A    between atoms: N_4  and  C_14
REMARK    4  A    between atoms: C_6  and  C_11
REMARK    5  A    between atoms: C_8  and  C_12
REMARK    6  A    between atoms: C_12  and  C_13
REMARK    7  A    between atoms: C_14  and  C_16
REMARK    8  A    between atoms: C_17  and  C_18
REMARK                            x       y       z     vdW  Elec       q    Type
REMARK                         _______ _______ _______ _____ _____    ______ ____
ROOT
ATOM      1  O   UNL     1      10.552   8.395  19.588  0.00  0.00    -0.369 OA
ATOM      6  C   UNL     1      10.670   8.343  21.016  0.00  0.00    +0.161 C 
ATOM      7  C   UNL     1      11.507   7.138  21.463  0.00  0.00    +0.145 C 
ATOM      8  C   UNL     1      11.792   8.404  18.876  0.00  0.00    +0.125 C 
ATOM      9  C   UNL     1      12.830   7.038  20.709  0.00  0.00    +0.036 C 
ATOM     10  C   UNL     1      12.611   7.157  19.203  0.00  0.00    +0.034 C 
ENDROOT
BRANCH   7   2
ATOM      2  O   UNL     1      10.767   5.942  21.207  0.00  0.00    -0.389 OA
ATOM     30  H   UNL     1      11.354   5.188  21.391  0.00  0.00    +0.210 HD
ENDBRANCH   7   2
BRANCH   6  11
ATOM     11  C   UNL     1      11.185   9.668  21.575  0.00  0.00    +0.115 C 
BRANCH  11   4
ATOM      4  N   UNL     1      12.022   9.447  22.744  0.00  0.00    -0.309 NA
ATOM     29  H   UNL     1      11.450   9.510  23.586  0.00  0.00    +0.122 HD
BRANCH   4  14
ATOM     14  C   UNL     1      13.100  10.425  22.807  0.00  0.00    +0.116 C 
BRANCH  14  16
ATOM     16  C   UNL     1      14.277  10.017  21.962  0.00  0.00    -0.034 A 
ATOM     19  C   UNL     1      14.558  10.700  20.779  0.00  0.00    +0.005 A 
ATOM     20  C   UNL     1      15.086   8.953  22.362  0.00  0.00    +0.005 A 
ATOM     21  C   UNL     1      15.649  10.320  19.997  0.00  0.00    +0.000 A 
ATOM     22  C   UNL     1      16.176   8.574  21.580  0.00  0.00    +0.000 A 
ATOM     25  C   UNL     1      16.458   9.257  20.397  0.00  0.00    +0.000 A 
ENDBRANCH  14  16
ENDBRANCH   4  14
ENDBRANCH  11   4
ENDBRANCH   6  11
BRANCH   8  12
ATOM     12  C   UNL     1      11.465   8.464  17.389  0.00  0.00    +0.090 C 
BRANCH  12  13
ATOM      3  O   UNL     1      13.570  10.003  14.900  0.00  0.00    -0.354 OA
ATOM      5  N   UNL     1      12.481   9.228  15.281  0.00  0.00    -0.083 NA
ATOM     13  C   UNL     1      12.512   9.220  16.617  0.00  0.00    +0.087 A 
ATOM     15  C   UNL     1      13.588   9.965  17.130  0.00  0.00    +0.076 A 
ATOM     17  C   UNL     1      14.221  10.436  16.010  0.00  0.00    +0.167 A 
BRANCH  17  18
ATOM     18  C   UNL     1      15.374  11.256  15.775  0.00  0.00    +0.020 A 
ATOM     23  C   UNL     1      16.075  11.146  14.574  0.00  0.00    +0.011 A 
ATOM     24  C   UNL     1      15.793  12.165  16.746  0.00  0.00    +0.011 A 
ATOM     26  C   UNL     1      17.196  11.944  14.345  0.00  0.00    +0.001 A 
ATOM     27  C   UNL     1      16.914  12.962  16.517  0.00  0.00    +0.001 A 
ATOM     28  C   UNL     1      17.616  12.852  15.316  0.00  0.00    +0.000 A 
ENDBRANCH  17  18
ENDBRANCH  12  13
ENDBRANCH   8  12
TORSDOF 8
ENDMDL
MODEL 3
REMARK VINA RESULT:      -7.7      1.124      2.061
REMARK  Name = 75536313
REMARK  8 active torsions:
REMARK  status: ('A' for Active; 'I' for Inactive)
REMARK    1  A    between atoms: O_2  and  C_7
REMARK    2  A    between atoms: N_4  and  C_11
REMARK    3  A    between atoms: N_4  and  C_14
REMARK    4  A    between atoms: C_6  and  C_11
REMARK    5  A    between atoms: C_8  and  C_12
REMARK    6  A    between atoms: C_12  and  C_13
REMARK    7  A    between atoms: C_14  and  C_16
REMARK    8  A    between atoms: C_17  and  C_18
REMARK                            x       y       z     vdW  Elec       q    Type
REMARK                         _______ _______ _______ _____ _____    ______ ____
ROOT
ATOM      1  O   UNL     1      10.602   8.094  20.084  0.00  0.00    -0.369 OA
ATOM      6  C   UNL     1      10.875   7.674  21.427  0.00  0.00    +0.161 C 
ATOM      7  C   UNL     1      11.770   6.428  21.450  0.00  0.00    +0.145 C 
ATOM      8  C   UNL     1      11.757   8.340  19.277  0.00  0.00    +0.125 C 
ATOM      9  C   UNL     1      13.004   6.583  20.566  0.00  0.00    +0.036 C 
ATOM     10  C   UNL     1      12.621   7.084  19.176  0.00  0.00    +0.034 C 
ENDROOT
BRANCH   7   2
ATOM      2  O   UNL     1      11.021   5.312  20.963  0.00  0.00    -0.389 OA
ATOM     30  H   UNL     1      10.195   5.266  21.476  0.00  0.00    +0.210 HD
ENDBRANCH   7   2
BRANCH   6  11
ATOM     11  C   UNL     1      11.432   8.825  22.262  0.00  0.00    +0.115 C 
BRANCH  11   4
ATOM      4  N   UNL     1      10.518   9.956  22.261  0.00  0.00    -0.309 NA
ATOM     29  H   UNL     1      10.237  10.162  21.303  0.00  0.00    +0.122 HD
BRANCH   4  14
ATOM     14  C   UNL     1      11.140  11.132  22.856  0.00  0.00    +0.116 C 
BRANCH  14  16
ATOM     16  C   UNL     1      11.452  12.184  21.825  0.00  0.00    -0.034 A 
ATOM     19  C   UNL     1      12.463  11.968  20.890  0.00  0.00    +0.005 A 
ATOM     20  C   UNL     1      10.728  13.377  21.807  0.00  0.00    +0.005 A 
ATOM     21  C   UNL     1      12.751  12.944  19.936  0.00  0.00    +0.000 A 
ATOM     22  C   UNL     1      11.015  14.352  20.853  0.00  0.00    +0.000 A 
ATOM     25  C   UNL     1      12.027  14.136  19.917  0.00  0.00    +0.000 A 
ENDBRANCH  14  16
ENDBRANCH   4  14
ENDBRANCH  11   4
ENDBRANCH   6  11
BRANCH   8  12
ATOM     12  C   UNL     1      11.269   8.775  17.900  0.00  0.00    +0.090 C 
BRANCH  12  13
ATOM      3  O   UNL     1      13.642   9.631  15.325  0.00  0.00    -0.354 OA
ATOM      5  N   UNL     1      12.535   8.935  15.795  0.00  0.00    -0.083 NA
ATOM     13  C   UNL     1      12.388   9.332  17.062  0.00  0.00    +0.087 A 
ATOM     15  C   UNL     1      13.364  10.269  17.444  0.00  0.00    +0.076 A 
ATOM     17  C   UNL     1      14.126  10.423  16.316  0.00  0.00    +0.167 A 
BRANCH  17  18
ATOM     18  C   UNL     1      15.276  11.210  15.977  0.00  0.00    +0.020 A 
ATOM     23  C   UNL     1      15.784  12.133  16.891  0.00  0.00    +0.011 A 
ATOM     24  C   UNL     1      15.887  11.053  14.733  0.00  0.00    +0.011 A 
ATOM     26  C   UNL     1      16.903  12.899  16.561  0.00  0.00    +0.001 A 
ATOM     27  C   UNL     1      17.005  11.818  14.403  0.00  0.00    +0.001 A 
ATOM     28  C   UNL     1      17.513  12.741  15.318  0.00  0.00    +0.000 A 
ENDBRANCH  17  18
ENDBRANCH  12  13
ENDBRANCH   8  12
TORSDOF 8
ENDMDL
MODEL 4
REMARK VINA RESULT:      -7.7      2.926      6.543
REMARK  Name = 75536313
REMARK  8 active torsions:
REMARK  status: ('A' for Active; 'I' for Inactive)
REMARK    1  A    between atoms: O_2  and  C_7
REMARK    2  A    between atoms: N_4  and  C_11
REMARK    3  A    between atoms: N_4  and  C_14
REMARK    4  A    between atoms: C_6  and  C_11
REMARK    5  A    between atoms: C_8  and  C_12
REMARK    6  A    between atoms: C_12  and  C_13
REMARK    7  A    between atoms: C_14  and  C_16
REMARK    8  A    between atoms: C_17  and  C_18
REMARK                            x       y       z     vdW  Elec       q    Type
REMARK                         _______ _______ _______ _____ _____    ______ ____
ROOT
ATOM      1  O   UNL     1      10.928  11.332  21.885  0.00  0.00    -0.369 OA
ATOM      6  C   UNL     1      11.199  12.740  21.889  0.00  0.00    +0.161 C 
ATOM      7  C   UNL     1      10.913  13.359  23.263  0.00  0.00    +0.145 C 
ATOM      8  C   UNL     1      11.619  10.578  22.884  0.00  0.00    +0.125 C 
ATOM      9  C   UNL     1      11.569  12.580  24.399  0.00  0.00    +0.036 C 
ATOM     10  C   UNL     1      11.270  11.087  24.281  0.00  0.00    +0.034 C 
ENDROOT
BRANCH   7   2
ATOM      2  O   UNL     1       9.501  13.352  23.487  0.00  0.00    -0.389 OA
ATOM     30  H   UNL     1       9.212  14.278  23.572  0.00  0.00    +0.210 HD
ENDBRANCH   7   2
BRANCH   6  11
ATOM     11  C   UNL     1      12.611  13.031  21.385  0.00  0.00    +0.115 C 
BRANCH  11   4
ATOM      4  N   UNL     1      12.754  12.644  19.990  0.00  0.00    -0.309 NA
ATOM     29  H   UNL     1      11.931  12.117  19.700  0.00  0.00    +0.122 HD
BRANCH   4  14
ATOM     14  C   UNL     1      13.951  11.839  19.791  0.00  0.00    +0.116 C 
BRANCH  14  16
ATOM     16  C   UNL     1      13.662  10.591  19.000  0.00  0.00    -0.034 A 
ATOM     19  C   UNL     1      12.367  10.078  18.953  0.00  0.00    +0.005 A 
ATOM     20  C   UNL     1      14.692   9.947  18.313  0.00  0.00    +0.005 A 
ATOM     21  C   UNL     1      12.100   8.922  18.219  0.00  0.00    +0.000 A 
ATOM     22  C   UNL     1      14.426   8.792  17.580  0.00  0.00    +0.000 A 
ATOM     25  C   UNL     1      13.130   8.278  17.532  0.00  0.00    +0.000 A 
ENDBRANCH  14  16
ENDBRANCH   4  14
ENDBRANCH  11   4
ENDBRANCH   6  11
BRANCH   8  12
ATOM     12  C   UNL     1      11.210   9.119  22.721  0.00  0.00    +0.090 C 
BRANCH  12  13
ATOM      3  O   UNL     1      13.148   6.719  20.856  0.00  0.00    -0.354 OA
ATOM      5  N   UNL     1      11.948   7.204  21.362  0.00  0.00    -0.083 NA
ATOM     13  C   UNL     1      12.276   8.315  22.028  0.00  0.00    +0.087 A 
ATOM     15  C   UNL     1      13.656   8.579  21.977  0.00  0.00    +0.076 A 
ATOM     17  C   UNL     1      14.157   7.547  21.228  0.00  0.00    +0.167 A 
BRANCH  17  18
ATOM     18  C   UNL     1      15.466   7.176  20.774  0.00  0.00    +0.020 A 
ATOM     23  C   UNL     1      15.609   6.331  19.673  0.00  0.00    +0.011 A 
ATOM     24  C   UNL     1      16.596   7.660  21.432  0.00  0.00    +0.011 A 
ATOM     26  C   UNL     1      16.882   5.970  19.232  0.00  0.00    +0.001 A 
ATOM     27  C   UNL     1      17.869   7.300  20.991  0.00  0.00    +0.001 A 
ATOM     28  C   UNL     1      18.012   6.455  19.890  0.00  0.00    +0.000 A 
ENDBRANCH  17  18
ENDBRANCH  12  13
ENDBRANCH   8  12
TORSDOF 8
ENDMDL
MODEL 5
REMARK VINA RESULT:      -7.5     27.149     30.340
REMARK  Name = 75536313
REMARK  8 active torsions:
REMARK  status: ('A' for Active; 'I' for Inactive)
REMARK    1  A    between atoms: O_2  and  C_7
REMARK    2  A    between atoms: N_4  and  C_11
REMARK    3  A    between atoms: N_4  and  C_14
REMARK    4  A    between atoms: C_6  and  C_11
REMARK    5  A    between atoms: C_8  and  C_12
REMARK    6  A    between atoms: C_12  and  C_13
REMARK    7  A    between atoms: C_14  and  C_16
REMARK    8  A    between atoms: C_17  and  C_18
REMARK                            x       y       z     vdW  Elec       q    Type
REMARK                         _______ _______ _______ _____ _____    ______ ____
ROOT
ATOM      1  O   UNL     1     -16.091   2.361  24.354  0.00  0.00    -0.369 OA
ATOM      6  C   UNL     1     -16.118   3.473  23.449  0.00  0.00    +0.161 C 
ATOM      7  C   UNL     1     -17.485   3.602  22.765  0.00  0.00    +0.145 C 
ATOM      8  C   UNL     1     -17.111   2.368  25.356  0.00  0.00    +0.125 C 
ATOM      9  C   UNL     1     -18.640   3.561  23.761  0.00  0.00    +0.036 C 
ATOM     10  C   UNL     1     -18.497   2.377  24.715  0.00  0.00    +0.034 C 
ENDROOT
BRANCH   7   2
ATOM      2  O   UNL     1     -17.651   2.508  21.858  0.00  0.00    -0.389 OA
ATOM     30  H   UNL     1     -17.347   1.703  22.311  0.00  0.00    +0.210 HD
ENDBRANCH   7   2
BRANCH   6  11
ATOM     11  C   UNL     1     -15.675   4.759  24.144  0.00  0.00    +0.115 C 
BRANCH  11   4
ATOM      4  N   UNL     1     -14.289   5.068  23.828  0.00  0.00    -0.309 NA
ATOM     29  H   UNL     1     -14.075   6.015  24.138  0.00  0.00    +0.122 HD
BRANCH   4  14
ATOM     14  C   UNL     1     -14.040   4.949  22.397  0.00  0.00    +0.116 C 
BRANCH  14  16
ATOM     16  C   UNL     1     -13.437   6.205  21.826  0.00  0.00    -0.034 A 
ATOM     19  C   UNL     1     -12.190   6.160  21.205  0.00  0.00    +0.005 A 
ATOM     20  C   UNL     1     -14.126   7.414  21.920  0.00  0.00    +0.005 A 
ATOM     21  C   UNL     1     -11.631   7.324  20.676  0.00  0.00    +0.000 A 
ATOM     22  C   UNL     1     -13.568   8.577  21.392  0.00  0.00    +0.000 A 
ATOM     25  C   UNL     1     -12.320   8.533  20.770  0.00  0.00    +0.000 A 
ENDBRANCH  14  16
ENDBRANCH   4  14
ENDBRANCH  11   4
ENDBRANCH   6  11
BRANCH   8  12
ATOM     12  C   UNL     1     -16.918   1.123  26.214  0.00  0.00    +0.090 C 
BRANCH  12  13
ATOM      3  O   UNL     1     -15.737   1.160  29.620  0.00  0.00    -0.354 OA
ATOM      5  N   UNL     1     -16.296   0.522  28.519  0.00  0.00    -0.083 NA
ATOM     13  C   UNL     1     -16.357   1.460  27.569  0.00  0.00    +0.087 A 
ATOM     15  C   UNL     1     -15.856   2.698  28.008  0.00  0.00    +0.076 A 
ATOM     17  C   UNL     1     -15.479   2.455  29.303  0.00  0.00    +0.167 A 
BRANCH  17  18
ATOM     18  C   UNL     1     -14.894   3.245  30.347  0.00  0.00    +0.020 A 
ATOM     23  C   UNL     1     -15.544   4.394  30.800  0.00  0.00    +0.011 A 
ATOM     24  C   UNL     1     -13.676   2.866  30.910  0.00  0.00    +0.011 A 
ATOM     26  C   UNL     1     -14.974   5.163  31.815  0.00  0.00    +0.001 A 
ATOM     27  C   UNL     1     -13.107   3.634  31.925  0.00  0.00    +0.001 A 
ATOM     28  C   UNL     1     -13.757   4.783  32.378  0.00  0.00    +0.000 A 
ENDBRANCH  17  18
ENDBRANCH  12  13
ENDBRANCH   8  12
TORSDOF 8
ENDMDL
MODEL 6
REMARK VINA RESULT:      -7.3      3.781      6.587
REMARK  Name = 75536313
REMARK  8 active torsions:
REMARK  status: ('A' for Active; 'I' for Inactive)
REMARK    1  A    between atoms: O_2  and  C_7
REMARK    2  A    between atoms: N_4  and  C_11
REMARK    3  A    between atoms: N_4  and  C_14
REMARK    4  A    between atoms: C_6  and  C_11
REMARK    5  A    between atoms: C_8  and  C_12
REMARK    6  A    between atoms: C_12  and  C_13
REMARK    7  A    between atoms: C_14  and  C_16
REMARK    8  A    between atoms: C_17  and  C_18
REMARK                            x       y       z     vdW  Elec       q    Type
REMARK                         _______ _______ _______ _____ _____    ______ ____
ROOT
ATOM      1  O   UNL     1      12.838  11.400  23.986  0.00  0.00    -0.369 OA
ATOM      6  C   UNL     1      11.509  11.210  24.489  0.00  0.00    +0.161 C 
ATOM      7  C   UNL     1      10.857  12.549  24.858  0.00  0.00    +0.145 C 
ATOM      8  C   UNL     1      12.946  12.289  22.872  0.00  0.00    +0.125 C 
ATOM      9  C   UNL     1      10.976  13.581  23.741  0.00  0.00    +0.036 C 
ATOM     10  C   UNL     1      12.413  13.674  23.234  0.00  0.00    +0.034 C 
ENDROOT
BRANCH   7   2
ATOM      2  O   UNL     1      11.512  13.078  26.013  0.00  0.00    -0.389 OA
ATOM     30  H   UNL     1      11.117  12.654  26.795  0.00  0.00    +0.210 HD
ENDBRANCH   7   2
BRANCH   6  11
ATOM     11  C   UNL     1      10.667  10.382  23.520  0.00  0.00    +0.115 C 
BRANCH  11   4
ATOM      4  N   UNL     1      11.381   9.187  23.103  0.00  0.00    -0.309 NA
ATOM     29  H   UNL     1      12.237   9.456  22.619  0.00  0.00    +0.122 HD
BRANCH   4  14
ATOM     14  C   UNL     1      10.557   8.364  22.228  0.00  0.00    +0.116 C 
BRANCH  14  16
ATOM     16  C   UNL     1      11.271   8.018  20.948  0.00  0.00    -0.034 A 
ATOM     19  C   UNL     1      12.154   6.940  20.910  0.00  0.00    +0.005 A 
ATOM     20  C   UNL     1      11.049   8.778  19.799  0.00  0.00    +0.005 A 
ATOM     21  C   UNL     1      12.814   6.620  19.723  0.00  0.00    +0.000 A 
ATOM     22  C   UNL     1      11.709   8.459  18.613  0.00  0.00    +0.000 A 
ATOM     25  C   UNL     1      12.593   7.381  18.575  0.00  0.00    +0.000 A 
ENDBRANCH  14  16
ENDBRANCH   4  14
ENDBRANCH  11   4
ENDBRANCH   6  11
BRANCH   8  12
ATOM     12  C   UNL     1      14.418  12.359  22.483  0.00  0.00    +0.090 C 
BRANCH  12  13
ATOM      3  O   UNL     1      14.812   9.229  20.738  0.00  0.00    -0.354 OA
ATOM      5  N   UNL     1      14.062  10.329  21.136  0.00  0.00    -0.083 NA
ATOM     13  C   UNL     1      14.896  11.068  21.874  0.00  0.00    +0.087 A 
ATOM     15  C   UNL     1      16.173  10.489  21.976  0.00  0.00    +0.076 A 
ATOM     17  C   UNL     1      16.067   9.336  21.244  0.00  0.00    +0.167 A 
BRANCH  17  18
ATOM     18  C   UNL     1      16.964   8.268  20.913  0.00  0.00    +0.020 A 
ATOM     23  C   UNL     1      16.570   7.280  20.010  0.00  0.00    +0.011 A 
ATOM     24  C   UNL     1      18.231   8.216  21.494  0.00  0.00    +0.011 A 
ATOM     26  C   UNL     1      17.443   6.240  19.689  0.00  0.00    +0.001 A 
ATOM     27  C   UNL     1      19.104   7.177  21.172  0.00  0.00    +0.001 A 
ATOM     28  C   UNL     1      18.710   6.189  20.269  0.00  0.00    +0.000 A 
ENDBRANCH  17  18
ENDBRANCH  12  13
ENDBRANCH   8  12
TORSDOF 8
ENDMDL
MODEL 7
REMARK VINA RESULT:      -7.1     13.756     17.384
REMARK  Name = 75536313
REMARK  8 active torsions:
REMARK  status: ('A' for Active; 'I' for Inactive)
REMARK    1  A    between atoms: O_2  and  C_7
REMARK    2  A    between atoms: N_4  and  C_11
REMARK    3  A    between atoms: N_4  and  C_14
REMARK    4  A    between atoms: C_6  and  C_11
REMARK    5  A    between atoms: C_8  and  C_12
REMARK    6  A    between atoms: C_12  and  C_13
REMARK    7  A    between atoms: C_14  and  C_16
REMARK    8  A    between atoms: C_17  and  C_18
REMARK                            x       y       z     vdW  Elec       q    Type
REMARK                         _______ _______ _______ _____ _____    ______ ____
ROOT
ATOM      1  O   UNL     1      13.194   4.919   1.994  0.00  0.00    -0.369 OA
ATOM      6  C   UNL     1      14.532   5.377   1.759  0.00  0.00    +0.161 C 
ATOM      7  C   UNL     1      15.328   4.369   0.921  0.00  0.00    +0.145 C 
ATOM      8  C   UNL     1      12.445   4.603   0.818  0.00  0.00    +0.125 C 
ATOM      9  C   UNL     1      14.574   3.931  -0.331  0.00  0.00    +0.036 C 
ATOM     10  C   UNL     1      13.146   3.513   0.009  0.00  0.00    +0.034 C 
ENDROOT
BRANCH   7   2
ATOM      2  O   UNL     1      15.574   3.203   1.712  0.00  0.00    -0.389 OA
ATOM     30  H   UNL     1      14.864   3.144   2.376  0.00  0.00    +0.210 HD
ENDBRANCH   7   2
BRANCH   6  11
ATOM     11  C   UNL     1      14.536   6.784   1.164  0.00  0.00    +0.115 C 
BRANCH  11   4
ATOM      4  N   UNL     1      14.420   7.789   2.209  0.00  0.00    -0.309 NA
ATOM     29  H   UNL     1      14.964   8.611   1.949  0.00  0.00    +0.122 HD
BRANCH   4  14
ATOM     14  C   UNL     1      14.889   7.271   3.487  0.00  0.00    +0.116 C 
BRANCH  14  16
ATOM     16  C   UNL     1      13.974   7.658   4.619  0.00  0.00    -0.034 A 
ATOM     19  C   UNL     1      14.247   7.226   5.916  0.00  0.00    +0.005 A 
ATOM     20  C   UNL     1      12.853   8.449   4.369  0.00  0.00    +0.005 A 
ATOM     21  C   UNL     1      13.399   7.585   6.964  0.00  0.00    +0.000 A 
ATOM     22  C   UNL     1      12.005   8.808   5.416  0.00  0.00    +0.000 A 
ATOM     25  C   UNL     1      12.277   8.376   6.714  0.00  0.00    +0.000 A 
ENDBRANCH  14  16
ENDBRANCH   4  14
ENDBRANCH  11   4
ENDBRANCH   6  11
BRANCH   8  12
ATOM     12  C   UNL     1      11.062   4.142   1.266  0.00  0.00    +0.090 C 
BRANCH  12  13
ATOM      3  O   UNL     1       9.699   6.609   3.513  0.00  0.00    -0.354 OA
ATOM      5  N   UNL     1      10.060   6.165   2.246  0.00  0.00    -0.083 NA
ATOM     13  C   UNL     1      10.561   4.942   2.438  0.00  0.00    +0.087 A 
ATOM     15  C   UNL     1      10.543   4.564   3.792  0.00  0.00    +0.076 A 
ATOM     17  C   UNL     1       9.991   5.647   4.424  0.00  0.00    +0.167 A 
BRANCH  17  18
ATOM     18  C   UNL     1       9.670   5.962   5.786  0.00  0.00    +0.020 A 
ATOM     23  C   UNL     1       8.862   7.062   6.076  0.00  0.00    +0.011 A 
ATOM     24  C   UNL     1      10.165   5.169   6.821  0.00  0.00    +0.011 A 
ATOM     26  C   UNL     1       8.550   7.368   7.401  0.00  0.00    +0.001 A 
ATOM     27  C   UNL     1       9.853   5.475   8.145  0.00  0.00    +0.001 A 
ATOM     28  C   UNL     1       9.045   6.575   8.435  0.00  0.00    +0.000 A 
ENDBRANCH  17  18
ENDBRANCH  12  13
ENDBRANCH   8  12
TORSDOF 8
ENDMDL
MODEL 8
REMARK VINA RESULT:      -7.1     26.987     28.942
REMARK  Name = 75536313
REMARK  8 active torsions:
REMARK  status: ('A' for Active; 'I' for Inactive)
REMARK    1  A    between atoms: O_2  and  C_7
REMARK    2  A    between atoms: N_4  and  C_11
REMARK    3  A    between atoms: N_4  and  C_14
REMARK    4  A    between atoms: C_6  and  C_11
REMARK    5  A    between atoms: C_8  and  C_12
REMARK    6  A    between atoms: C_12  and  C_13
REMARK    7  A    between atoms: C_14  and  C_16
REMARK    8  A    between atoms: C_17  and  C_18
REMARK                            x       y       z     vdW  Elec       q    Type
REMARK                         _______ _______ _______ _____ _____    ______ ____
ROOT
ATOM      1  O   UNL     1      -6.247 -10.570  17.269  0.00  0.00    -0.369 OA
ATOM      6  C   UNL     1      -5.411 -11.045  18.332  0.00  0.00    +0.161 C 
ATOM      7  C   UNL     1      -6.211 -11.238  19.627  0.00  0.00    +0.145 C 
ATOM      8  C   UNL     1      -7.392 -11.379  16.988  0.00  0.00    +0.125 C 
ATOM      9  C   UNL     1      -7.486 -12.047  19.407  0.00  0.00    +0.036 C 
ATOM     10  C   UNL     1      -8.282 -11.501  18.224  0.00  0.00    +0.034 C 
ENDROOT
BRANCH   7   2
ATOM      2  O   UNL     1      -6.590  -9.954  20.131  0.00  0.00    -0.389 OA
ATOM     30  H   UNL     1      -6.691  -9.358  19.368  0.00  0.00    +0.210 HD
ENDBRANCH   7   2
BRANCH   6  11
ATOM     11  C   UNL     1      -4.644 -12.298  17.912  0.00  0.00    +0.115 C 
BRANCH  11   4
ATOM      4  N   UNL     1      -3.734 -12.005  16.816  0.00  0.00    -0.309 NA
ATOM     29  H   UNL     1      -3.684 -10.996  16.679  0.00  0.00    +0.122 HD
BRANCH   4  14
ATOM     14  C   UNL     1      -4.175 -12.649  15.586  0.00  0.00    +0.116 C 
BRANCH  14  16
ATOM     16  C   UNL     1      -3.427 -12.135  14.384  0.00  0.00    -0.034 A 
ATOM     19  C   UNL     1      -2.932 -10.832  14.376  0.00  0.00    +0.005 A 
ATOM     20  C   UNL     1      -3.231 -12.963  13.279  0.00  0.00    +0.005 A 
ATOM     21  C   UNL     1      -2.239 -10.356  13.262  0.00  0.00    +0.000 A 
ATOM     22  C   UNL     1      -2.539 -12.488  12.166  0.00  0.00    +0.000 A 
ATOM     25  C   UNL     1      -2.043 -11.184  12.156  0.00  0.00    +0.000 A 
ENDBRANCH  14  16
ENDBRANCH   4  14
ENDBRANCH  11   4
ENDBRANCH   6  11
BRANCH   8  12
ATOM     12  C   UNL     1      -8.146 -10.720  15.839  0.00  0.00    +0.090 C 
BRANCH  12  13
ATOM      3  O   UNL     1      -6.697 -11.973  12.786  0.00  0.00    -0.354 OA
ATOM      5  N   UNL     1      -7.406 -12.140  13.969  0.00  0.00    -0.083 NA
ATOM     13  C   UNL     1      -7.446 -10.924  14.523  0.00  0.00    +0.087 A 
ATOM     15  C   UNL     1      -6.785  -9.960  13.741  0.00  0.00    +0.076 A 
ATOM     17  C   UNL     1      -6.333 -10.671  12.661  0.00  0.00    +0.167 A 
BRANCH  17  18
ATOM     18  C   UNL     1      -5.592 -10.343  11.479  0.00  0.00    +0.020 A 
ATOM     23  C   UNL     1      -5.404 -11.303  10.484  0.00  0.00    +0.011 A 
ATOM     24  C   UNL     1      -5.058  -9.064  11.322  0.00  0.00    +0.011 A 
ATOM     26  C   UNL     1      -4.682 -10.983   9.333  0.00  0.00    +0.001 A 
ATOM     27  C   UNL     1      -4.337  -8.744  10.173  0.00  0.00    +0.001 A 
ATOM     28  C   UNL     1      -4.149  -9.704   9.178  0.00  0.00    +0.000 A 
ENDBRANCH  17  18
ENDBRANCH  12  13
ENDBRANCH   8  12
TORSDOF 8
ENDMDL
MODEL 9
REMARK VINA RESULT:      -7.0     28.737     31.161
REMARK  Name = 75536313
REMARK  8 active torsions:
REMARK  status: ('A' for Active; 'I' for Inactive)
REMARK    1  A    between atoms: O_2  and  C_7
REMARK    2  A    between atoms: N_4  and  C_11
REMARK    3  A    between atoms: N_4  and  C_14
REMARK    4  A    between atoms: C_6  and  C_11
REMARK    5  A    between atoms: C_8  and  C_12
REMARK    6  A    between atoms: C_12  and  C_13
REMARK    7  A    between atoms: C_14  and  C_16
REMARK    8  A    between atoms: C_17  and  C_18
REMARK                            x       y       z     vdW  Elec       q    Type
REMARK                         _______ _______ _______ _____ _____    ______ ____
ROOT
ATOM      1  O   UNL     1     -13.745   1.854  31.058  0.00  0.00    -0.369 OA
ATOM      6  C   UNL     1     -14.002   1.346  29.742  0.00  0.00    +0.161 C 
ATOM      7  C   UNL     1     -14.217  -0.173  29.763  0.00  0.00    +0.145 C 
ATOM      8  C   UNL     1     -14.743   1.542  32.034  0.00  0.00    +0.125 C 
ATOM      9  C   UNL     1     -15.230  -0.601  30.821  0.00  0.00    +0.036 C 
ATOM     10  C   UNL     1     -14.907   0.030  32.173  0.00  0.00    +0.034 C 
ENDROOT
BRANCH   7   2
ATOM      2  O   UNL     1     -12.974  -0.811  30.064  0.00  0.00    -0.389 OA
ATOM     30  H   UNL     1     -12.420  -0.769  29.265  0.00  0.00    +0.210 HD
ENDBRANCH   7   2
BRANCH   6  11
ATOM     11  C   UNL     1     -15.147   2.103  29.072  0.00  0.00    +0.115 C 
BRANCH  11   4
ATOM      4  N   UNL     1     -14.917   3.538  29.120  0.00  0.00    -0.309 NA
ATOM     29  H   UNL     1     -14.749   3.821  30.084  0.00  0.00    +0.122 HD
BRANCH   4  14
ATOM     14  C   UNL     1     -16.058   4.268  28.583  0.00  0.00    +0.116 C 
BRANCH  14  16
ATOM     16  C   UNL     1     -16.834   4.971  29.665  0.00  0.00    -0.034 A 
ATOM     19  C   UNL     1     -17.301   6.268  29.459  0.00  0.00    +0.005 A 
ATOM     20  C   UNL     1     -17.085   4.323  30.875  0.00  0.00    +0.005 A 
ATOM     21  C   UNL     1     -18.019   6.919  30.462  0.00  0.00    +0.000 A 
ATOM     22  C   UNL     1     -17.803   4.973  31.877  0.00  0.00    +0.000 A 
ATOM     25  C   UNL     1     -18.270   6.271  31.672  0.00  0.00    +0.000 A 
ENDBRANCH  14  16
ENDBRANCH   4  14
ENDBRANCH  11   4
ENDBRANCH   6  11
BRANCH   8  12
ATOM     12  C   UNL     1     -14.300   2.163  33.354  0.00  0.00    +0.090 C 
BRANCH  12  13
ATOM      3  O   UNL     1     -15.006   5.657  33.894  0.00  0.00    -0.354 OA
ATOM      5  N   UNL     1     -15.156   4.310  34.202  0.00  0.00    -0.083 NA
ATOM     13  C   UNL     1     -14.386   3.665  33.320  0.00  0.00    +0.087 A 
ATOM     15  C   UNL     1     -13.732   4.545  32.440  0.00  0.00    +0.076 A 
ATOM     17  C   UNL     1     -14.155   5.783  32.843  0.00  0.00    +0.167 A 
BRANCH  17  18
ATOM     18  C   UNL     1     -13.899   7.126  32.410  0.00  0.00    +0.020 A 
ATOM     23  C   UNL     1     -14.921   7.881  31.833  0.00  0.00    +0.011 A 
ATOM     24  C   UNL     1     -12.627   7.678  32.564  0.00  0.00    +0.011 A 
ATOM     26  C   UNL     1     -14.671   9.187  31.412  0.00  0.00    +0.001 A 
ATOM     27  C   UNL     1     -12.377   8.983  32.143  0.00  0.00    +0.001 A 
ATOM     28  C   UNL     1     -13.400   9.738  31.567  0.00  0.00    +0.000 A 
ENDBRANCH  17  18
ENDBRANCH  12  13
ENDBRANCH   8  12
TORSDOF 8
ENDMDL
MODEL 10
REMARK VINA RESULT:      -6.9     27.467     29.135
REMARK  Name = 75536313
REMARK  8 active torsions:
REMARK  status: ('A' for Active; 'I' for Inactive)
REMARK    1  A    between atoms: O_2  and  C_7
REMARK    2  A    between atoms: N_4  and  C_11
REMARK    3  A    between atoms: N_4  and  C_14
REMARK    4  A    between atoms: C_6  and  C_11
REMARK    5  A    between atoms: C_8  and  C_12
REMARK    6  A    between atoms: C_12  and  C_13
REMARK    7  A    between atoms: C_14  and  C_16
REMARK    8  A    between atoms: C_17  and  C_18
REMARK                            x       y       z     vdW  Elec       q    Type
REMARK                         _______ _______ _______ _____ _____    ______ ____
ROOT
ATOM      1  O   UNL     1      -4.207  -9.788  12.343  0.00  0.00    -0.369 OA
ATOM      6  C   UNL     1      -5.253  -9.327  11.478  0.00  0.00    +0.161 C 
ATOM      7  C   UNL     1      -4.919  -9.599  10.005  0.00  0.00    +0.145 C 
ATOM      8  C   UNL     1      -3.859 -11.167  12.195  0.00  0.00    +0.125 C 
ATOM      9  C   UNL     1      -4.480 -11.041   9.766  0.00  0.00    +0.036 C 
ATOM     10  C   UNL     1      -3.406 -11.458  10.766  0.00  0.00    +0.034 C 
ENDROOT
BRANCH   7   2
ATOM      2  O   UNL     1      -3.842  -8.744   9.611  0.00  0.00    -0.389 OA
ATOM     30  H   UNL     1      -4.028  -8.435   8.708  0.00  0.00    +0.210 HD
ENDBRANCH   7   2
BRANCH   6  11
ATOM     11  C   UNL     1      -6.607  -9.897  11.898  0.00  0.00    +0.115 C 
BRANCH  11   4
ATOM      4  N   UNL     1      -6.845  -9.675  13.315  0.00  0.00    -0.309 NA
ATOM     29  H   UNL     1      -5.952  -9.566  13.795  0.00  0.00    +0.122 HD
BRANCH   4  14
ATOM     14  C   UNL     1      -7.587 -10.784  13.900  0.00  0.00    +0.116 C 
BRANCH  14  16
ATOM     16  C   UNL     1      -8.146 -10.433  15.253  0.00  0.00    -0.034 A 
ATOM     19  C   UNL     1      -7.550  -9.430  16.016  0.00  0.00    +0.005 A 
ATOM     20  C   UNL     1      -9.261 -11.113  15.744  0.00  0.00    +0.005 A 
ATOM     21  C   UNL     1      -8.068  -9.106  17.270  0.00  0.00    +0.000 A 
ATOM     22  C   UNL     1      -9.779 -10.789  16.997  0.00  0.00    +0.000 A 
ATOM     25  C   UNL     1      -9.183  -9.786  17.761  0.00  0.00    +0.000 A 
ENDBRANCH  14  16
ENDBRANCH   4  14
ENDBRANCH  11   4
ENDBRANCH   6  11
BRANCH   8  12
ATOM     12  C   UNL     1      -2.744 -11.467  13.191  0.00  0.00    +0.090 C 
BRANCH  12  13
ATOM      3  O   UNL     1      -3.199 -10.996  16.735  0.00  0.00    -0.354 OA
ATOM      5  N   UNL     1      -2.452 -10.899  15.568  0.00  0.00    -0.083 NA
ATOM     13  C   UNL     1      -3.235 -11.408  14.612  0.00  0.00    +0.087 A 
ATOM     15  C   UNL     1      -4.477 -11.837  15.112  0.00  0.00    +0.076 A 
ATOM     17  C   UNL     1      -4.403 -11.555  16.451  0.00  0.00    +0.167 A 
BRANCH  17  18
ATOM     18  C   UNL     1      -5.292 -11.718  17.564  0.00  0.00    +0.020 A 
ATOM     23  C   UNL     1      -5.164 -10.898  18.685  0.00  0.00    +0.011 A 
ATOM     24  C   UNL     1      -6.284 -12.698  17.527  0.00  0.00    +0.011 A 
ATOM     26  C   UNL     1      -6.029 -11.057  19.768  0.00  0.00    +0.001 A 
ATOM     27  C   UNL     1      -7.149 -12.857  18.609  0.00  0.00    +0.001 A 
ATOM     28  C   UNL     1      -7.021 -12.036  19.730  0.00  0.00    +0.000 A 
ENDBRANCH  17  18
ENDBRANCH  12  13
ENDBRANCH   8  12
TORSDOF 8
ENDMDL
