MODEL 1
REMARK VINA RESULT:      -8.0      0.000      0.000
REMARK  Name = 7142364
REMARK  7 active torsions:
REMARK  status: ('A' for Active; 'I' for Inactive)
REMARK    1  A    between atoms: C_14  and  C_15
REMARK    2  A    between atoms: C_14  and  C_20
REMARK    3  A    between atoms: C_14  and  C_21
REMARK    4  A    between atoms: C_14  and  C_22
REMARK    5  A    between atoms: C_15  and  C_16
REMARK    6  A    between atoms: C_26  and  C_28
REMARK    7  A    between atoms: C_31  and  C_34
REMARK                            x       y       z     vdW  Elec       q    Type
REMARK                         _______ _______ _______ _____ _____    ______ ____
ROOT
ATOM      4  O   UNL     1     -13.563 -12.592  19.356  0.00  0.00    -0.276 OA
ATOM      5  O   UNL     1     -10.118 -10.943  20.349  0.00  0.00    -0.273 OA
ATOM      6  O   UNL     1      -8.355  -8.867  15.820  0.00  0.00    -0.270 OA
ATOM      7  N   UNL     1     -12.227 -11.058  18.230  0.00  0.00    -0.298 N 
ATOM      8  N   UNL     1      -9.658 -10.224  17.166  0.00  0.00    -0.283 N 
ATOM      9  N   UNL     1      -7.996 -10.680  19.572  0.00  0.00    -0.283 N 
ATOM     10  C   UNL     1      -9.759 -11.408  18.008  0.00  0.00    +0.180 C 
ATOM     11  C   UNL     1     -11.160 -12.033  17.986  0.00  0.00    +0.139 C 
ATOM     12  C   UNL     1     -12.013  -9.702  17.719  0.00  0.00    +0.127 C 
ATOM     13  C   UNL     1     -10.907  -9.642  16.674  0.00  0.00    +0.128 C 
ATOM     16  C   UNL     1     -13.373 -11.453  18.922  0.00  0.00    +0.216 C 
ATOM     17  C   UNL     1      -9.333 -10.966  19.400  0.00  0.00    +0.239 C 
ATOM     18  C   UNL     1      -8.445  -9.745  16.679  0.00  0.00    +0.249 C 
ATOM     19  C   UNL     1      -7.179 -10.291  17.238  0.00  0.00    +0.059 A 
ATOM     23  C   UNL     1      -6.985 -10.614  18.591  0.00  0.00    +0.046 A 
ATOM     24  C   UNL     1      -6.078 -10.303  16.362  0.00  0.00    +0.023 A 
ATOM     25  C   UNL     1      -5.680 -10.871  19.048  0.00  0.00    +0.024 A 
ATOM     26  C   UNL     1      -4.798 -10.609  16.823  0.00  0.00    -0.017 A 
ATOM     27  C   UNL     1      -4.597 -10.880  18.169  0.00  0.00    +0.010 A 
ATOM     35  H   UNL     1      -7.686 -10.605  20.538  0.00  0.00    +0.155 HD
ENDROOT
BRANCH  26  28
ATOM     28  C   UNL     1      -3.680 -10.620  15.906  0.00  0.00    -0.017 A 
ATOM     29  C   UNL     1      -3.905 -10.615  14.529  0.00  0.00    +0.021 A 
ATOM     30  C   UNL     1      -2.375 -10.638  16.397  0.00  0.00    +0.008 A 
ATOM     31  C   UNL     1      -2.827 -10.627  13.645  0.00  0.00    +0.055 A 
ATOM     32  C   UNL     1      -1.296 -10.650  15.514  0.00  0.00    +0.001 A 
ATOM     33  C   UNL     1      -1.522 -10.645  14.138  0.00  0.00    +0.012 A 
BRANCH  31  34
ATOM      1  F   UNL     1      -2.122  -9.934  11.466  0.00  0.00    -0.166 F 
ATOM      2  F   UNL     1      -3.091 -11.868  11.618  0.00  0.00    -0.166 F 
ATOM      3  F   UNL     1      -4.261 -10.049  11.838  0.00  0.00    -0.166 F 
ATOM     34  C   UNL     1      -3.068 -10.621  12.173  0.00  0.00    +0.417 C 
ENDBRANCH  31  34
ENDBRANCH  26  28
BRANCH  16  15
ATOM     15  C   UNL     1     -14.424 -10.391  19.129  0.00  0.00    +0.102 C 
BRANCH  15  14
ATOM     14  C   UNL     1     -14.500  -9.902  20.586  0.00  0.00    -0.029 C 
ATOM     20  C   UNL     1     -13.115  -9.479  21.104  0.00  0.00    +0.011 C 
ATOM     21  C   UNL     1     -15.080 -10.990  21.508  0.00  0.00    +0.011 C 
ATOM     22  C   UNL     1     -15.434  -8.678  20.624  0.00  0.00    +0.011 C 
ENDBRANCH  15  14
ENDBRANCH  16  15
TORSDOF 4
ENDMDL
MODEL 2
REMARK VINA RESULT:      -7.6     28.449     32.316
REMARK  Name = 7142364
REMARK  7 active torsions:
REMARK  status: ('A' for Active; 'I' for Inactive)
REMARK    1  A    between atoms: C_14  and  C_15
REMARK    2  A    between atoms: C_14  and  C_20
REMARK    3  A    between atoms: C_14  and  C_21
REMARK    4  A    between atoms: C_14  and  C_22
REMARK    5  A    between atoms: C_15  and  C_16
REMARK    6  A    between atoms: C_26  and  C_28
REMARK    7  A    between atoms: C_31  and  C_34
REMARK                            x       y       z     vdW  Elec       q    Type
REMARK                         _______ _______ _______ _____ _____    ______ ____
ROOT
ATOM      4  O   UNL     1      13.430   9.558  21.303  0.00  0.00    -0.276 OA
ATOM      5  O   UNL     1      17.323   9.919  20.765  0.00  0.00    -0.273 OA
ATOM      6  O   UNL     1      18.896   5.016  19.574  0.00  0.00    -0.270 OA
ATOM      7  N   UNL     1      14.972   8.122  20.322  0.00  0.00    -0.298 N 
ATOM      8  N   UNL     1      17.473   6.648  20.387  0.00  0.00    -0.283 N 
ATOM      9  N   UNL     1      19.276   8.843  21.217  0.00  0.00    -0.283 N 
ATOM     10  C   UNL     1      17.153   7.607  21.436  0.00  0.00    +0.180 C 
ATOM     11  C   UNL     1      15.643   7.832  21.592  0.00  0.00    +0.139 C 
ATOM     12  C   UNL     1      15.502   7.459  19.127  0.00  0.00    +0.127 C 
ATOM     13  C   UNL     1      16.396   6.274  19.469  0.00  0.00    +0.128 C 
ATOM     16  C   UNL     1      13.884   8.996  20.303  0.00  0.00    +0.216 C 
ATOM     17  C   UNL     1      17.905   8.880  21.079  0.00  0.00    +0.239 C 
ATOM     18  C   UNL     1      18.681   5.960  20.336  0.00  0.00    +0.249 C 
ATOM     19  C   UNL     1      19.795   6.395  21.221  0.00  0.00    +0.059 A 
ATOM     23  C   UNL     1      20.093   7.734  21.520  0.00  0.00    +0.046 A 
ATOM     24  C   UNL     1      20.690   5.384  21.620  0.00  0.00    +0.023 A 
ATOM     25  C   UNL     1      21.314   8.035  22.148  0.00  0.00    +0.024 A 
ATOM     26  C   UNL     1      21.873   5.698  22.286  0.00  0.00    -0.017 A 
ATOM     27  C   UNL     1      22.192   7.025  22.539  0.00  0.00    +0.010 A 
ATOM     35  H   UNL     1      19.741   9.747  21.194  0.00  0.00    +0.155 HD
ENDROOT
BRANCH  26  28
ATOM     28  C   UNL     1      22.778   4.644  22.693  0.00  0.00    -0.017 A 
ATOM     29  C   UNL     1      23.284   3.754  21.746  0.00  0.00    +0.021 A 
ATOM     30  C   UNL     1      23.145   4.518  24.033  0.00  0.00    +0.008 A 
ATOM     31  C   UNL     1      24.155   2.738  22.137  0.00  0.00    +0.055 A 
ATOM     32  C   UNL     1      24.016   3.503  24.425  0.00  0.00    +0.001 A 
ATOM     33  C   UNL     1      24.521   2.613  23.477  0.00  0.00    +0.012 A 
BRANCH  31  34
ATOM      1  F   UNL     1      24.129   0.545  21.181  0.00  0.00    -0.166 F 
ATOM      2  F   UNL     1      24.517   2.201  19.835  0.00  0.00    -0.166 F 
ATOM      3  F   UNL     1      26.039   1.581  21.260  0.00  0.00    -0.166 F 
ATOM     34  C   UNL     1      24.696   1.786  21.125  0.00  0.00    +0.417 C 
ENDBRANCH  31  34
ENDBRANCH  26  28
BRANCH  16  15
ATOM     15  C   UNL     1      13.248   9.238  18.957  0.00  0.00    +0.102 C 
BRANCH  15  14
ATOM     14  C   UNL     1      11.974   8.403  18.741  0.00  0.00    -0.029 C 
ATOM     20  C   UNL     1      11.357   8.676  17.359  0.00  0.00    +0.011 C 
ATOM     21  C   UNL     1      10.928   8.691  19.833  0.00  0.00    +0.011 C 
ATOM     22  C   UNL     1      12.366   6.916  18.818  0.00  0.00    +0.011 C 
ENDBRANCH  15  14
ENDBRANCH  16  15
TORSDOF 4
ENDMDL
MODEL 3
REMARK VINA RESULT:      -7.5     28.428     32.094
REMARK  Name = 7142364
REMARK  7 active torsions:
REMARK  status: ('A' for Active; 'I' for Inactive)
REMARK    1  A    between atoms: C_14  and  C_15
REMARK    2  A    between atoms: C_14  and  C_20
REMARK    3  A    between atoms: C_14  and  C_21
REMARK    4  A    between atoms: C_14  and  C_22
REMARK    5  A    between atoms: C_15  and  C_16
REMARK    6  A    between atoms: C_26  and  C_28
REMARK    7  A    between atoms: C_31  and  C_34
REMARK                            x       y       z     vdW  Elec       q    Type
REMARK                         _______ _______ _______ _____ _____    ______ ____
ROOT
ATOM      4  O   UNL     1      13.650   9.007  21.910  0.00  0.00    -0.276 OA
ATOM      5  O   UNL     1      17.519   9.386  21.233  0.00  0.00    -0.273 OA
ATOM      6  O   UNL     1      18.851   4.825  18.918  0.00  0.00    -0.270 OA
ATOM      7  N   UNL     1      15.086   7.783  20.552  0.00  0.00    -0.298 N 
ATOM      8  N   UNL     1      17.532   6.273  20.148  0.00  0.00    -0.283 N 
ATOM      9  N   UNL     1      19.454   8.191  21.325  0.00  0.00    -0.283 N 
ATOM     10  C   UNL     1      17.302   6.987  21.396  0.00  0.00    +0.180 C 
ATOM     11  C   UNL     1      15.812   7.208  21.687  0.00  0.00    +0.139 C 
ATOM     12  C   UNL     1      15.528   7.385  19.212  0.00  0.00    +0.127 C 
ATOM     13  C   UNL     1      16.395   6.134  19.236  0.00  0.00    +0.128 C 
ATOM     16  C   UNL     1      14.030   8.666  20.787  0.00  0.00    +0.216 C 
ATOM     17  C   UNL     1      18.079   8.289  21.280  0.00  0.00    +0.239 C 
ATOM     18  C   UNL     1      18.711   5.585  19.877  0.00  0.00    +0.249 C 
ATOM     19  C   UNL     1      19.884   5.790  20.768  0.00  0.00    +0.059 A 
ATOM     23  C   UNL     1      20.245   7.024  21.332  0.00  0.00    +0.046 A 
ATOM     24  C   UNL     1      20.763   4.696  20.885  0.00  0.00    +0.023 A 
ATOM     25  C   UNL     1      21.508   7.153  21.936  0.00  0.00    +0.024 A 
ATOM     26  C   UNL     1      21.990   4.829  21.532  0.00  0.00    -0.017 A 
ATOM     27  C   UNL     1      22.369   6.061  22.047  0.00  0.00    +0.010 A 
ATOM     35  H   UNL     1      19.949   9.068  21.470  0.00  0.00    +0.155 HD
ENDROOT
BRANCH  26  28
ATOM     28  C   UNL     1      22.877   3.691  21.647  0.00  0.00    -0.017 A 
ATOM     29  C   UNL     1      22.903   2.942  22.824  0.00  0.00    +0.021 A 
ATOM     30  C   UNL     1      23.707   3.344  20.582  0.00  0.00    +0.008 A 
ATOM     31  C   UNL     1      23.759   1.846  22.935  0.00  0.00    +0.055 A 
ATOM     32  C   UNL     1      24.563   2.248  20.692  0.00  0.00    +0.001 A 
ATOM     33  C   UNL     1      24.588   1.500  21.869  0.00  0.00    +0.012 A 
BRANCH  31  34
ATOM      1  F   UNL     1      22.557   0.585  24.575  0.00  0.00    -0.166 F 
ATOM      2  F   UNL     1      24.572  -0.069  24.113  0.00  0.00    -0.166 F 
ATOM      3  F   UNL     1      24.260   1.753  25.258  0.00  0.00    -0.166 F 
ATOM     34  C   UNL     1      23.786   1.045  24.192  0.00  0.00    +0.417 C 
ENDBRANCH  31  34
ENDBRANCH  26  28
BRANCH  16  15
ATOM     15  C   UNL     1      13.333   9.210  19.565  0.00  0.00    +0.102 C 
BRANCH  15  14
ATOM     14  C   UNL     1      12.086   8.396  19.178  0.00  0.00    -0.029 C 
ATOM     20  C   UNL     1      10.892   8.742  20.083  0.00  0.00    +0.011 C 
ATOM     21  C   UNL     1      12.363   6.884  19.253  0.00  0.00    +0.011 C 
ATOM     22  C   UNL     1      11.722   8.756  17.725  0.00  0.00    +0.011 C 
ENDBRANCH  15  14
ENDBRANCH  16  15
TORSDOF 4
ENDMDL
MODEL 4
REMARK VINA RESULT:      -7.5      1.497      2.213
REMARK  Name = 7142364
REMARK  7 active torsions:
REMARK  status: ('A' for Active; 'I' for Inactive)
REMARK    1  A    between atoms: C_14  and  C_15
REMARK    2  A    between atoms: C_14  and  C_20
REMARK    3  A    between atoms: C_14  and  C_21
REMARK    4  A    between atoms: C_14  and  C_22
REMARK    5  A    between atoms: C_15  and  C_16
REMARK    6  A    between atoms: C_26  and  C_28
REMARK    7  A    between atoms: C_31  and  C_34
REMARK                            x       y       z     vdW  Elec       q    Type
REMARK                         _______ _______ _______ _____ _____    ______ ____
ROOT
ATOM      4  O   UNL     1     -11.852 -12.330  20.590  0.00  0.00    -0.276 OA
ATOM      5  O   UNL     1      -8.314 -10.648  20.108  0.00  0.00    -0.273 OA
ATOM      6  O   UNL     1      -8.435  -8.851  15.139  0.00  0.00    -0.270 OA
ATOM      7  N   UNL     1     -11.067 -10.873  18.958  0.00  0.00    -0.298 N 
ATOM      8  N   UNL     1      -9.108 -10.119  16.953  0.00  0.00    -0.283 N 
ATOM      9  N   UNL     1      -6.650 -10.445  18.569  0.00  0.00    -0.283 N 
ATOM     10  C   UNL     1      -8.863 -11.251  17.836  0.00  0.00    +0.180 C 
ATOM     11  C   UNL     1     -10.157 -11.867  18.382  0.00  0.00    +0.139 C 
ATOM     12  C   UNL     1     -11.085  -9.550  18.328  0.00  0.00    +0.127 C 
ATOM     13  C   UNL     1     -10.460  -9.558  16.941  0.00  0.00    +0.128 C 
ATOM     16  C   UNL     1     -11.859 -11.219  20.054  0.00  0.00    +0.216 C 
ATOM     17  C   UNL     1      -7.948 -10.731  18.934  0.00  0.00    +0.239 C 
ATOM     18  C   UNL     1      -8.178  -9.677  16.016  0.00  0.00    +0.249 C 
ATOM     19  C   UNL     1      -6.787 -10.197  16.083  0.00  0.00    +0.059 A 
ATOM     23  C   UNL     1      -6.088 -10.442  17.276  0.00  0.00    +0.046 A 
ATOM     24  C   UNL     1      -6.100 -10.267  14.856  0.00  0.00    +0.023 A 
ATOM     25  C   UNL     1      -4.704 -10.680  17.217  0.00  0.00    +0.024 A 
ATOM     26  C   UNL     1      -4.736 -10.554  14.813  0.00  0.00    -0.017 A 
ATOM     27  C   UNL     1      -4.035 -10.748  15.995  0.00  0.00    +0.010 A 
ATOM     35  H   UNL     1      -5.999 -10.315  19.340  0.00  0.00    +0.155 HD
ENDROOT
BRANCH  26  28
ATOM     28  C   UNL     1      -4.049 -10.626  13.542  0.00  0.00    -0.017 A 
ATOM     29  C   UNL     1      -4.519  -9.894  12.452  0.00  0.00    +0.021 A 
ATOM     30  C   UNL     1      -2.916 -11.428  13.406  0.00  0.00    +0.008 A 
ATOM     31  C   UNL     1      -3.858  -9.964  11.226  0.00  0.00    +0.055 A 
ATOM     32  C   UNL     1      -2.254 -11.499  12.181  0.00  0.00    +0.001 A 
ATOM     33  C   UNL     1      -2.725 -10.767  11.091  0.00  0.00    +0.012 A 
BRANCH  31  34
ATOM      1  F   UNL     1      -4.994  -8.022  10.411  0.00  0.00    -0.166 F 
ATOM      2  F   UNL     1      -3.375  -8.798   9.194  0.00  0.00    -0.166 F 
ATOM      3  F   UNL     1      -5.260  -9.877   9.307  0.00  0.00    -0.166 F 
ATOM     34  C   UNL     1      -4.360  -9.181  10.060  0.00  0.00    +0.417 C 
ENDBRANCH  31  34
ENDBRANCH  26  28
BRANCH  16  15
ATOM     15  C   UNL     1     -12.770 -10.140  20.584  0.00  0.00    +0.102 C 
BRANCH  15  14
ATOM     14  C   UNL     1     -14.260 -10.458  20.368  0.00  0.00    -0.029 C 
ATOM     20  C   UNL     1     -14.487 -11.170  19.024  0.00  0.00    +0.011 C 
ATOM     21  C   UNL     1     -15.114  -9.179  20.420  0.00  0.00    +0.011 C 
ATOM     22  C   UNL     1     -14.711 -11.395  21.504  0.00  0.00    +0.011 C 
ENDBRANCH  15  14
ENDBRANCH  16  15
TORSDOF 4
ENDMDL
MODEL 5
REMARK VINA RESULT:      -7.3      6.687      9.988
REMARK  Name = 7142364
REMARK  7 active torsions:
REMARK  status: ('A' for Active; 'I' for Inactive)
REMARK    1  A    between atoms: C_14  and  C_15
REMARK    2  A    between atoms: C_14  and  C_20
REMARK    3  A    between atoms: C_14  and  C_21
REMARK    4  A    between atoms: C_14  and  C_22
REMARK    5  A    between atoms: C_15  and  C_16
REMARK    6  A    between atoms: C_26  and  C_28
REMARK    7  A    between atoms: C_31  and  C_34
REMARK                            x       y       z     vdW  Elec       q    Type
REMARK                         _______ _______ _______ _____ _____    ______ ____
ROOT
ATOM      4  O   UNL     1      -8.816  -6.942   6.003  0.00  0.00    -0.276 OA
ATOM      5  O   UNL     1      -6.006  -9.534   6.983  0.00  0.00    -0.273 OA
ATOM      6  O   UNL     1      -7.332 -11.049  11.869  0.00  0.00    -0.270 OA
ATOM      7  N   UNL     1      -8.716  -8.502   7.722  0.00  0.00    -0.298 N 
ATOM      8  N   UNL     1      -7.354  -9.708   9.986  0.00  0.00    -0.283 N 
ATOM      9  N   UNL     1      -4.703 -10.144   8.746  0.00  0.00    -0.283 N 
ATOM     10  C   UNL     1      -6.676  -8.722   9.155  0.00  0.00    +0.180 C 
ATOM     11  C   UNL     1      -7.652  -7.786   8.431  0.00  0.00    +0.139 C 
ATOM     12  C   UNL     1      -9.197  -9.744   8.334  0.00  0.00    +0.127 C 
ATOM     13  C   UNL     1      -8.797  -9.864   9.798  0.00  0.00    +0.128 C 
ATOM     16  C   UNL     1      -9.213  -7.986   6.525  0.00  0.00    +0.216 C 
ATOM     17  C   UNL     1      -5.801  -9.516   8.198  0.00  0.00    +0.239 C 
ATOM     18  C   UNL     1      -6.730 -10.360  11.045  0.00  0.00    +0.249 C 
ATOM     19  C   UNL     1      -5.253 -10.256  11.184  0.00  0.00    +0.059 A 
ATOM     23  C   UNL     1      -4.353 -10.259  10.107  0.00  0.00    +0.046 A 
ATOM     24  C   UNL     1      -4.755 -10.339  12.498  0.00  0.00    +0.023 A 
ATOM     25  C   UNL     1      -2.981 -10.419  10.367  0.00  0.00    +0.024 A 
ATOM     26  C   UNL     1      -3.386 -10.447  12.740  0.00  0.00    -0.017 A 
ATOM     27  C   UNL     1      -2.500 -10.500  11.674  0.00  0.00    +0.010 A 
ATOM     35  H   UNL     1      -4.013 -10.479   8.077  0.00  0.00    +0.155 HD
ENDROOT
BRANCH  26  28
ATOM     28  C   UNL     1      -2.894 -10.527  14.098  0.00  0.00    -0.017 A 
ATOM     29  C   UNL     1      -3.757 -10.881  15.135  0.00  0.00    +0.021 A 
ATOM     30  C   UNL     1      -1.555 -10.249  14.372  0.00  0.00    +0.008 A 
ATOM     31  C   UNL     1      -3.283 -10.957  16.444  0.00  0.00    +0.055 A 
ATOM     32  C   UNL     1      -1.079 -10.325  15.681  0.00  0.00    +0.001 A 
ATOM     33  C   UNL     1      -1.944 -10.679  16.717  0.00  0.00    +0.012 A 
BRANCH  31  34
ATOM      1  F   UNL     1      -3.564 -11.802  18.665  0.00  0.00    -0.166 F 
ATOM      2  F   UNL     1      -4.980 -10.302  17.996  0.00  0.00    -0.166 F 
ATOM      3  F   UNL     1      -5.080 -12.321  17.195  0.00  0.00    -0.166 F 
ATOM     34  C   UNL     1      -4.206 -11.336  17.552  0.00  0.00    +0.417 C 
ENDBRANCH  31  34
ENDBRANCH  26  28
BRANCH  16  15
ATOM     15  C   UNL     1     -10.309  -8.783   5.861  0.00  0.00    +0.102 C 
BRANCH  15  14
ATOM     14  C   UNL     1      -9.866  -9.410   4.528  0.00  0.00    -0.029 C 
ATOM     20  C   UNL     1      -8.334  -9.489   4.432  0.00  0.00    +0.011 C 
ATOM     21  C   UNL     1     -10.413  -8.614   3.330  0.00  0.00    +0.011 C 
ATOM     22  C   UNL     1     -10.437 -10.839   4.468  0.00  0.00    +0.011 C 
ENDBRANCH  15  14
ENDBRANCH  16  15
TORSDOF 4
ENDMDL
MODEL 6
REMARK VINA RESULT:      -7.3     22.020     25.588
REMARK  Name = 7142364
REMARK  7 active torsions:
REMARK  status: ('A' for Active; 'I' for Inactive)
REMARK    1  A    between atoms: C_14  and  C_15
REMARK    2  A    between atoms: C_14  and  C_20
REMARK    3  A    between atoms: C_14  and  C_21
REMARK    4  A    between atoms: C_14  and  C_22
REMARK    5  A    between atoms: C_15  and  C_16
REMARK    6  A    between atoms: C_26  and  C_28
REMARK    7  A    between atoms: C_31  and  C_34
REMARK                            x       y       z     vdW  Elec       q    Type
REMARK                         _______ _______ _______ _____ _____    ______ ____
ROOT
ATOM      4  O   UNL     1     -10.771  11.603  35.915  0.00  0.00    -0.276 OA
ATOM      5  O   UNL     1     -14.240  10.357  34.506  0.00  0.00    -0.273 OA
ATOM      6  O   UNL     1     -14.023   5.107  35.071  0.00  0.00    -0.270 OA
ATOM      7  N   UNL     1     -11.850   9.554  36.118  0.00  0.00    -0.298 N 
ATOM      8  N   UNL     1     -13.195   7.263  34.948  0.00  0.00    -0.283 N 
ATOM      9  N   UNL     1     -15.137   8.696  33.236  0.00  0.00    -0.283 N 
ATOM     10  C   UNL     1     -12.855   8.417  34.128  0.00  0.00    +0.180 C 
ATOM     11  C   UNL     1     -11.683   9.225  34.700  0.00  0.00    +0.139 C 
ATOM     12  C   UNL     1     -12.544   8.566  36.949  0.00  0.00    +0.127 C 
ATOM     13  C   UNL     1     -12.610   7.196  36.288  0.00  0.00    +0.128 C 
ATOM     16  C   UNL     1     -11.356  10.766  36.605  0.00  0.00    +0.216 C 
ATOM     17  C   UNL     1     -14.132   9.235  34.010  0.00  0.00    +0.239 C 
ATOM     18  C   UNL     1     -13.892   6.164  34.453  0.00  0.00    +0.249 C 
ATOM     19  C   UNL     1     -14.545   6.267  33.121  0.00  0.00    +0.059 A 
ATOM     23  C   UNL     1     -15.191   7.418  32.642  0.00  0.00    +0.046 A 
ATOM     24  C   UNL     1     -14.657   5.064  32.400  0.00  0.00    +0.023 A 
ATOM     25  C   UNL     1     -15.993   7.319  31.491  0.00  0.00    +0.024 A 
ATOM     26  C   UNL     1     -15.416   4.996  31.232  0.00  0.00    -0.017 A 
ATOM     27  C   UNL     1     -16.095   6.121  30.785  0.00  0.00    +0.010 A 
ATOM     35  H   UNL     1     -15.886   9.338  32.984  0.00  0.00    +0.155 HD
ENDROOT
BRANCH  26  28
ATOM     28  C   UNL     1     -15.515   3.751  30.502  0.00  0.00    -0.017 A 
ATOM     29  C   UNL     1     -15.227   2.544  31.138  0.00  0.00    +0.021 A 
ATOM     30  C   UNL     1     -15.898   3.758  29.161  0.00  0.00    +0.008 A 
ATOM     31  C   UNL     1     -15.321   1.343  30.434  0.00  0.00    +0.055 A 
ATOM     32  C   UNL     1     -15.993   2.558  28.456  0.00  0.00    +0.001 A 
ATOM     33  C   UNL     1     -15.704   1.351  29.093  0.00  0.00    +0.012 A 
BRANCH  31  34
ATOM      1  F   UNL     1     -14.913   0.160  32.473  0.00  0.00    -0.166 F 
ATOM      2  F   UNL     1     -15.955  -0.914  30.903  0.00  0.00    -0.166 F 
ATOM      3  F   UNL     1     -13.831  -0.491  30.702  0.00  0.00    -0.166 F 
ATOM     34  C   UNL     1     -15.013   0.052  31.114  0.00  0.00    +0.417 C 
ENDBRANCH  31  34
ENDBRANCH  26  28
BRANCH  16  15
ATOM     15  C   UNL     1     -11.567  11.026  38.076  0.00  0.00    +0.102 C 
BRANCH  15  14
ATOM     14  C   UNL     1     -10.298  10.786  38.913  0.00  0.00    -0.029 C 
ATOM     20  C   UNL     1      -9.629  12.114  39.302  0.00  0.00    +0.011 C 
ATOM     21  C   UNL     1      -9.288   9.908  38.151  0.00  0.00    +0.011 C 
ATOM     22  C   UNL     1     -10.715  10.049  40.199  0.00  0.00    +0.011 C 
ENDBRANCH  15  14
ENDBRANCH  16  15
TORSDOF 4
ENDMDL
MODEL 7
REMARK VINA RESULT:      -7.1     20.428     23.034
REMARK  Name = 7142364
REMARK  7 active torsions:
REMARK  status: ('A' for Active; 'I' for Inactive)
REMARK    1  A    between atoms: C_14  and  C_15
REMARK    2  A    between atoms: C_14  and  C_20
REMARK    3  A    between atoms: C_14  and  C_21
REMARK    4  A    between atoms: C_14  and  C_22
REMARK    5  A    between atoms: C_15  and  C_16
REMARK    6  A    between atoms: C_26  and  C_28
REMARK    7  A    between atoms: C_31  and  C_34
REMARK                            x       y       z     vdW  Elec       q    Type
REMARK                         _______ _______ _______ _____ _____    ______ ____
ROOT
ATOM      4  O   UNL     1       9.000  -4.748  37.977  0.00  0.00    -0.276 OA
ATOM      5  O   UNL     1       7.101  -5.200  34.547  0.00  0.00    -0.273 OA
ATOM      6  O   UNL     1       5.343 -10.181  34.721  0.00  0.00    -0.270 OA
ATOM      7  N   UNL     1       7.505  -6.381  37.267  0.00  0.00    -0.298 N 
ATOM      8  N   UNL     1       6.640  -8.367  35.334  0.00  0.00    -0.283 N 
ATOM      9  N   UNL     1       6.802  -6.720  32.881  0.00  0.00    -0.283 N 
ATOM     10  C   UNL     1       7.750  -7.475  35.029  0.00  0.00    +0.180 C 
ATOM     11  C   UNL     1       8.443  -6.939  36.289  0.00  0.00    +0.139 C 
ATOM     12  C   UNL     1       6.189  -7.018  37.360  0.00  0.00    +0.127 C 
ATOM     13  C   UNL     1       6.166  -8.399  36.719  0.00  0.00    +0.128 C 
ATOM     16  C   UNL     1       7.895  -5.291  38.048  0.00  0.00    +0.216 C 
ATOM     17  C   UNL     1       7.168  -6.369  34.163  0.00  0.00    +0.239 C 
ATOM     18  C   UNL     1       6.146  -9.296  34.423  0.00  0.00    +0.249 C 
ATOM     19  C   UNL     1       6.578  -9.210  33.003  0.00  0.00    +0.059 A 
ATOM     23  C   UNL     1       6.771  -8.007  32.305  0.00  0.00    +0.046 A 
ATOM     24  C   UNL     1       6.611 -10.428  32.298  0.00  0.00    +0.023 A 
ATOM     25  C   UNL     1       6.922  -8.048  30.908  0.00  0.00    +0.024 A 
ATOM     26  C   UNL     1       6.811 -10.453  30.919  0.00  0.00    -0.017 A 
ATOM     27  C   UNL     1       6.954  -9.262  30.221  0.00  0.00    +0.010 A 
ATOM     35  H   UNL     1       6.627  -5.943  32.248  0.00  0.00    +0.155 HD
ENDROOT
BRANCH  26  28
ATOM     28  C   UNL     1       6.847 -11.715  30.213  0.00  0.00    -0.017 A 
ATOM     29  C   UNL     1       5.707 -12.518  30.160  0.00  0.00    +0.021 A 
ATOM     30  C   UNL     1       8.021 -12.131  29.586  0.00  0.00    +0.008 A 
ATOM     31  C   UNL     1       5.742 -13.736  29.481  0.00  0.00    +0.055 A 
ATOM     32  C   UNL     1       8.056 -13.349  28.907  0.00  0.00    +0.001 A 
ATOM     33  C   UNL     1       6.917 -14.151  28.854  0.00  0.00    +0.012 A 
BRANCH  31  34
ATOM      1  F   UNL     1       4.649 -15.669  28.590  0.00  0.00    -0.166 F 
ATOM      2  F   UNL     1       4.169 -15.122  30.633  0.00  0.00    -0.166 F 
ATOM      3  F   UNL     1       3.423 -13.916  28.983  0.00  0.00    -0.166 F 
ATOM     34  C   UNL     1       4.523 -14.594  29.424  0.00  0.00    +0.417 C 
ENDBRANCH  31  34
ENDBRANCH  26  28
BRANCH  16  15
ATOM     15  C   UNL     1       6.872  -4.779  39.031  0.00  0.00    +0.102 C 
BRANCH  15  14
ATOM     14  C   UNL     1       6.335  -3.385  38.662  0.00  0.00    -0.029 C 
ATOM     20  C   UNL     1       5.124  -3.007  39.531  0.00  0.00    +0.011 C 
ATOM     21  C   UNL     1       5.939  -3.318  37.176  0.00  0.00    +0.011 C 
ATOM     22  C   UNL     1       7.460  -2.365  38.915  0.00  0.00    +0.011 C 
ENDBRANCH  15  14
ENDBRANCH  16  15
TORSDOF 4
ENDMDL
MODEL 8
REMARK VINA RESULT:      -6.9      1.469      2.323
REMARK  Name = 7142364
REMARK  7 active torsions:
REMARK  status: ('A' for Active; 'I' for Inactive)
REMARK    1  A    between atoms: C_14  and  C_15
REMARK    2  A    between atoms: C_14  and  C_20
REMARK    3  A    between atoms: C_14  and  C_21
REMARK    4  A    between atoms: C_14  and  C_22
REMARK    5  A    between atoms: C_15  and  C_16
REMARK    6  A    between atoms: C_26  and  C_28
REMARK    7  A    between atoms: C_31  and  C_34
REMARK                            x       y       z     vdW  Elec       q    Type
REMARK                         _______ _______ _______ _____ _____    ______ ____
ROOT
ATOM      4  O   UNL     1     -13.003 -12.530  20.957  0.00  0.00    -0.276 OA
ATOM      5  O   UNL     1      -9.545 -10.693  20.464  0.00  0.00    -0.273 OA
ATOM      6  O   UNL     1      -9.954  -8.492  15.676  0.00  0.00    -0.270 OA
ATOM      7  N   UNL     1     -12.341 -10.915  19.421  0.00  0.00    -0.298 N 
ATOM      8  N   UNL     1     -10.502  -9.929  17.403  0.00  0.00    -0.283 N 
ATOM      9  N   UNL     1      -7.962 -10.304  18.876  0.00  0.00    -0.283 N 
ATOM     10  C   UNL     1     -10.181 -11.122  18.175  0.00  0.00    +0.180 C 
ATOM     11  C   UNL     1     -11.429 -11.826  18.723  0.00  0.00    +0.139 C 
ATOM     12  C   UNL     1     -12.429  -9.545  18.908  0.00  0.00    +0.127 C 
ATOM     13  C   UNL     1     -11.869  -9.417  17.498  0.00  0.00    +0.128 C 
ATOM     16  C   UNL     1     -13.069 -11.379  20.518  0.00  0.00    +0.216 C 
ATOM     17  C   UNL     1      -9.232 -10.665  19.272  0.00  0.00    +0.239 C 
ATOM     18  C   UNL     1      -9.631  -9.379  16.467  0.00  0.00    +0.249 C 
ATOM     19  C   UNL     1      -8.222  -9.855  16.428  0.00  0.00    +0.059 A 
ATOM     23  C   UNL     1      -7.462 -10.174  17.564  0.00  0.00    +0.046 A 
ATOM     24  C   UNL     1      -7.592  -9.798  15.171  0.00  0.00    +0.023 A 
ATOM     25  C   UNL     1      -6.075 -10.358  17.425  0.00  0.00    +0.024 A 
ATOM     26  C   UNL     1      -6.224 -10.033  15.044  0.00  0.00    -0.017 A 
ATOM     27  C   UNL     1      -5.462 -10.300  16.173  0.00  0.00    +0.010 A 
ATOM     35  H   UNL     1      -7.280 -10.216  19.625  0.00  0.00    +0.155 HD
ENDROOT
BRANCH  26  28
ATOM     28  C   UNL     1      -5.595  -9.975  13.742  0.00  0.00    -0.017 A 
ATOM     29  C   UNL     1      -4.258 -10.346  13.595  0.00  0.00    +0.021 A 
ATOM     30  C   UNL     1      -6.324  -9.547  12.633  0.00  0.00    +0.008 A 
ATOM     31  C   UNL     1      -3.651 -10.289  12.341  0.00  0.00    +0.055 A 
ATOM     32  C   UNL     1      -5.718  -9.490  11.379  0.00  0.00    +0.001 A 
ATOM     33  C   UNL     1      -4.382  -9.861  11.233  0.00  0.00    +0.012 A 
BRANCH  31  34
ATOM      1  F   UNL     1      -2.043 -12.033  12.031  0.00  0.00    -0.166 F 
ATOM      2  F   UNL     1      -1.615 -10.122  11.098  0.00  0.00    -0.166 F 
ATOM      3  F   UNL     1      -1.457 -10.335  13.257  0.00  0.00    -0.166 F 
ATOM     34  C   UNL     1      -2.223 -10.687  12.183  0.00  0.00    +0.417 C 
ENDBRANCH  31  34
ENDBRANCH  26  28
BRANCH  16  15
ATOM     15  C   UNL     1     -13.987 -10.380  21.177  0.00  0.00    +0.102 C 
BRANCH  15  14
ATOM     14  C   UNL     1     -15.475 -10.732  21.004  0.00  0.00    -0.029 C 
ATOM     20  C   UNL     1     -15.973 -11.622  22.155  0.00  0.00    +0.011 C 
ATOM     21  C   UNL     1     -15.726 -11.443  19.662  0.00  0.00    +0.011 C 
ATOM     22  C   UNL     1     -16.275  -9.416  21.018  0.00  0.00    +0.011 C 
ENDBRANCH  15  14
ENDBRANCH  16  15
TORSDOF 4
ENDMDL
MODEL 9
REMARK VINA RESULT:      -6.9      5.075     10.503
REMARK  Name = 7142364
REMARK  7 active torsions:
REMARK  status: ('A' for Active; 'I' for Inactive)
REMARK    1  A    between atoms: C_14  and  C_15
REMARK    2  A    between atoms: C_14  and  C_20
REMARK    3  A    between atoms: C_14  and  C_21
REMARK    4  A    between atoms: C_14  and  C_22
REMARK    5  A    between atoms: C_15  and  C_16
REMARK    6  A    between atoms: C_26  and  C_28
REMARK    7  A    between atoms: C_31  and  C_34
REMARK                            x       y       z     vdW  Elec       q    Type
REMARK                         _______ _______ _______ _____ _____    ______ ____
ROOT
ATOM      4  O   UNL     1      -4.847 -13.111  13.847  0.00  0.00    -0.276 OA
ATOM      5  O   UNL     1      -7.032 -10.036  15.005  0.00  0.00    -0.273 OA
ATOM      6  O   UNL     1      -8.117 -11.089  20.069  0.00  0.00    -0.270 OA
ATOM      7  N   UNL     1      -5.445 -12.381  15.971  0.00  0.00    -0.298 N 
ATOM      8  N   UNL     1      -7.445 -11.548  17.904  0.00  0.00    -0.283 N 
ATOM      9  N   UNL     1      -8.868  -9.544  16.256  0.00  0.00    -0.283 N 
ATOM     10  C   UNL     1      -7.807 -11.757  16.509  0.00  0.00    +0.180 C 
ATOM     11  C   UNL     1      -6.858 -12.722  15.788  0.00  0.00    +0.139 C 
ATOM     12  C   UNL     1      -5.067 -11.797  17.261  0.00  0.00    +0.127 C 
ATOM     13  C   UNL     1      -6.126 -12.020  18.332  0.00  0.00    +0.128 C 
ATOM     16  C   UNL     1      -4.540 -12.620  14.935  0.00  0.00    +0.216 C 
ATOM     17  C   UNL     1      -7.835 -10.374  15.875  0.00  0.00    +0.239 C 
ATOM     18  C   UNL     1      -8.348 -11.092  18.859  0.00  0.00    +0.249 C 
ATOM     19  C   UNL     1      -9.656 -10.546  18.409  0.00  0.00    +0.059 A 
ATOM     23  C   UNL     1      -9.834  -9.758  17.260  0.00  0.00    +0.046 A 
ATOM     24  C   UNL     1     -10.727 -10.702  19.310  0.00  0.00    +0.023 A 
ATOM     25  C   UNL     1     -11.055  -9.086  17.079  0.00  0.00    +0.024 A 
ATOM     26  C   UNL     1     -11.948 -10.067  19.088  0.00  0.00    -0.017 A 
ATOM     27  C   UNL     1     -12.108  -9.249  17.978  0.00  0.00    +0.010 A 
ATOM     35  H   UNL     1      -9.005  -8.723  15.672  0.00  0.00    +0.155 HD
ENDROOT
BRANCH  26  28
ATOM     28  C   UNL     1     -13.038 -10.243  20.023  0.00  0.00    -0.017 A 
ATOM     29  C   UNL     1     -14.019  -9.259  20.144  0.00  0.00    +0.021 A 
ATOM     30  C   UNL     1     -13.108 -11.396  20.803  0.00  0.00    +0.008 A 
ATOM     31  C   UNL     1     -15.070  -9.427  21.047  0.00  0.00    +0.055 A 
ATOM     32  C   UNL     1     -14.158 -11.566  21.706  0.00  0.00    +0.001 A 
ATOM     33  C   UNL     1     -15.138 -10.581  21.827  0.00  0.00    +0.012 A 
BRANCH  31  34
ATOM      1  F   UNL     1     -16.483  -7.815  19.984  0.00  0.00    -0.166 F 
ATOM      2  F   UNL     1     -17.284  -8.831  21.725  0.00  0.00    -0.166 F 
ATOM      3  F   UNL     1     -15.725  -7.334  21.965  0.00  0.00    -0.166 F 
ATOM     34  C   UNL     1     -16.119  -8.376  21.176  0.00  0.00    +0.417 C 
ENDBRANCH  31  34
ENDBRANCH  26  28
BRANCH  16  15
ATOM     15  C   UNL     1      -3.104 -12.243  15.206  0.00  0.00    +0.102 C 
BRANCH  15  14
ATOM     14  C   UNL     1      -2.559 -11.211  14.203  0.00  0.00    -0.029 C 
ATOM     20  C   UNL     1      -3.686 -10.325  13.649  0.00  0.00    +0.011 C 
ATOM     21  C   UNL     1      -1.830 -11.902  13.037  0.00  0.00    +0.011 C 
ATOM     22  C   UNL     1      -1.552 -10.317  14.949  0.00  0.00    +0.011 C 
ENDBRANCH  15  14
ENDBRANCH  16  15
TORSDOF 4
ENDMDL
MODEL 10
REMARK VINA RESULT:      -6.9     20.766     23.373
REMARK  Name = 7142364
REMARK  7 active torsions:
REMARK  status: ('A' for Active; 'I' for Inactive)
REMARK    1  A    between atoms: C_14  and  C_15
REMARK    2  A    between atoms: C_14  and  C_20
REMARK    3  A    between atoms: C_14  and  C_21
REMARK    4  A    between atoms: C_14  and  C_22
REMARK    5  A    between atoms: C_15  and  C_16
REMARK    6  A    between atoms: C_26  and  C_28
REMARK    7  A    between atoms: C_31  and  C_34
REMARK                            x       y       z     vdW  Elec       q    Type
REMARK                         _______ _______ _______ _____ _____    ______ ____
ROOT
ATOM      4  O   UNL     1       9.153  -4.624  38.354  0.00  0.00    -0.276 OA
ATOM      5  O   UNL     1       7.263  -5.082  34.920  0.00  0.00    -0.273 OA
ATOM      6  O   UNL     1       5.036  -9.857  35.328  0.00  0.00    -0.270 OA
ATOM      7  N   UNL     1       7.518  -6.145  37.705  0.00  0.00    -0.298 N 
ATOM      8  N   UNL     1       6.492  -8.143  35.866  0.00  0.00    -0.283 N 
ATOM      9  N   UNL     1       6.841  -6.656  33.332  0.00  0.00    -0.283 N 
ATOM     10  C   UNL     1       7.686  -7.378  35.534  0.00  0.00    +0.180 C 
ATOM     11  C   UNL     1       8.411  -6.842  36.775  0.00  0.00    +0.139 C 
ATOM     12  C   UNL     1       6.146  -6.649  37.809  0.00  0.00    +0.127 C 
ATOM     13  C   UNL     1       6.000  -8.054  37.242  0.00  0.00    +0.128 C 
ATOM     16  C   UNL     1       8.000  -5.056  38.434  0.00  0.00    +0.216 C 
ATOM     17  C   UNL     1       7.223  -6.271  34.599  0.00  0.00    +0.239 C 
ATOM     18  C   UNL     1       5.923  -9.069  34.997  0.00  0.00    +0.249 C 
ATOM     19  C   UNL     1       6.379  -9.103  33.582  0.00  0.00    +0.059 A 
ATOM     23  C   UNL     1       6.695  -7.963  32.825  0.00  0.00    +0.046 A 
ATOM     24  C   UNL     1       6.304 -10.355  32.944  0.00  0.00    +0.023 A 
ATOM     25  C   UNL     1       6.859  -8.095  31.434  0.00  0.00    +0.024 A 
ATOM     26  C   UNL     1       6.519 -10.475  31.572  0.00  0.00    -0.017 A 
ATOM     27  C   UNL     1       6.783  -9.342  30.814  0.00  0.00    +0.010 A 
ATOM     35  H   UNL     1       6.749  -5.902  32.655  0.00  0.00    +0.155 HD
ENDROOT
BRANCH  26  28
ATOM     28  C   UNL     1       6.443 -11.772  30.935  0.00  0.00    -0.017 A 
ATOM     29  C   UNL     1       7.167 -12.021  29.770  0.00  0.00    +0.021 A 
ATOM     30  C   UNL     1       5.644 -12.773  31.486  0.00  0.00    +0.008 A 
ATOM     31  C   UNL     1       7.093 -13.271  29.155  0.00  0.00    +0.055 A 
ATOM     32  C   UNL     1       5.570 -14.023  30.873  0.00  0.00    +0.001 A 
ATOM     33  C   UNL     1       6.294 -14.272  29.707  0.00  0.00    +0.012 A 
BRANCH  31  34
ATOM      1  F   UNL     1       7.156 -14.205  26.953  0.00  0.00    -0.166 F 
ATOM      2  F   UNL     1       8.317 -12.404  27.292  0.00  0.00    -0.166 F 
ATOM      3  F   UNL     1       8.980 -14.297  28.134  0.00  0.00    -0.166 F 
ATOM     34  C   UNL     1       7.868 -13.537  27.909  0.00  0.00    +0.417 C 
ENDBRANCH  31  34
ENDBRANCH  26  28
BRANCH  16  15
ATOM     15  C   UNL     1       7.019  -4.396  39.370  0.00  0.00    +0.102 C 
BRANCH  15  14
ATOM     14  C   UNL     1       6.649  -2.966  38.936  0.00  0.00    -0.029 C 
ATOM     20  C   UNL     1       7.863  -2.027  39.021  0.00  0.00    +0.011 C 
ATOM     21  C   UNL     1       5.505  -2.402  39.798  0.00  0.00    +0.011 C 
ATOM     22  C   UNL     1       6.175  -3.027  37.472  0.00  0.00    +0.011 C 
ENDBRANCH  15  14
ENDBRANCH  16  15
TORSDOF 4
ENDMDL
