REMARK  Name = 75536977
REMARK  5 active torsions:
REMARK  status: ('A' for Active; 'I' for Inactive)
REMARK    1  A    between atoms: O_3  and  C_19
REMARK    2  A    between atoms: O_3  and  C_27
REMARK    3  A    between atoms: N_5  and  C_14
REMARK    4  A    between atoms: C_14  and  C_16
REMARK    5  A    between atoms: C_15  and  C_17
REMARK                            x       y       z     vdW  Elec       q    Type
REMARK                         _______ _______ _______ _____ _____    ______ ____
ROOT
ATOM      1  O   UNL     1      -2.830  -2.745  -0.363  0.00  0.00    -0.252 OA
ATOM      2  O   UNL     1       3.736  -1.650   1.757  0.00  0.00    -0.270 OA
ATOM      4  N   UNL     1      -0.727  -1.721  -0.150  0.00  0.00    -0.278 N 
ATOM      5  N   UNL     1      -2.380  -0.565  -1.139  0.00  0.00    -0.278 N 
ATOM      6  N   UNL     1       1.620  -0.910   1.099  0.00  0.00    -0.294 N 
ATOM      8  C   UNL     1      -0.094  -0.494  -0.606  0.00  0.00    +0.112 C 
ATOM      9  C   UNL     1      -1.265   0.364  -1.078  0.00  0.00    +0.133 C 
ATOM     10  C   UNL     1       0.736   0.119   0.517  0.00  0.00    +0.132 C 
ATOM     11  C   UNL     1       0.066  -2.737   0.521  0.00  0.00    +0.128 C 
ATOM     12  C   UNL     1       0.921  -2.096   1.613  0.00  0.00    +0.127 C 
ATOM     13  C   UNL     1      -2.073  -1.798  -0.532  0.00  0.00    +0.306 C 
ATOM     15  C   UNL     1       3.006  -0.811   1.232  0.00  0.00    +0.250 C 
ENDROOT
BRANCH  15  17
ATOM     17  C   UNL     1       3.669   0.384   0.694  0.00  0.00    +0.078 A 
ATOM     19  C   UNL     1       4.133   0.414  -0.621  0.00  0.00    +0.132 A 
ATOM     20  C   UNL     1       3.833   1.498   1.518  0.00  0.00    +0.017 A 
ATOM     22  C   UNL     1       4.762   1.558  -1.112  0.00  0.00    +0.046 A 
ATOM     23  C   UNL     1       4.461   2.642   1.026  0.00  0.00    +0.001 A 
ATOM     25  C   UNL     1       4.926   2.672  -0.288  0.00  0.00    +0.004 A 
BRANCH  19   3
ATOM      3  O   UNL     1       3.985  -0.664  -1.440  0.00  0.00    -0.494 OA
ATOM     27  C   UNL     1       4.490  -0.543  -2.768  0.00  0.00    +0.277 C 
ENDBRANCH  19   3
ENDBRANCH  15  17
BRANCH   5  14
ATOM     14  C   UNL     1      -3.675  -0.173  -1.650  0.00  0.00    +0.164 C 
BRANCH  14  16
ATOM      7  N   UNL     1      -4.597   1.891  -0.762  0.00  0.00    -0.258 NA
ATOM     16  C   UNL     1      -4.490   0.551  -0.619  0.00  0.00    +0.059 A 
ATOM     18  C   UNL     1      -5.082  -0.169   0.407  0.00  0.00    +0.025 A 
ATOM     21  C   UNL     1      -5.832   0.532   1.345  0.00  0.00    +0.003 A 
ATOM     24  C   UNL     1      -5.334   2.538   0.169  0.00  0.00    +0.111 A 
ATOM     26  C   UNL     1      -5.965   1.911   1.231  0.00  0.00    +0.020 A 
ENDBRANCH  14  16
ENDBRANCH   5  14
TORSDOF 4
