MODEL 1
REMARK VINA RESULT:      -6.6      0.000      0.000
REMARK  Name = 7663613
REMARK  8 active torsions:
REMARK  status: ('A' for Active; 'I' for Inactive)
REMARK    1  A    between atoms: O_6  and  C_26
REMARK    2  A    between atoms: O_6  and  C_33
REMARK    3  A    between atoms: N_10  and  C_19
REMARK    4  A    between atoms: C_11  and  C_15
REMARK    5  A    between atoms: C_16  and  C_18
REMARK    6  A    between atoms: C_17  and  C_20
REMARK    7  A    between atoms: C_19  and  C_21
REMARK    8  A    between atoms: C_19  and  C_26
REMARK                            x       y       z     vdW  Elec       q    Type
REMARK                         _______ _______ _______ _____ _____    ______ ____
ROOT
ATOM      4  O   UNL     1      -8.632 -10.530   9.881  0.00  0.00    -0.270 OA
ATOM      5  O   UNL     1      -1.642  -9.174  10.800  0.00  0.00    -0.270 OA
ATOM      8  N   UNL     1      -6.413  -9.786   9.945  0.00  0.00    -0.283 N 
ATOM      9  N   UNL     1      -3.672 -10.298  10.519  0.00  0.00    -0.294 N 
ATOM     11  C   UNL     1      -6.060 -10.654  11.075  0.00  0.00    +0.179 C 
ATOM     12  C   UNL     1      -4.671 -11.279  10.958  0.00  0.00    +0.140 C 
ATOM     13  C   UNL     1      -5.363  -8.872   9.460  0.00  0.00    +0.128 C 
ATOM     14  C   UNL     1      -4.028  -9.587   9.295  0.00  0.00    +0.127 C 
ATOM     16  C   UNL     1      -7.740  -9.779   9.491  0.00  0.00    +0.247 C 
ATOM     17  C   UNL     1      -2.470 -10.006  11.167  0.00  0.00    +0.247 C 
ENDROOT
BRANCH  16  18
ATOM      1  F   UNL     1      -9.217  -5.327   8.262  0.00  0.00    -0.205 F 
ATOM     18  C   UNL     1      -8.124  -8.790   8.474  0.00  0.00    +0.040 A 
ATOM     22  C   UNL     1      -8.496  -7.502   8.859  0.00  0.00    +0.051 A 
ATOM     23  C   UNL     1      -8.118  -9.141   7.124  0.00  0.00    +0.013 A 
ATOM     27  C   UNL     1      -8.860  -6.564   7.893  0.00  0.00    +0.124 A 
ATOM     28  C   UNL     1      -8.483  -8.202   6.158  0.00  0.00    +0.004 A 
ATOM     31  C   UNL     1      -8.854  -6.914   6.543  0.00  0.00    +0.038 A 
ENDBRANCH  16  18
BRANCH  17  20
ATOM      2  F   UNL     1      -1.329 -10.096  15.878  0.00  0.00    -0.205 F 
ATOM     20  C   UNL     1      -2.149 -10.746  12.393  0.00  0.00    +0.040 A 
ATOM     24  C   UNL     1      -1.887 -10.056  13.577  0.00  0.00    +0.051 A 
ATOM     25  C   UNL     1      -2.107 -12.140  12.375  0.00  0.00    +0.013 A 
ATOM     29  C   UNL     1      -1.581 -10.759  14.742  0.00  0.00    +0.124 A 
ATOM     30  C   UNL     1      -1.801 -12.844  13.540  0.00  0.00    +0.004 A 
ATOM     32  C   UNL     1      -1.539 -12.154  14.723  0.00  0.00    +0.038 A 
ENDBRANCH  17  20
BRANCH  11  15
ATOM      3  O   UNL     1      -6.454  -8.611  12.248  0.00  0.00    -0.274 OA
ATOM     10  N   UNL     1      -5.934 -10.526  13.465  0.00  0.00    -0.301 N 
ATOM     15  C   UNL     1      -6.183  -9.807  12.308  0.00  0.00    +0.236 C 
ATOM     34  H   UNL     1      -5.772 -11.527  13.400  0.00  0.00    +0.150 HD
BRANCH  10  19
ATOM     19  C   UNL     1      -5.966  -9.937  14.784  0.00  0.00    +0.179 C 
ATOM     21  C   UNL     1      -4.926 -10.591  15.680  0.00  0.00    +0.040 C 
BRANCH  19  26
ATOM      7  O   UNL     1      -8.235 -10.745  14.956  0.00  0.00    -0.249 OA
ATOM     26  C   UNL     1      -7.346 -10.035  15.415  0.00  0.00    +0.327 C 
BRANCH  26   6
ATOM      6  O   UNL     1      -7.460  -9.261  16.532  0.00  0.00    -0.467 OA
ATOM     33  C   UNL     1      -8.777  -8.783  16.826  0.00  0.00    +0.280 C 
ENDBRANCH  26   6
ENDBRANCH  19  26
ENDBRANCH  10  19
ENDBRANCH  11  15
TORSDOF 6
ENDMDL
MODEL 2
REMARK VINA RESULT:      -6.5      3.179      5.783
REMARK  Name = 7663613
REMARK  8 active torsions:
REMARK  status: ('A' for Active; 'I' for Inactive)
REMARK    1  A    between atoms: O_6  and  C_26
REMARK    2  A    between atoms: O_6  and  C_33
REMARK    3  A    between atoms: N_10  and  C_19
REMARK    4  A    between atoms: C_11  and  C_15
REMARK    5  A    between atoms: C_16  and  C_18
REMARK    6  A    between atoms: C_17  and  C_20
REMARK    7  A    between atoms: C_19  and  C_21
REMARK    8  A    between atoms: C_19  and  C_26
REMARK                            x       y       z     vdW  Elec       q    Type
REMARK                         _______ _______ _______ _____ _____    ______ ____
ROOT
ATOM      4  O   UNL     1      -3.437  -9.551  10.069  0.00  0.00    -0.270 OA
ATOM      5  O   UNL     1      -9.613 -11.245  13.316  0.00  0.00    -0.270 OA
ATOM      8  N   UNL     1      -5.505 -10.345  10.829  0.00  0.00    -0.283 N 
ATOM      9  N   UNL     1      -7.778 -10.038  12.515  0.00  0.00    -0.294 N 
ATOM     11  C   UNL     1      -5.341  -9.756  12.164  0.00  0.00    +0.179 C 
ATOM     12  C   UNL     1      -6.627  -9.154  12.730  0.00  0.00    +0.140 C 
ATOM     13  C   UNL     1      -6.717 -11.153  10.607  0.00  0.00    +0.128 C 
ATOM     14  C   UNL     1      -7.964 -10.452  11.129  0.00  0.00    +0.127 C 
ATOM     16  C   UNL     1      -4.457 -10.219   9.906  0.00  0.00    +0.247 C 
ATOM     17  C   UNL     1      -8.656 -10.495  13.501  0.00  0.00    +0.247 C 
ENDROOT
BRANCH  16  18
ATOM      1  F   UNL     1      -5.714 -10.421   5.227  0.00  0.00    -0.205 F 
ATOM     18  C   UNL     1      -4.555 -10.950   8.634  0.00  0.00    +0.040 A 
ATOM     22  C   UNL     1      -5.099 -10.326   7.511  0.00  0.00    +0.051 A 
ATOM     23  C   UNL     1      -4.106 -12.267   8.551  0.00  0.00    +0.013 A 
ATOM     27  C   UNL     1      -5.192 -11.019   6.305  0.00  0.00    +0.124 A 
ATOM     28  C   UNL     1      -4.199 -12.960   7.344  0.00  0.00    +0.004 A 
ATOM     31  C   UNL     1      -4.741 -12.337   6.221  0.00  0.00    +0.038 A 
ENDBRANCH  16  18
BRANCH  17  20
ATOM      2  F   UNL     1      -9.741  -7.612  17.243  0.00  0.00    -0.205 F 
ATOM     20  C   UNL     1      -8.434 -10.051  14.882  0.00  0.00    +0.040 A 
ATOM     24  C   UNL     1      -9.209  -9.022  15.418  0.00  0.00    +0.051 A 
ATOM     25  C   UNL     1      -7.449 -10.660  15.660  0.00  0.00    +0.013 A 
ATOM     29  C   UNL     1      -8.997  -8.600  16.730  0.00  0.00    +0.124 A 
ATOM     30  C   UNL     1      -7.238 -10.238  16.973  0.00  0.00    +0.004 A 
ATOM     32  C   UNL     1      -8.012  -9.209  17.508  0.00  0.00    +0.038 A 
ENDBRANCH  17  20
BRANCH  11  15
ATOM      3  O   UNL     1      -5.129 -12.026  12.877  0.00  0.00    -0.274 OA
ATOM     10  N   UNL     1      -3.970 -10.369  14.031  0.00  0.00    -0.301 N 
ATOM     15  C   UNL     1      -4.811 -10.852  13.042  0.00  0.00    +0.236 C 
ATOM     34  H   UNL     1      -3.732  -9.381  14.040  0.00  0.00    +0.150 HD
BRANCH  10  19
ATOM     19  C   UNL     1      -3.346 -11.218  15.021  0.00  0.00    +0.179 C 
ATOM     21  C   UNL     1      -3.602 -10.675  16.418  0.00  0.00    +0.040 C 
BRANCH  19  26
ATOM      7  O   UNL     1      -1.008 -10.908  15.537  0.00  0.00    -0.249 OA
ATOM     26  C   UNL     1      -1.852 -11.369  14.776  0.00  0.00    +0.327 C 
BRANCH  26   6
ATOM      6  O   UNL     1      -1.583 -12.071  13.639  0.00  0.00    -0.467 OA
ATOM     33  C   UNL     1      -1.829 -13.479  13.704  0.00  0.00    +0.280 C 
ENDBRANCH  26   6
ENDBRANCH  19  26
ENDBRANCH  10  19
ENDBRANCH  11  15
TORSDOF 6
ENDMDL
MODEL 3
REMARK VINA RESULT:      -6.4      3.349      7.385
REMARK  Name = 7663613
REMARK  8 active torsions:
REMARK  status: ('A' for Active; 'I' for Inactive)
REMARK    1  A    between atoms: O_6  and  C_26
REMARK    2  A    between atoms: O_6  and  C_33
REMARK    3  A    between atoms: N_10  and  C_19
REMARK    4  A    between atoms: C_11  and  C_15
REMARK    5  A    between atoms: C_16  and  C_18
REMARK    6  A    between atoms: C_17  and  C_20
REMARK    7  A    between atoms: C_19  and  C_21
REMARK    8  A    between atoms: C_19  and  C_26
REMARK                            x       y       z     vdW  Elec       q    Type
REMARK                         _______ _______ _______ _____ _____    ______ ____
ROOT
ATOM      4  O   UNL     1      -9.929  -8.253  16.407  0.00  0.00    -0.270 OA
ATOM      5  O   UNL     1      -4.563 -12.898  17.496  0.00  0.00    -0.270 OA
ATOM      8  N   UNL     1      -8.449  -9.991  16.930  0.00  0.00    -0.283 N 
ATOM      9  N   UNL     1      -5.779 -10.913  17.282  0.00  0.00    -0.294 N 
ATOM     11  C   UNL     1      -7.381  -9.458  16.075  0.00  0.00    +0.179 C 
ATOM     12  C   UNL     1      -5.985  -9.589  16.684  0.00  0.00    +0.140 C 
ATOM     13  C   UNL     1      -8.183 -11.279  17.596  0.00  0.00    +0.128 C 
ATOM     14  C   UNL     1      -6.805 -11.303  18.244  0.00  0.00    +0.127 C 
ATOM     16  C   UNL     1      -9.684  -9.327  16.955  0.00  0.00    +0.247 C 
ATOM     17  C   UNL     1      -4.726 -11.785  16.999  0.00  0.00    +0.247 C 
ENDROOT
BRANCH  16  18
ATOM      1  F   UNL     1     -12.418  -9.797  20.932  0.00  0.00    -0.205 F 
ATOM     18  C   UNL     1     -10.799  -9.954  17.679  0.00  0.00    +0.040 A 
ATOM     22  C   UNL     1     -11.085  -9.570  18.989  0.00  0.00    +0.051 A 
ATOM     23  C   UNL     1     -11.571 -10.934  17.055  0.00  0.00    +0.013 A 
ATOM     27  C   UNL     1     -12.143 -10.165  19.675  0.00  0.00    +0.124 A 
ATOM     28  C   UNL     1     -12.629 -11.529  17.741  0.00  0.00    +0.004 A 
ATOM     31  C   UNL     1     -12.916 -11.145  19.051  0.00  0.00    +0.038 A 
ENDBRANCH  16  18
BRANCH  17  20
ATOM      2  F   UNL     1      -0.368  -9.923  15.976  0.00  0.00    -0.205 F 
ATOM     20  C   UNL     1      -3.713 -11.353  16.028  0.00  0.00    +0.040 A 
ATOM     24  C   UNL     1      -2.497 -10.834  16.472  0.00  0.00    +0.051 A 
ATOM     25  C   UNL     1      -3.967 -11.461  14.661  0.00  0.00    +0.013 A 
ATOM     29  C   UNL     1      -1.535 -10.422  15.549  0.00  0.00    +0.124 A 
ATOM     30  C   UNL     1      -3.006 -11.049  13.738  0.00  0.00    +0.004 A 
ATOM     32  C   UNL     1      -1.790 -10.530  14.182  0.00  0.00    +0.038 A 
ENDBRANCH  17  20
BRANCH  11  15
ATOM      3  O   UNL     1      -7.991 -11.308  14.692  0.00  0.00    -0.274 OA
ATOM     10  N   UNL     1      -6.934  -9.475  13.721  0.00  0.00    -0.301 N 
ATOM     15  C   UNL     1      -7.485 -10.192  14.769  0.00  0.00    +0.236 C 
ATOM     34  H   UNL     1      -6.590  -8.534  13.891  0.00  0.00    +0.150 HD
BRANCH  10  19
ATOM     19  C   UNL     1      -6.887  -9.971  12.364  0.00  0.00    +0.179 C 
ATOM     21  C   UNL     1      -5.599  -9.530  11.685  0.00  0.00    +0.040 C 
BRANCH  19  26
ATOM      7  O   UNL     1      -9.240  -9.848  11.838  0.00  0.00    -0.249 OA
ATOM     26  C   UNL     1      -8.093  -9.520  11.554  0.00  0.00    +0.327 C 
BRANCH  26   6
ATOM      6  O   UNL     1      -7.743  -8.719  10.508  0.00  0.00    -0.467 OA
ATOM     33  C   UNL     1      -8.517  -8.880   9.315  0.00  0.00    +0.280 C 
ENDBRANCH  26   6
ENDBRANCH  19  26
ENDBRANCH  10  19
ENDBRANCH  11  15
TORSDOF 6
ENDMDL
MODEL 4
REMARK VINA RESULT:      -6.0     23.154     25.911
REMARK  Name = 7663613
REMARK  8 active torsions:
REMARK  status: ('A' for Active; 'I' for Inactive)
REMARK    1  A    between atoms: O_6  and  C_26
REMARK    2  A    between atoms: O_6  and  C_33
REMARK    3  A    between atoms: N_10  and  C_19
REMARK    4  A    between atoms: C_11  and  C_15
REMARK    5  A    between atoms: C_16  and  C_18
REMARK    6  A    between atoms: C_17  and  C_20
REMARK    7  A    between atoms: C_19  and  C_21
REMARK    8  A    between atoms: C_19  and  C_26
REMARK                            x       y       z     vdW  Elec       q    Type
REMARK                         _______ _______ _______ _____ _____    ______ ____
ROOT
ATOM      4  O   UNL     1      10.490   3.838   4.944  0.00  0.00    -0.270 OA
ATOM      5  O   UNL     1      10.835   7.028  -1.479  0.00  0.00    -0.270 OA
ATOM      8  N   UNL     1      10.612   5.210   3.051  0.00  0.00    -0.283 N 
ATOM      9  N   UNL     1      10.282   5.547   0.243  0.00  0.00    -0.294 N 
ATOM     11  C   UNL     1      10.905   4.090   2.148  0.00  0.00    +0.179 C 
ATOM     12  C   UNL     1      10.199   4.191   0.796  0.00  0.00    +0.140 C 
ATOM     13  C   UNL     1      10.609   6.558   2.453  0.00  0.00    +0.128 C 
ATOM     14  C   UNL     1       9.821   6.593   1.150  0.00  0.00    +0.127 C 
ATOM     16  C   UNL     1      10.489   4.952   4.423  0.00  0.00    +0.247 C 
ATOM     17  C   UNL     1      10.758   5.887  -1.025  0.00  0.00    +0.247 C 
ENDROOT
BRANCH  16  18
ATOM      1  F   UNL     1       7.772   8.176   6.818  0.00  0.00    -0.205 F 
ATOM     18  C   UNL     1      10.362   6.095   5.340  0.00  0.00    +0.040 A 
ATOM     22  C   UNL     1       9.101   6.604   5.650  0.00  0.00    +0.051 A 
ATOM     23  C   UNL     1      11.504   6.670   5.897  0.00  0.00    +0.013 A 
ATOM     27  C   UNL     1       8.982   7.687   6.519  0.00  0.00    +0.124 A 
ATOM     28  C   UNL     1      11.384   7.754   6.767  0.00  0.00    +0.004 A 
ATOM     31  C   UNL     1      10.123   8.263   7.078  0.00  0.00    +0.038 A 
ENDBRANCH  16  18
BRANCH  17  20
ATOM      2  F   UNL     1       9.876   2.595  -4.472  0.00  0.00    -0.205 F 
ATOM     20  C   UNL     1      11.209   4.804  -1.907  0.00  0.00    +0.040 A 
ATOM     24  C   UNL     1      10.311   4.202  -2.789  0.00  0.00    +0.051 A 
ATOM     25  C   UNL     1      12.536   4.377  -1.864  0.00  0.00    +0.013 A 
ATOM     29  C   UNL     1      10.739   3.172  -3.626  0.00  0.00    +0.124 A 
ATOM     30  C   UNL     1      12.964   3.347  -2.701  0.00  0.00    +0.004 A 
ATOM     32  C   UNL     1      12.066   2.745  -3.582  0.00  0.00    +0.038 A 
ENDBRANCH  17  20
BRANCH  11  15
ATOM      3  O   UNL     1      13.008   3.010   1.801  0.00  0.00    -0.274 OA
ATOM     10  N   UNL     1      12.963   5.318   2.106  0.00  0.00    -0.301 N 
ATOM     15  C   UNL     1      12.398   4.059   1.990  0.00  0.00    +0.236 C 
ATOM     34  H   UNL     1      12.355   6.126   2.208  0.00  0.00    +0.150 HD
BRANCH  10  19
ATOM     19  C   UNL     1      14.385   5.556   2.016  0.00  0.00    +0.179 C 
ATOM     21  C   UNL     1      14.817   6.575   3.060  0.00  0.00    +0.040 C 
BRANCH  19  26
ATOM      7  O   UNL     1      14.156   6.848  -0.012  0.00  0.00    -0.249 OA
ATOM     26  C   UNL     1      14.795   6.017   0.625  0.00  0.00    +0.327 C 
BRANCH  26   6
ATOM      6  O   UNL     1      15.938   5.410   0.196  0.00  0.00    -0.467 OA
ATOM     33  C   UNL     1      15.936   3.979   0.237  0.00  0.00    +0.280 C 
ENDBRANCH  26   6
ENDBRANCH  19  26
ENDBRANCH  10  19
ENDBRANCH  11  15
TORSDOF 6
ENDMDL
MODEL 5
REMARK VINA RESULT:      -6.0     23.528     26.132
REMARK  Name = 7663613
REMARK  8 active torsions:
REMARK  status: ('A' for Active; 'I' for Inactive)
REMARK    1  A    between atoms: O_6  and  C_26
REMARK    2  A    between atoms: O_6  and  C_33
REMARK    3  A    between atoms: N_10  and  C_19
REMARK    4  A    between atoms: C_11  and  C_15
REMARK    5  A    between atoms: C_16  and  C_18
REMARK    6  A    between atoms: C_17  and  C_20
REMARK    7  A    between atoms: C_19  and  C_21
REMARK    8  A    between atoms: C_19  and  C_26
REMARK                            x       y       z     vdW  Elec       q    Type
REMARK                         _______ _______ _______ _____ _____    ______ ____
ROOT
ATOM      4  O   UNL     1       8.551   6.562   4.200  0.00  0.00    -0.270 OA
ATOM      5  O   UNL     1      15.673   7.079   3.453  0.00  0.00    -0.270 OA
ATOM      8  N   UNL     1      10.888   6.644   4.335  0.00  0.00    -0.283 N 
ATOM      9  N   UNL     1      13.379   7.462   3.226  0.00  0.00    -0.294 N 
ATOM     11  C   UNL     1      11.060   6.660   2.877  0.00  0.00    +0.179 C 
ATOM     12  C   UNL     1      12.172   7.593   2.401  0.00  0.00    +0.140 C 
ATOM     13  C   UNL     1      12.117   6.606   5.146  0.00  0.00    +0.128 C 
ATOM     14  C   UNL     1      13.146   7.618   4.657  0.00  0.00    +0.127 C 
ATOM     16  C   UNL     1       9.591   6.533   4.857  0.00  0.00    +0.247 C 
ATOM     17  C   UNL     1      14.667   7.199   2.756  0.00  0.00    +0.247 C 
ENDROOT
BRANCH  16  18
ATOM      1  F   UNL     1       9.791   3.743   8.817  0.00  0.00    -0.205 F 
ATOM     18  C   UNL     1       9.436   6.351   6.307  0.00  0.00    +0.040 A 
ATOM     22  C   UNL     1       9.692   5.108   6.886  0.00  0.00    +0.051 A 
ATOM     23  C   UNL     1       9.031   7.421   7.104  0.00  0.00    +0.013 A 
ATOM     27  C   UNL     1       9.545   4.935   8.261  0.00  0.00    +0.124 A 
ATOM     28  C   UNL     1       8.884   7.249   8.481  0.00  0.00    +0.004 A 
ATOM     31  C   UNL     1       9.141   6.006   9.060  0.00  0.00    +0.038 A 
ENDBRANCH  16  18
BRANCH  17  20
ATOM      2  F   UNL     1      16.160   4.631  -1.075  0.00  0.00    -0.205 F 
ATOM     20  C   UNL     1      14.859   7.052   1.308  0.00  0.00    +0.040 A 
ATOM     24  C   UNL     1      15.429   5.887   0.794  0.00  0.00    +0.051 A 
ATOM     25  C   UNL     1      14.469   8.077   0.446  0.00  0.00    +0.013 A 
ATOM     29  C   UNL     1      15.612   5.748  -0.582  0.00  0.00    +0.124 A 
ATOM     30  C   UNL     1      14.651   7.938  -0.930  0.00  0.00    +0.004 A 
ATOM     32  C   UNL     1      15.222   6.774  -1.444  0.00  0.00    +0.038 A 
ENDBRANCH  17  20
BRANCH  11  15
ATOM      3  O   UNL     1      11.101   4.298   3.230  0.00  0.00    -0.274 OA
ATOM     10  N   UNL     1      11.842   5.146   1.192  0.00  0.00    -0.301 N 
ATOM     15  C   UNL     1      11.321   5.238   2.472  0.00  0.00    +0.236 C 
ATOM     34  H   UNL     1      11.933   5.989   0.632  0.00  0.00    +0.150 HD
BRANCH  10  19
ATOM     19  C   UNL     1      12.202   3.889   0.575  0.00  0.00    +0.179 C 
ATOM     21  C   UNL     1      13.400   3.276   1.284  0.00  0.00    +0.040 C 
BRANCH  19  26
ATOM      7  O   UNL     1      13.222   3.284  -1.528  0.00  0.00    -0.249 OA
ATOM     26  C   UNL     1      12.491   4.050  -0.910  0.00  0.00    +0.327 C 
BRANCH  26   6
ATOM      6  O   UNL     1      11.843   5.121  -1.449  0.00  0.00    -0.467 OA
ATOM     33  C   UNL     1      10.757   4.813  -2.329  0.00  0.00    +0.280 C 
ENDBRANCH  26   6
ENDBRANCH  19  26
ENDBRANCH  10  19
ENDBRANCH  11  15
TORSDOF 6
ENDMDL
MODEL 6
REMARK VINA RESULT:      -6.0     20.826     23.314
REMARK  Name = 7663613
REMARK  8 active torsions:
REMARK  status: ('A' for Active; 'I' for Inactive)
REMARK    1  A    between atoms: O_6  and  C_26
REMARK    2  A    between atoms: O_6  and  C_33
REMARK    3  A    between atoms: N_10  and  C_19
REMARK    4  A    between atoms: C_11  and  C_15
REMARK    5  A    between atoms: C_16  and  C_18
REMARK    6  A    between atoms: C_17  and  C_20
REMARK    7  A    between atoms: C_19  and  C_21
REMARK    8  A    between atoms: C_19  and  C_26
REMARK                            x       y       z     vdW  Elec       q    Type
REMARK                         _______ _______ _______ _____ _____    ______ ____
ROOT
ATOM      4  O   UNL     1      -1.547   8.434  -0.235  0.00  0.00    -0.270 OA
ATOM      5  O   UNL     1       0.672  14.641   2.612  0.00  0.00    -0.270 OA
ATOM      8  N   UNL     1      -1.037  10.625   0.415  0.00  0.00    -0.283 N 
ATOM      9  N   UNL     1       0.626  12.428   1.860  0.00  0.00    -0.294 N 
ATOM     11  C   UNL     1      -0.455  10.204   1.696  0.00  0.00    +0.179 C 
ATOM     12  C   UNL     1       0.797  10.989   2.088  0.00  0.00    +0.140 C 
ATOM     13  C   UNL     1      -1.113  12.076   0.168  0.00  0.00    +0.128 C 
ATOM     14  C   UNL     1       0.197  12.774   0.510  0.00  0.00    +0.127 C 
ATOM     16  C   UNL     1      -1.597   9.649  -0.421  0.00  0.00    +0.247 C 
ATOM     17  C   UNL     1       0.827  13.436   2.805  0.00  0.00    +0.247 C 
ENDROOT
BRANCH  16  18
ATOM      1  F   UNL     1      -1.636  11.365  -4.956  0.00  0.00    -0.205 F 
ATOM     18  C   UNL     1      -2.325  10.091  -1.620  0.00  0.00    +0.040 A 
ATOM     22  C   UNL     1      -1.620  10.527  -2.742  0.00  0.00    +0.051 A 
ATOM     23  C   UNL     1      -3.719  10.074  -1.634  0.00  0.00    +0.013 A 
ATOM     27  C   UNL     1      -2.311  10.946  -3.878  0.00  0.00    +0.124 A 
ATOM     28  C   UNL     1      -4.409  10.493  -2.771  0.00  0.00    +0.004 A 
ATOM     31  C   UNL     1      -3.706  10.929  -3.894  0.00  0.00    +0.038 A 
ENDBRANCH  16  18
BRANCH  17  20
ATOM      2  F   UNL     1      -0.170  11.893   7.291  0.00  0.00    -0.205 F 
ATOM     20  C   UNL     1       1.262  13.045   4.151  0.00  0.00    +0.040 A 
ATOM     24  C   UNL     1       0.320  12.646   5.101  0.00  0.00    +0.051 A 
ATOM     25  C   UNL     1       2.616  13.071   4.481  0.00  0.00    +0.013 A 
ATOM     29  C   UNL     1       0.734  12.275   6.380  0.00  0.00    +0.124 A 
ATOM     30  C   UNL     1       3.030  12.700   5.761  0.00  0.00    +0.004 A 
ATOM     32  C   UNL     1       2.089  12.302   6.710  0.00  0.00    +0.038 A 
ENDBRANCH  17  20
BRANCH  11  15
ATOM      3  O   UNL     1      -2.444  11.178   2.590  0.00  0.00    -0.274 OA
ATOM     10  N   UNL     1      -1.380   9.489   3.788  0.00  0.00    -0.301 N 
ATOM     15  C   UNL     1      -1.543  10.354   2.719  0.00  0.00    +0.236 C 
ATOM     34  H   UNL     1      -0.625   8.809   3.763  0.00  0.00    +0.150 HD
BRANCH  10  19
ATOM     19  C   UNL     1      -2.281   9.451   4.917  0.00  0.00    +0.179 C 
ATOM     21  C   UNL     1      -1.523   9.086   6.185  0.00  0.00    +0.040 C 
BRANCH  19  26
ATOM      7  O   UNL     1      -4.370   8.733   3.943  0.00  0.00    -0.249 OA
ATOM     26  C   UNL     1      -3.431   8.482   4.692  0.00  0.00    +0.327 C 
BRANCH  26   6
ATOM      6  O   UNL     1      -3.282   7.328   5.402  0.00  0.00    -0.467 OA
ATOM     33  C   UNL     1      -4.271   6.320   5.166  0.00  0.00    +0.280 C 
ENDBRANCH  26   6
ENDBRANCH  19  26
ENDBRANCH  10  19
ENDBRANCH  11  15
TORSDOF 6
ENDMDL
MODEL 7
REMARK VINA RESULT:      -5.9     26.685     29.319
REMARK  Name = 7663613
REMARK  8 active torsions:
REMARK  status: ('A' for Active; 'I' for Inactive)
REMARK    1  A    between atoms: O_6  and  C_26
REMARK    2  A    between atoms: O_6  and  C_33
REMARK    3  A    between atoms: N_10  and  C_19
REMARK    4  A    between atoms: C_11  and  C_15
REMARK    5  A    between atoms: C_16  and  C_18
REMARK    6  A    between atoms: C_17  and  C_20
REMARK    7  A    between atoms: C_19  and  C_21
REMARK    8  A    between atoms: C_19  and  C_26
REMARK                            x       y       z     vdW  Elec       q    Type
REMARK                         _______ _______ _______ _____ _____    ______ ____
ROOT
ATOM      4  O   UNL     1      15.965  13.410  17.598  0.00  0.00    -0.270 OA
ATOM      5  O   UNL     1      12.027   7.411  17.372  0.00  0.00    -0.270 OA
ATOM      8  N   UNL     1      14.852  11.392  17.181  0.00  0.00    -0.283 N 
ATOM      9  N   UNL     1      12.703   9.615  17.754  0.00  0.00    -0.294 N 
ATOM     11  C   UNL     1      14.354  11.279  18.558  0.00  0.00    +0.179 C 
ATOM     12  C   UNL     1      12.921  10.756  18.651  0.00  0.00    +0.140 C 
ATOM     13  C   UNL     1      14.541  10.275  16.271  0.00  0.00    +0.128 C 
ATOM     14  C   UNL     1      13.077   9.863  16.367  0.00  0.00    +0.127 C 
ATOM     16  C   UNL     1      15.691  12.468  16.855  0.00  0.00    +0.247 C 
ATOM     17  C   UNL     1      12.197   8.367  18.125  0.00  0.00    +0.247 C 
ENDROOT
BRANCH  16  18
ATOM      1  F   UNL     1      19.462  11.565  13.944  0.00  0.00    -0.205 F 
ATOM     18  C   UNL     1      16.319  12.486  15.527  0.00  0.00    +0.040 A 
ATOM     22  C   UNL     1      17.619  12.007  15.363  0.00  0.00    +0.051 A 
ATOM     23  C   UNL     1      15.615  12.982  14.431  0.00  0.00    +0.013 A 
ATOM     27  C   UNL     1      18.214  12.025  14.103  0.00  0.00    +0.124 A 
ATOM     28  C   UNL     1      16.211  12.999  13.169  0.00  0.00    +0.004 A 
ATOM     31  C   UNL     1      17.510  12.520  13.005  0.00  0.00    +0.038 A 
ENDBRANCH  16  18
BRANCH  17  20
ATOM      2  F   UNL     1      11.572   5.456  21.950  0.00  0.00    -0.205 F 
ATOM     20  C   UNL     1      11.830   8.161  19.531  0.00  0.00    +0.040 A 
ATOM     24  C   UNL     1      11.877   6.881  20.085  0.00  0.00    +0.051 A 
ATOM     25  C   UNL     1      11.435   9.244  20.315  0.00  0.00    +0.013 A 
ATOM     29  C   UNL     1      11.528   6.684  21.420  0.00  0.00    +0.124 A 
ATOM     30  C   UNL     1      11.085   9.048  21.651  0.00  0.00    +0.004 A 
ATOM     32  C   UNL     1      11.132   7.769  22.204  0.00  0.00    +0.038 A 
ENDBRANCH  17  20
BRANCH  11  15
ATOM      3  O   UNL     1      16.268  10.828  19.914  0.00  0.00    -0.274 OA
ATOM     10  N   UNL     1      15.010   9.042  19.112  0.00  0.00    -0.301 N 
ATOM     15  C   UNL     1      15.318  10.381  19.278  0.00  0.00    +0.236 C 
ATOM     34  H   UNL     1      14.165   8.787  18.608  0.00  0.00    +0.150 HD
BRANCH  10  19
ATOM     19  C   UNL     1      15.796   7.973  19.685  0.00  0.00    +0.179 C 
ATOM     21  C   UNL     1      15.387   6.636  19.086  0.00  0.00    +0.040 C 
BRANCH  19  26
ATOM      7  O   UNL     1      14.655   8.266  21.793  0.00  0.00    -0.249 OA
ATOM     26  C   UNL     1      15.676   7.933  21.201  0.00  0.00    +0.327 C 
BRANCH  26   6
ATOM      6  O   UNL     1      16.816   7.483  21.798  0.00  0.00    -0.467 OA
ATOM     33  C   UNL     1      18.005   8.223  21.507  0.00  0.00    +0.280 C 
ENDBRANCH  26   6
ENDBRANCH  19  26
ENDBRANCH  10  19
ENDBRANCH  11  15
TORSDOF 6
ENDMDL
MODEL 8
REMARK VINA RESULT:      -5.9     24.295     26.269
REMARK  Name = 7663613
REMARK  8 active torsions:
REMARK  status: ('A' for Active; 'I' for Inactive)
REMARK    1  A    between atoms: O_6  and  C_26
REMARK    2  A    between atoms: O_6  and  C_33
REMARK    3  A    between atoms: N_10  and  C_19
REMARK    4  A    between atoms: C_11  and  C_15
REMARK    5  A    between atoms: C_16  and  C_18
REMARK    6  A    between atoms: C_17  and  C_20
REMARK    7  A    between atoms: C_19  and  C_21
REMARK    8  A    between atoms: C_19  and  C_26
REMARK                            x       y       z     vdW  Elec       q    Type
REMARK                         _______ _______ _______ _____ _____    ______ ____
ROOT
ATOM      4  O   UNL     1      11.419   3.575   1.366  0.00  0.00    -0.270 OA
ATOM      5  O   UNL     1      15.454   9.510   1.162  0.00  0.00    -0.270 OA
ATOM      8  N   UNL     1      12.534   5.598   0.978  0.00  0.00    -0.283 N 
ATOM      9  N   UNL     1      14.766   7.297   1.463  0.00  0.00    -0.294 N 
ATOM     11  C   UNL     1      13.159   5.610   2.307  0.00  0.00    +0.179 C 
ATOM     12  C   UNL     1      14.606   6.102   2.300  0.00  0.00    +0.140 C 
ATOM     13  C   UNL     1      12.786   6.768   0.118  0.00  0.00    +0.128 C 
ATOM     14  C   UNL     1      14.261   7.148   0.103  0.00  0.00    +0.127 C 
ATOM     16  C   UNL     1      11.645   4.560   0.664  0.00  0.00    +0.247 C 
ATOM     17  C   UNL     1      15.332   8.509   1.865  0.00  0.00    +0.247 C 
ENDROOT
BRANCH  16  18
ATOM      1  F   UNL     1      10.996   3.258  -3.962  0.00  0.00    -0.205 F 
ATOM     18  C   UNL     1      10.897   4.641  -0.599  0.00  0.00    +0.040 A 
ATOM     22  C   UNL     1      11.310   3.896  -1.704  0.00  0.00    +0.051 A 
ATOM     23  C   UNL     1       9.775   5.463  -0.692  0.00  0.00    +0.013 A 
ATOM     27  C   UNL     1      10.600   3.972  -2.901  0.00  0.00    +0.124 A 
ATOM     28  C   UNL     1       9.064   5.539  -1.890  0.00  0.00    +0.004 A 
ATOM     31  C   UNL     1       9.477   4.794  -2.995  0.00  0.00    +0.038 A 
ENDBRANCH  16  18
BRANCH  17  20
ATOM      2  F   UNL     1      14.597   9.384   6.576  0.00  0.00    -0.205 F 
ATOM     20  C   UNL     1      15.831   8.615   3.241  0.00  0.00    +0.040 A 
ATOM     24  C   UNL     1      14.959   8.955   4.276  0.00  0.00    +0.051 A 
ATOM     25  C   UNL     1      17.178   8.376   3.515  0.00  0.00    +0.013 A 
ATOM     29  C   UNL     1      15.434   9.057   5.583  0.00  0.00    +0.124 A 
ATOM     30  C   UNL     1      17.653   8.479   4.822  0.00  0.00    +0.004 A 
ATOM     32  C   UNL     1      16.781   8.819   5.856  0.00  0.00    +0.038 A 
ENDBRANCH  17  20
BRANCH  11  15
ATOM      3  O   UNL     1      11.966   7.612   2.836  0.00  0.00    -0.274 OA
ATOM     10  N   UNL     1      11.930   5.844   4.352  0.00  0.00    -0.301 N 
ATOM     15  C   UNL     1      12.286   6.474   3.171  0.00  0.00    +0.236 C 
ATOM     34  H   UNL     1      12.208   4.878   4.500  0.00  0.00    +0.150 HD
BRANCH  10  19
ATOM     19  C   UNL     1      11.113   6.471   5.366  0.00  0.00    +0.179 C 
ATOM     21  C   UNL     1      11.991   7.142   6.411  0.00  0.00    +0.040 C 
BRANCH  19  26
ATOM      7  O   UNL     1       9.652   4.549   5.414  0.00  0.00    -0.249 OA
ATOM     26  C   UNL     1      10.170   5.477   6.026  0.00  0.00    +0.327 C 
BRANCH  26   6
ATOM      6  O   UNL     1       9.988   5.739   7.352  0.00  0.00    -0.467 OA
ATOM     33  C   UNL     1       9.861   4.595   8.201  0.00  0.00    +0.280 C 
ENDBRANCH  26   6
ENDBRANCH  19  26
ENDBRANCH  10  19
ENDBRANCH  11  15
TORSDOF 6
ENDMDL
MODEL 9
REMARK VINA RESULT:      -5.9      3.285      8.907
REMARK  Name = 7663613
REMARK  8 active torsions:
REMARK  status: ('A' for Active; 'I' for Inactive)
REMARK    1  A    between atoms: O_6  and  C_26
REMARK    2  A    between atoms: O_6  and  C_33
REMARK    3  A    between atoms: N_10  and  C_19
REMARK    4  A    between atoms: C_11  and  C_15
REMARK    5  A    between atoms: C_16  and  C_18
REMARK    6  A    between atoms: C_17  and  C_20
REMARK    7  A    between atoms: C_19  and  C_21
REMARK    8  A    between atoms: C_19  and  C_26
REMARK                            x       y       z     vdW  Elec       q    Type
REMARK                         _______ _______ _______ _____ _____    ______ ____
ROOT
ATOM      4  O   UNL     1      -5.542 -12.653  10.078  0.00  0.00    -0.270 OA
ATOM      5  O   UNL     1      -7.656  -6.094   8.062  0.00  0.00    -0.270 OA
ATOM      8  N   UNL     1      -5.963 -10.386   9.670  0.00  0.00    -0.283 N 
ATOM      9  N   UNL     1      -7.677  -8.358   8.644  0.00  0.00    -0.294 N 
ATOM     11  C   UNL     1      -6.774 -10.659   8.477  0.00  0.00    +0.179 C 
ATOM     12  C   UNL     1      -8.002  -9.758   8.350  0.00  0.00    +0.140 C 
ATOM     13  C   UNL     1      -5.728  -8.968   9.999  0.00  0.00    +0.128 C 
ATOM     14  C   UNL     1      -7.012  -8.153   9.926  0.00  0.00    +0.127 C 
ATOM     16  C   UNL     1      -5.361 -11.463  10.335  0.00  0.00    +0.247 C 
ATOM     17  C   UNL     1      -7.940  -7.265   7.815  0.00  0.00    +0.247 C 
ENDROOT
BRANCH  16  18
ATOM      1  F   UNL     1      -4.458 -10.430  14.986  0.00  0.00    -0.205 F 
ATOM     18  C   UNL     1      -4.419 -11.173  11.425  0.00  0.00    +0.040 A 
ATOM     22  C   UNL     1      -4.895 -10.934  12.714  0.00  0.00    +0.051 A 
ATOM     23  C   UNL     1      -3.049 -11.135  11.169  0.00  0.00    +0.013 A 
ATOM     27  C   UNL     1      -4.001 -10.659  13.748  0.00  0.00    +0.124 A 
ATOM     28  C   UNL     1      -2.154 -10.860  12.204  0.00  0.00    +0.004 A 
ATOM     31  C   UNL     1      -2.630 -10.622  13.493  0.00  0.00    +0.038 A 
ENDBRANCH  16  18
BRANCH  17  20
ATOM      2  F   UNL     1      -7.814  -8.614   3.161  0.00  0.00    -0.205 F 
ATOM     20  C   UNL     1      -8.613  -7.515   6.535  0.00  0.00    +0.040 A 
ATOM     24  C   UNL     1      -7.879  -7.955   5.433  0.00  0.00    +0.051 A 
ATOM     25  C   UNL     1      -9.988  -7.312   6.420  0.00  0.00    +0.013 A 
ATOM     29  C   UNL     1      -8.519  -8.192   4.217  0.00  0.00    +0.124 A 
ATOM     30  C   UNL     1     -10.629  -7.548   5.203  0.00  0.00    +0.004 A 
ATOM     32  C   UNL     1      -9.895  -7.988   4.102  0.00  0.00    +0.038 A 
ENDBRANCH  17  20
BRANCH  11  15
ATOM      3  O   UNL     1      -4.903  -9.728   7.320  0.00  0.00    -0.274 OA
ATOM     10  N   UNL     1      -6.223 -11.311   6.237  0.00  0.00    -0.301 N 
ATOM     15  C   UNL     1      -5.852 -10.506   7.301  0.00  0.00    +0.236 C 
ATOM     34  H   UNL     1      -6.997 -11.958   6.353  0.00  0.00    +0.150 HD
BRANCH  10  19
ATOM     19  C   UNL     1      -5.513 -11.332   4.979  0.00  0.00    +0.179 C 
ATOM     21  C   UNL     1      -6.469 -11.642   3.837  0.00  0.00    +0.040 C 
BRANCH  19  26
ATOM      7  O   UNL     1      -3.298 -12.120   4.427  0.00  0.00    -0.249 OA
ATOM     26  C   UNL     1      -4.365 -12.331   4.993  0.00  0.00    +0.327 C 
BRANCH  26   6
ATOM      6  O   UNL     1      -4.666 -13.454   5.705  0.00  0.00    -0.467 OA
ATOM     33  C   UNL     1      -3.768 -13.774   6.772  0.00  0.00    +0.280 C 
ENDBRANCH  26   6
ENDBRANCH  19  26
ENDBRANCH  10  19
ENDBRANCH  11  15
TORSDOF 6
ENDMDL
MODEL 10
REMARK VINA RESULT:      -5.9     28.288     30.989
REMARK  Name = 7663613
REMARK  8 active torsions:
REMARK  status: ('A' for Active; 'I' for Inactive)
REMARK    1  A    between atoms: O_6  and  C_26
REMARK    2  A    between atoms: O_6  and  C_33
REMARK    3  A    between atoms: N_10  and  C_19
REMARK    4  A    between atoms: C_11  and  C_15
REMARK    5  A    between atoms: C_16  and  C_18
REMARK    6  A    between atoms: C_17  and  C_20
REMARK    7  A    between atoms: C_19  and  C_21
REMARK    8  A    between atoms: C_19  and  C_26
REMARK                            x       y       z     vdW  Elec       q    Type
REMARK                         _______ _______ _______ _____ _____    ______ ____
ROOT
ATOM      4  O   UNL     1      13.544  12.086  18.791  0.00  0.00    -0.270 OA
ATOM      5  O   UNL     1      11.126  10.764  25.421  0.00  0.00    -0.270 OA
ATOM      8  N   UNL     1      12.798  11.281  20.860  0.00  0.00    -0.283 N 
ATOM      9  N   UNL     1      11.425  11.728  23.313  0.00  0.00    -0.294 N 
ATOM     11  C   UNL     1      12.874  12.599  21.501  0.00  0.00    +0.179 C 
ATOM     12  C   UNL     1      11.716  12.884  22.457  0.00  0.00    +0.140 C 
ATOM     13  C   UNL     1      12.412  10.148  21.720  0.00  0.00    +0.128 C 
ATOM     14  C   UNL     1      11.205  10.484  22.585  0.00  0.00    +0.127 C 
ATOM     16  C   UNL     1      13.217  11.156  19.527  0.00  0.00    +0.247 C 
ATOM     17  C   UNL     1      11.359  11.738  24.708  0.00  0.00    +0.247 C 
ENDROOT
BRANCH  16  18
ATOM      1  F   UNL     1      15.644   7.043  18.687  0.00  0.00    -0.205 F 
ATOM     18  C   UNL     1      13.297   9.810  18.943  0.00  0.00    +0.040 A 
ATOM     22  C   UNL     1      14.457   9.050  19.096  0.00  0.00    +0.051 A 
ATOM     23  C   UNL     1      12.212   9.293  18.237  0.00  0.00    +0.013 A 
ATOM     27  C   UNL     1      14.531   7.773  18.542  0.00  0.00    +0.124 A 
ATOM     28  C   UNL     1      12.286   8.015  17.682  0.00  0.00    +0.004 A 
ATOM     31  C   UNL     1      13.446   7.255  17.835  0.00  0.00    +0.038 A 
ENDBRANCH  16  18
BRANCH  17  20
ATOM      2  F   UNL     1      14.189  14.703  27.296  0.00  0.00    -0.205 F 
ATOM     20  C   UNL     1      11.585  13.012  25.401  0.00  0.00    +0.040 A 
ATOM     24  C   UNL     1      12.805  13.258  26.032  0.00  0.00    +0.051 A 
ATOM     25  C   UNL     1      10.578  13.978  25.430  0.00  0.00    +0.013 A 
ATOM     29  C   UNL     1      13.018  14.468  26.691  0.00  0.00    +0.124 A 
ATOM     30  C   UNL     1      10.792  15.188  26.089  0.00  0.00    +0.004 A 
ATOM     32  C   UNL     1      12.011  15.434  26.720  0.00  0.00    +0.038 A 
ENDBRANCH  17  20
BRANCH  11  15
ATOM      3  O   UNL     1      14.326  13.172  23.310  0.00  0.00    -0.274 OA
ATOM     10  N   UNL     1      15.208  12.054  21.467  0.00  0.00    -0.301 N 
ATOM     15  C   UNL     1      14.197  12.644  22.209  0.00  0.00    +0.236 C 
ATOM     34  H   UNL     1      14.976  11.598  20.589  0.00  0.00    +0.150 HD
BRANCH  10  19
ATOM     19  C   UNL     1      16.580  11.987  21.915  0.00  0.00    +0.179 C 
ATOM     21  C   UNL     1      17.320  13.263  21.542  0.00  0.00    +0.040 C 
BRANCH  19  26
ATOM      7  O   UNL     1      18.213  10.864  20.536  0.00  0.00    -0.249 OA
ATOM     26  C   UNL     1      17.301  10.773  21.351  0.00  0.00    +0.327 C 
BRANCH  26   6
ATOM      6  O   UNL     1      16.822   9.603  21.864  0.00  0.00    -0.467 OA
ATOM     33  C   UNL     1      17.392   8.407  21.322  0.00  0.00    +0.280 C 
ENDBRANCH  26   6
ENDBRANCH  19  26
ENDBRANCH  10  19
ENDBRANCH  11  15
TORSDOF 6
ENDMDL
