REMARK  Name = 71693262
REMARK  7 active torsions:
REMARK  status: ('A' for Active; 'I' for Inactive)
REMARK    1  A    between atoms: O_2  and  C_9
REMARK    2  A    between atoms: N_5  and  C_11
REMARK    3  A    between atoms: N_6  and  C_19
REMARK    4  A    between atoms: C_7  and  C_9
REMARK    5  A    between atoms: C_8  and  C_10
REMARK    6  A    between atoms: C_11  and  C_14
REMARK    7  A    between atoms: C_25  and  C_26
REMARK                            x       y       z     vdW  Elec       q    Type
REMARK                         _______ _______ _______ _____ _____    ______ ____
ROOT
ATOM      1  O   UNL     1       1.364  -1.926  -1.689  0.00  0.00    -0.361 OA
ATOM      3  O   UNL     1       3.886   0.379  -1.884  0.00  0.00    -0.273 OA
ATOM      5  N   UNL     1       2.661  -0.253  -0.001  0.00  0.00    -0.287 N 
ATOM      7  C   UNL     1       1.952  -1.347   0.671  0.00  0.00    +0.135 C 
ATOM      8  C   UNL     1       1.043  -2.133  -0.309  0.00  0.00    +0.171 C 
ATOM     12  C   UNL     1       3.162  -0.417  -1.290  0.00  0.00    +0.242 C 
ATOM     13  C   UNL     1       2.741  -1.720  -1.927  0.00  0.00    +0.256 C 
ENDROOT
BRANCH   8  10
ATOM     10  C   UNL     1      -0.415  -1.754  -0.129  0.00  0.00    -0.017 A 
ATOM     15  C   UNL     1      -0.963  -0.711  -0.876  0.00  0.00    +0.008 A 
ATOM     16  C   UNL     1      -1.209  -2.450   0.783  0.00  0.00    +0.008 A 
ATOM     17  C   UNL     1      -2.303  -0.363  -0.710  0.00  0.00    +0.023 A 
ATOM     18  C   UNL     1      -2.549  -2.103   0.949  0.00  0.00    +0.023 A 
ATOM     19  C   UNL     1      -3.097  -1.059   0.202  0.00  0.00    +0.033 A 
BRANCH  19   6
ATOM      4  O   UNL     1      -4.742   1.074  -1.142  0.00  0.00    -0.276 OA
ATOM      6  N   UNL     1      -4.438  -0.711   0.367  0.00  0.00    -0.286 N 
ATOM     25  C   UNL     1      -5.157   0.298  -0.287  0.00  0.00    +0.214 C 
ATOM     26  C   UNL     1      -6.591   0.353   0.176  0.00  0.00    +0.109 C 
ATOM     28  H   UNL     1      -4.949  -1.266   1.051  0.00  0.00    +0.155 HD
ENDBRANCH  19   6
ENDBRANCH   8  10
BRANCH   7   9
ATOM      9  C   UNL     1       2.944  -2.282   1.378  0.00  0.00    +0.181 C 
BRANCH   9   2
ATOM      2  O   UNL     1       3.410  -1.631   2.542  0.00  0.00    -0.393 OA
ATOM     27  H   UNL     1       4.031  -2.237   2.982  0.00  0.00    +0.209 HD
ENDBRANCH   9   2
ENDBRANCH   7   9
BRANCH   5  11
ATOM     11  C   UNL     1       2.942   0.953   0.764  0.00  0.00    +0.143 C 
BRANCH  11  14
ATOM     14  C   UNL     1       1.880   1.997   0.576  0.00  0.00    -0.030 A 
ATOM     20  C   UNL     1       1.998   2.935  -0.449  0.00  0.00    +0.005 A 
ATOM     21  C   UNL     1       0.776   2.029   1.428  0.00  0.00    +0.005 A 
ATOM     22  C   UNL     1       1.010   3.905  -0.624  0.00  0.00    +0.000 A 
ATOM     23  C   UNL     1      -0.211   2.999   1.253  0.00  0.00    +0.000 A 
ATOM     24  C   UNL     1      -0.094   3.937   0.228  0.00  0.00    +0.000 A 
ENDBRANCH  11  14
ENDBRANCH   5  11
TORSDOF 6
