MODEL 1
REMARK VINA RESULT:      -6.4      0.000      0.000
REMARK  Name = 7113406
REMARK  10 active torsions:
REMARK  status: ('A' for Active; 'I' for Inactive)
REMARK    1  A    between atoms: N_6  and  C_18
REMARK    2  A    between atoms: N_10  and  C_35
REMARK    3  A    between atoms: N_10  and  C_37
REMARK    4  A    between atoms: N_10  and  C_38
REMARK    5  A    between atoms: C_11  and  C_14
REMARK    6  A    between atoms: C_14  and  C_18
REMARK    7  A    between atoms: C_18  and  C_24
REMARK    8  A    between atoms: C_19  and  C_21
REMARK    9  A    between atoms: C_25  and  C_27
REMARK   10  A    between atoms: C_26  and  C_28
REMARK                            x       y       z     vdW  Elec       q    Type
REMARK                         _______ _______ _______ _____ _____    ______ ____
ROOT
ATOM      4  O   UNL     1      10.369  13.724  22.126  0.00  0.00    -0.269 OA
ATOM      5  O   UNL     1      15.319  10.907  18.381  0.00  0.00    -0.270 OA
ATOM      7  N   UNL     1      12.566  13.039  21.833  0.00  0.00    -0.283 N 
ATOM      8  N   UNL     1      14.693  12.421  20.046  0.00  0.00    -0.294 N 
ATOM     19  C   UNL     1      12.268  12.454  20.515  0.00  0.00    +0.179 C 
ATOM     20  C   UNL     1      13.371  12.681  19.483  0.00  0.00    +0.140 C 
ATOM     22  C   UNL     1      13.944  12.872  22.335  0.00  0.00    +0.128 C 
ATOM     23  C   UNL     1      14.981  13.184  21.263  0.00  0.00    +0.127 C 
ATOM     25  C   UNL     1      11.508  13.601  22.580  0.00  0.00    +0.254 C 
ATOM     26  C   UNL     1      15.567  11.544  19.403  0.00  0.00    +0.247 C 
ENDROOT
BRANCH  26  28
ATOM     28  C   UNL     1      16.897  11.339  19.991  0.00  0.00    +0.037 A 
ATOM     29  C   UNL     1      17.101  10.313  20.914  0.00  0.00    +0.015 A 
ATOM     30  C   UNL     1      17.956  12.172  19.630  0.00  0.00    +0.015 A 
ATOM     32  C   UNL     1      18.363  10.118  21.474  0.00  0.00    +0.024 A 
ATOM     33  C   UNL     1      19.219  11.978  20.190  0.00  0.00    +0.024 A 
ATOM     35  C   UNL     1      19.422  10.951  21.111  0.00  0.00    +0.029 A 
BRANCH  35  10
ATOM     10  N   UNL     1      20.699  10.754  21.679  0.00  0.00    -0.336 N 
ATOM     37  C   UNL     1      20.875  10.778  23.117  0.00  0.00    +0.129 C 
ATOM     38  C   UNL     1      21.854  10.540  20.829  0.00  0.00    +0.129 C 
ENDBRANCH  35  10
ENDBRANCH  26  28
BRANCH  25  27
ATOM      1  S   UNL     1      11.601  12.940  25.236  0.00  0.00    -0.092 S 
ATOM     27  C   UNL     1      11.804  14.042  23.940  0.00  0.00    +0.074 A 
ATOM     31  C   UNL     1      12.243  15.274  24.373  0.00  0.00    +0.021 A 
ATOM     34  C   UNL     1      12.418  15.313  25.787  0.00  0.00    +0.008 A 
ATOM     36  C   UNL     1      12.104  14.110  26.381  0.00  0.00    +0.046 A 
ENDBRANCH  25  27
BRANCH  19  21
ATOM      2  O   UNL     1      11.438  10.590  21.756  0.00  0.00    -0.274 OA
ATOM      6  N   UNL     1      12.559  10.201  19.753  0.00  0.00    -0.302 N 
ATOM     21  C   UNL     1      12.027  10.993  20.756  0.00  0.00    +0.236 C 
ATOM     39  H   UNL     1      13.086  10.639  19.003  0.00  0.00    +0.150 HD
BRANCH   6  18
ATOM     18  C   UNL     1      12.482   8.758  19.761  0.00  0.00    +0.159 C 
BRANCH  18  24
ATOM      3  O   UNL     1      10.368   8.548  18.584  0.00  0.00    -0.274 OA
ATOM      9  N   UNL     1      10.510   7.747  20.732  0.00  0.00    -0.328 N 
ATOM     24  C   UNL     1      11.026   8.345  19.602  0.00  0.00    +0.231 C 
ATOM     40  H   UNL     1       9.545   7.432  20.760  0.00  0.00    +0.145 HD
ATOM     41  H   UNL     1      11.059   7.603  21.573  0.00  0.00    +0.145 HD
ENDBRANCH  18  24
BRANCH  18  14
ATOM     14  C   UNL     1      13.139   8.151  21.006  0.00  0.00    +0.035 C 
BRANCH  14  11
ATOM     11  C   UNL     1      14.291   7.194  20.704  0.00  0.00    -0.009 C 
ATOM     12  C   UNL     1      14.837   7.431  19.289  0.00  0.00    +0.003 C 
ATOM     13  C   UNL     1      15.404   7.340  21.750  0.00  0.00    +0.003 C 
ATOM     15  C   UNL     1      16.025   6.521  18.984  0.00  0.00    +0.000 C 
ATOM     16  C   UNL     1      16.591   6.431  21.440  0.00  0.00    +0.000 C 
ATOM     17  C   UNL     1      17.125   6.662  20.031  0.00  0.00    +0.000 C 
ENDBRANCH  14  11
ENDBRANCH  18  14
ENDBRANCH   6  18
ENDBRANCH  19  21
TORSDOF 8
ENDMDL
MODEL 2
REMARK VINA RESULT:      -6.4     29.379     31.656
REMARK  Name = 7113406
REMARK  10 active torsions:
REMARK  status: ('A' for Active; 'I' for Inactive)
REMARK    1  A    between atoms: N_6  and  C_18
REMARK    2  A    between atoms: N_10  and  C_35
REMARK    3  A    between atoms: N_10  and  C_37
REMARK    4  A    between atoms: N_10  and  C_38
REMARK    5  A    between atoms: C_11  and  C_14
REMARK    6  A    between atoms: C_14  and  C_18
REMARK    7  A    between atoms: C_18  and  C_24
REMARK    8  A    between atoms: C_19  and  C_21
REMARK    9  A    between atoms: C_25  and  C_27
REMARK   10  A    between atoms: C_26  and  C_28
REMARK                            x       y       z     vdW  Elec       q    Type
REMARK                         _______ _______ _______ _____ _____    ______ ____
ROOT
ATOM      4  O   UNL     1      -3.332 -15.188  15.615  0.00  0.00    -0.269 OA
ATOM      5  O   UNL     1      -1.990  -9.922  11.500  0.00  0.00    -0.270 OA
ATOM      7  N   UNL     1      -3.970 -13.640  14.008  0.00  0.00    -0.283 N 
ATOM      8  N   UNL     1      -3.211 -11.871  11.914  0.00  0.00    -0.294 N 
ATOM     19  C   UNL     1      -2.665 -12.962  14.061  0.00  0.00    +0.179 C 
ATOM     20  C   UNL     1      -2.156 -12.511  12.693  0.00  0.00    +0.140 C 
ATOM     22  C   UNL     1      -4.989 -13.048  13.120  0.00  0.00    +0.128 C 
ATOM     23  C   UNL     1      -4.414 -12.691  11.755  0.00  0.00    +0.127 C 
ATOM     25  C   UNL     1      -4.210 -14.719  14.887  0.00  0.00    +0.254 C 
ATOM     26  C   UNL     1      -3.004 -10.605  11.363  0.00  0.00    +0.247 C 
ENDROOT
BRANCH  26  28
ATOM     28  C   UNL     1      -4.083 -10.015  10.561  0.00  0.00    +0.037 A 
ATOM     29  C   UNL     1      -5.112  -9.310  11.187  0.00  0.00    +0.015 A 
ATOM     30  C   UNL     1      -4.082 -10.162   9.174  0.00  0.00    +0.015 A 
ATOM     32  C   UNL     1      -6.138  -8.751  10.426  0.00  0.00    +0.024 A 
ATOM     33  C   UNL     1      -5.109  -9.602   8.413  0.00  0.00    +0.024 A 
ATOM     35  C   UNL     1      -6.136  -8.897   9.038  0.00  0.00    +0.029 A 
BRANCH  35  10
ATOM     10  N   UNL     1      -7.175  -8.332   8.269  0.00  0.00    -0.336 N 
ATOM     37  C   UNL     1      -8.045  -7.323   8.838  0.00  0.00    +0.129 C 
ATOM     38  C   UNL     1      -7.394  -8.765   6.903  0.00  0.00    +0.129 C 
ENDBRANCH  35  10
ENDBRANCH  26  28
BRANCH  25  27
ATOM      1  S   UNL     1      -5.924 -16.620  13.914  0.00  0.00    -0.092 S 
ATOM     27  C   UNL     1      -5.558 -15.279  14.915  0.00  0.00    +0.074 A 
ATOM     31  C   UNL     1      -6.646 -14.878  15.660  0.00  0.00    +0.021 A 
ATOM     34  C   UNL     1      -7.794 -15.682  15.406  0.00  0.00    +0.008 A 
ATOM     36  C   UNL     1      -7.541 -16.667  14.476  0.00  0.00    +0.046 A 
ENDBRANCH  25  27
BRANCH  19  21
ATOM      2  O   UNL     1      -2.362 -10.696  14.755  0.00  0.00    -0.274 OA
ATOM      6  N   UNL     1      -3.558 -12.146  16.129  0.00  0.00    -0.302 N 
ATOM     21  C   UNL     1      -2.839 -11.802  14.997  0.00  0.00    +0.236 C 
ATOM     39  H   UNL     1      -3.850 -13.111  16.257  0.00  0.00    +0.150 HD
BRANCH   6  18
ATOM     18  C   UNL     1      -3.843 -11.214  17.196  0.00  0.00    +0.159 C 
BRANCH  18  24
ATOM      3  O   UNL     1      -4.995 -11.422  19.325  0.00  0.00    -0.274 OA
ATOM      9  N   UNL     1      -4.457 -13.338  18.180  0.00  0.00    -0.328 N 
ATOM     24  C   UNL     1      -4.501 -11.970  18.342  0.00  0.00    +0.231 C 
ATOM     40  H   UNL     1      -4.853 -13.958  18.879  0.00  0.00    +0.145 HD
ATOM     41  H   UNL     1      -4.029 -13.779  17.372  0.00  0.00    +0.145 HD
ENDBRANCH  18  24
BRANCH  18  14
ATOM     14  C   UNL     1      -4.677 -10.021  16.716  0.00  0.00    +0.035 C 
BRANCH  14  11
ATOM     11  C   UNL     1      -6.019 -10.403  16.096  0.00  0.00    -0.009 C 
ATOM     12  C   UNL     1      -7.179  -9.811  16.907  0.00  0.00    +0.003 C 
ATOM     13  C   UNL     1      -6.089  -9.947  14.632  0.00  0.00    +0.003 C 
ATOM     15  C   UNL     1      -8.532 -10.135  16.276  0.00  0.00    +0.000 C 
ATOM     16  C   UNL     1      -7.443 -10.270  14.005  0.00  0.00    +0.000 C 
ATOM     17  C   UNL     1      -8.594  -9.688  14.819  0.00  0.00    +0.000 C 
ENDBRANCH  14  11
ENDBRANCH  18  14
ENDBRANCH   6  18
ENDBRANCH  19  21
TORSDOF 8
ENDMDL
MODEL 3
REMARK VINA RESULT:      -6.4     28.096     32.151
REMARK  Name = 7113406
REMARK  10 active torsions:
REMARK  status: ('A' for Active; 'I' for Inactive)
REMARK    1  A    between atoms: N_6  and  C_18
REMARK    2  A    between atoms: N_10  and  C_35
REMARK    3  A    between atoms: N_10  and  C_37
REMARK    4  A    between atoms: N_10  and  C_38
REMARK    5  A    between atoms: C_11  and  C_14
REMARK    6  A    between atoms: C_14  and  C_18
REMARK    7  A    between atoms: C_18  and  C_24
REMARK    8  A    between atoms: C_19  and  C_21
REMARK    9  A    between atoms: C_25  and  C_27
REMARK   10  A    between atoms: C_26  and  C_28
REMARK                            x       y       z     vdW  Elec       q    Type
REMARK                         _______ _______ _______ _____ _____    ______ ____
ROOT
ATOM      4  O   UNL     1      -6.344  -9.199  12.825  0.00  0.00    -0.269 OA
ATOM      5  O   UNL     1      -6.591 -10.351  19.539  0.00  0.00    -0.270 OA
ATOM      7  N   UNL     1      -7.245 -10.262  14.681  0.00  0.00    -0.283 N 
ATOM      8  N   UNL     1      -7.707 -10.256  17.488  0.00  0.00    -0.294 N 
ATOM     19  C   UNL     1      -6.258  -9.647  15.583  0.00  0.00    +0.179 C 
ATOM     20  C   UNL     1      -6.842  -9.221  16.929  0.00  0.00    +0.140 C 
ATOM     22  C   UNL     1      -8.193 -11.216  15.287  0.00  0.00    +0.128 C 
ATOM     23  C   UNL     1      -8.780 -10.684  16.589  0.00  0.00    +0.127 C 
ATOM     25  C   UNL     1      -7.150 -10.005  13.295  0.00  0.00    +0.254 C 
ATOM     26  C   UNL     1      -7.495 -10.716  18.788  0.00  0.00    +0.247 C 
ENDROOT
BRANCH  26  28
ATOM     28  C   UNL     1      -8.410 -11.735  19.318  0.00  0.00    +0.037 A 
ATOM     29  C   UNL     1      -9.632 -11.355  19.873  0.00  0.00    +0.015 A 
ATOM     30  C   UNL     1      -8.056 -13.084  19.269  0.00  0.00    +0.015 A 
ATOM     32  C   UNL     1     -10.500 -12.323  20.378  0.00  0.00    +0.024 A 
ATOM     33  C   UNL     1      -8.925 -14.051  19.773  0.00  0.00    +0.024 A 
ATOM     35  C   UNL     1     -10.146 -13.671  20.328  0.00  0.00    +0.029 A 
BRANCH  35  10
ATOM     10  N   UNL     1     -11.025 -14.649  20.839  0.00  0.00    -0.336 N 
ATOM     37  C   UNL     1     -10.857 -16.045  20.487  0.00  0.00    +0.129 C 
ATOM     38  C   UNL     1     -12.118 -14.268  21.713  0.00  0.00    +0.129 C 
ENDBRANCH  35  10
ENDBRANCH  26  28
BRANCH  25  27
ATOM      1  S   UNL     1      -9.511  -9.999  11.909  0.00  0.00    -0.092 S 
ATOM     27  C   UNL     1      -8.050 -10.739  12.411  0.00  0.00    +0.074 A 
ATOM     31  C   UNL     1      -7.904 -12.005  11.885  0.00  0.00    +0.021 A 
ATOM     34  C   UNL     1      -9.006 -12.371  11.059  0.00  0.00    +0.008 A 
ATOM     36  C   UNL     1      -9.952 -11.373  10.986  0.00  0.00    +0.046 A 
ENDBRANCH  25  27
BRANCH  19  21
ATOM      2  O   UNL     1      -5.197 -11.509  16.640  0.00  0.00    -0.274 OA
ATOM      6  N   UNL     1      -4.152 -10.498  14.821  0.00  0.00    -0.302 N 
ATOM     21  C   UNL     1      -5.165 -10.661  15.750  0.00  0.00    +0.236 C 
ATOM     39  H   UNL     1      -4.197  -9.720  14.169  0.00  0.00    +0.150 HD
BRANCH   6  18
ATOM     18  C   UNL     1      -2.973 -11.333  14.783  0.00  0.00    +0.159 C 
BRANCH  18  24
ATOM      3  O   UNL     1      -1.095  -9.838  15.159  0.00  0.00    -0.274 OA
ATOM      9  N   UNL     1      -1.835 -11.126  16.909  0.00  0.00    -0.328 N 
ATOM     24  C   UNL     1      -1.879 -10.671  15.609  0.00  0.00    +0.231 C 
ATOM     40  H   UNL     1      -1.145 -10.772  17.563  0.00  0.00    +0.145 HD
ATOM     41  H   UNL     1      -2.477 -11.829  17.263  0.00  0.00    +0.145 HD
ENDBRANCH  18  24
BRANCH  18  14
ATOM     14  C   UNL     1      -2.529 -11.643  13.349  0.00  0.00    +0.035 C 
BRANCH  14  11
ATOM     11  C   UNL     1      -3.293 -10.871  12.275  0.00  0.00    -0.009 C 
ATOM     12  C   UNL     1      -2.331 -10.043  11.414  0.00  0.00    +0.003 C 
ATOM     13  C   UNL     1      -4.119 -11.828  11.406  0.00  0.00    +0.003 C 
ATOM     15  C   UNL     1      -3.067  -9.303  10.299  0.00  0.00    +0.000 C 
ATOM     16  C   UNL     1      -4.851 -11.086  10.290  0.00  0.00    +0.000 C 
ATOM     17  C   UNL     1      -3.893 -10.257   9.442  0.00  0.00    +0.000 C 
ENDBRANCH  14  11
ENDBRANCH  18  14
ENDBRANCH   6  18
ENDBRANCH  19  21
TORSDOF 8
ENDMDL
MODEL 4
REMARK VINA RESULT:      -6.0     29.505     32.045
REMARK  Name = 7113406
REMARK  10 active torsions:
REMARK  status: ('A' for Active; 'I' for Inactive)
REMARK    1  A    between atoms: N_6  and  C_18
REMARK    2  A    between atoms: N_10  and  C_35
REMARK    3  A    between atoms: N_10  and  C_37
REMARK    4  A    between atoms: N_10  and  C_38
REMARK    5  A    between atoms: C_11  and  C_14
REMARK    6  A    between atoms: C_14  and  C_18
REMARK    7  A    between atoms: C_18  and  C_24
REMARK    8  A    between atoms: C_19  and  C_21
REMARK    9  A    between atoms: C_25  and  C_27
REMARK   10  A    between atoms: C_26  and  C_28
REMARK                            x       y       z     vdW  Elec       q    Type
REMARK                         _______ _______ _______ _____ _____    ______ ____
ROOT
ATOM      4  O   UNL     1      -1.803 -11.504  11.961  0.00  0.00    -0.269 OA
ATOM      5  O   UNL     1      -5.516 -12.001  17.656  0.00  0.00    -0.270 OA
ATOM      7  N   UNL     1      -3.747 -11.120  13.170  0.00  0.00    -0.283 N 
ATOM      8  N   UNL     1      -5.004 -10.823  15.704  0.00  0.00    -0.294 N 
ATOM     19  C   UNL     1      -3.244 -11.875  14.328  0.00  0.00    +0.179 C 
ATOM     20  C   UNL     1      -3.607 -11.245  15.672  0.00  0.00    +0.140 C 
ATOM     22  C   UNL     1      -5.122 -10.594  13.268  0.00  0.00    +0.128 C 
ATOM     23  C   UNL     1      -5.378  -9.923  14.612  0.00  0.00    +0.127 C 
ATOM     25  C   UNL     1      -2.950 -11.053  12.005  0.00  0.00    +0.254 C 
ATOM     26  C   UNL     1      -5.838 -11.245  16.741  0.00  0.00    +0.247 C 
ENDROOT
BRANCH  26  28
ATOM     28  C   UNL     1      -7.227 -10.768  16.747  0.00  0.00    +0.037 A 
ATOM     29  C   UNL     1      -7.554  -9.579  17.399  0.00  0.00    +0.015 A 
ATOM     30  C   UNL     1      -8.220 -11.506  16.104  0.00  0.00    +0.015 A 
ATOM     32  C   UNL     1      -8.873  -9.127  17.407  0.00  0.00    +0.024 A 
ATOM     33  C   UNL     1      -9.540 -11.054  16.110  0.00  0.00    +0.024 A 
ATOM     35  C   UNL     1      -9.866  -9.865  16.762  0.00  0.00    +0.029 A 
BRANCH  35  10
ATOM     10  N   UNL     1     -11.201  -9.408  16.771  0.00  0.00    -0.336 N 
ATOM     37  C   UNL     1     -11.858  -9.035  15.534  0.00  0.00    +0.129 C 
ATOM     38  C   UNL     1     -11.928  -9.291  18.020  0.00  0.00    +0.129 C 
ENDBRANCH  35  10
ENDBRANCH  26  28
BRANCH  25  27
ATOM      1  S   UNL     1      -4.435 -11.381   9.729  0.00  0.00    -0.092 S 
ATOM     27  C   UNL     1      -3.533 -10.422  10.825  0.00  0.00    +0.074 A 
ATOM     31  C   UNL     1      -3.468  -9.105  10.428  0.00  0.00    +0.021 A 
ATOM     34  C   UNL     1      -4.171  -8.879   9.209  0.00  0.00    +0.008 A 
ATOM     36  C   UNL     1      -4.744 -10.032   8.720  0.00  0.00    +0.046 A 
ENDBRANCH  25  27
BRANCH  19  21
ATOM      2  O   UNL     1      -4.545 -13.572  13.264  0.00  0.00    -0.274 OA
ATOM      6  N   UNL     1      -3.414 -14.087  15.233  0.00  0.00    -0.302 N 
ATOM     21  C   UNL     1      -3.807 -13.259  14.195  0.00  0.00    +0.236 C 
ATOM     39  H   UNL     1      -2.853 -13.703  15.988  0.00  0.00    +0.150 HD
BRANCH   6  18
ATOM     18  C   UNL     1      -3.840 -15.463  15.351  0.00  0.00    +0.159 C 
BRANCH  18  24
ATOM      3  O   UNL     1      -5.624 -16.435  16.682  0.00  0.00    -0.274 OA
ATOM      9  N   UNL     1      -4.459 -14.655  17.546  0.00  0.00    -0.328 N 
ATOM     24  C   UNL     1      -4.732 -15.596  16.577  0.00  0.00    +0.231 C 
ATOM     40  H   UNL     1      -4.989 -14.629  18.411  0.00  0.00    +0.145 HD
ATOM     41  H   UNL     1      -3.732 -13.954  17.438  0.00  0.00    +0.145 HD
ENDBRANCH  18  24
BRANCH  18  14
ATOM     14  C   UNL     1      -2.655 -16.435  15.370  0.00  0.00    +0.035 C 
BRANCH  14  11
ATOM     11  C   UNL     1      -2.259 -16.969  13.995  0.00  0.00    -0.009 C 
ATOM     12  C   UNL     1      -3.457 -16.940  13.036  0.00  0.00    +0.003 C 
ATOM     13  C   UNL     1      -1.082 -16.170  13.422  0.00  0.00    +0.003 C 
ATOM     15  C   UNL     1      -3.072 -17.421  11.638  0.00  0.00    +0.000 C 
ATOM     16  C   UNL     1      -0.701 -16.650  12.023  0.00  0.00    +0.000 C 
ATOM     17  C   UNL     1      -1.896 -16.629  11.076  0.00  0.00    +0.000 C 
ENDBRANCH  14  11
ENDBRANCH  18  14
ENDBRANCH   6  18
ENDBRANCH  19  21
TORSDOF 8
ENDMDL
MODEL 5
REMARK VINA RESULT:      -6.0     16.647     18.831
REMARK  Name = 7113406
REMARK  10 active torsions:
REMARK  status: ('A' for Active; 'I' for Inactive)
REMARK    1  A    between atoms: N_6  and  C_18
REMARK    2  A    between atoms: N_10  and  C_35
REMARK    3  A    between atoms: N_10  and  C_37
REMARK    4  A    between atoms: N_10  and  C_38
REMARK    5  A    between atoms: C_11  and  C_14
REMARK    6  A    between atoms: C_14  and  C_18
REMARK    7  A    between atoms: C_18  and  C_24
REMARK    8  A    between atoms: C_19  and  C_21
REMARK    9  A    between atoms: C_25  and  C_27
REMARK   10  A    between atoms: C_26  and  C_28
REMARK                            x       y       z     vdW  Elec       q    Type
REMARK                         _______ _______ _______ _____ _____    ______ ____
ROOT
ATOM      4  O   UNL     1       8.418   5.720   4.804  0.00  0.00    -0.269 OA
ATOM      5  O   UNL     1      13.740   8.941   2.018  0.00  0.00    -0.270 OA
ATOM      7  N   UNL     1      10.545   6.636   4.937  0.00  0.00    -0.283 N 
ATOM      8  N   UNL     1      12.456   8.480   3.915  0.00  0.00    -0.294 N 
ATOM     19  C   UNL     1      10.562   6.951   3.500  0.00  0.00    +0.179 C 
ATOM     20  C   UNL     1      11.211   8.296   3.176  0.00  0.00    +0.140 C 
ATOM     22  C   UNL     1      11.773   6.942   5.696  0.00  0.00    +0.128 C 
ATOM     23  C   UNL     1      12.315   8.327   5.365  0.00  0.00    +0.127 C 
ATOM     25  C   UNL     1       9.427   5.957   5.470  0.00  0.00    +0.254 C 
ATOM     26  C   UNL     1      13.629   8.813   3.236  0.00  0.00    +0.247 C 
ENDROOT
BRANCH  26  28
ATOM     28  C   UNL     1      14.850   9.018   4.026  0.00  0.00    +0.037 A 
ATOM     29  C   UNL     1      15.203  10.302   4.444  0.00  0.00    +0.015 A 
ATOM     30  C   UNL     1      15.658   7.930   4.357  0.00  0.00    +0.015 A 
ATOM     32  C   UNL     1      16.363  10.497   5.193  0.00  0.00    +0.024 A 
ATOM     33  C   UNL     1      16.818   8.126   5.107  0.00  0.00    +0.024 A 
ATOM     35  C   UNL     1      17.171   9.408   5.524  0.00  0.00    +0.029 A 
BRANCH  35  10
ATOM     10  N   UNL     1      18.345   9.607   6.282  0.00  0.00    -0.336 N 
ATOM     37  C   UNL     1      19.242   8.501   6.550  0.00  0.00    +0.129 C 
ATOM     38  C   UNL     1      18.661  10.918   6.813  0.00  0.00    +0.129 C 
ENDBRANCH  35  10
ENDBRANCH  26  28
BRANCH  25  27
ATOM      1  S   UNL     1       9.097   6.647   8.099  0.00  0.00    -0.092 S 
ATOM     27  C   UNL     1       9.500   5.530   6.864  0.00  0.00    +0.074 A 
ATOM     31  C   UNL     1       9.864   4.303   7.375  0.00  0.00    +0.021 A 
ATOM     34  C   UNL     1       9.809   4.279   8.799  0.00  0.00    +0.008 A 
ATOM     36  C   UNL     1       9.407   5.488   9.322  0.00  0.00    +0.046 A 
ENDBRANCH  25  27
BRANCH  19  21
ATOM      2  O   UNL     1      11.293   4.684   3.318  0.00  0.00    -0.274 OA
ATOM      6  N   UNL     1      11.920   6.207   1.672  0.00  0.00    -0.302 N 
ATOM     21  C   UNL     1      11.282   5.814   2.836  0.00  0.00    +0.236 C 
ATOM     39  H   UNL     1      11.899   7.185   1.400  0.00  0.00    +0.150 HD
BRANCH   6  18
ATOM     18  C   UNL     1      12.703   5.305   0.857  0.00  0.00    +0.159 C 
BRANCH  18  24
ATOM      3  O   UNL     1      14.892   5.784   1.793  0.00  0.00    -0.274 OA
ATOM      9  N   UNL     1      14.059   3.654   1.994  0.00  0.00    -0.328 N 
ATOM     24  C   UNL     1      13.991   4.972   1.596  0.00  0.00    +0.231 C 
ATOM     40  H   UNL     1      14.872   3.300   2.489  0.00  0.00    +0.145 HD
ATOM     41  H   UNL     1      13.315   2.988   1.807  0.00  0.00    +0.145 HD
ENDBRANCH  18  24
BRANCH  18  14
ATOM     14  C   UNL     1      12.950   5.862  -0.548  0.00  0.00    +0.035 C 
BRANCH  14  11
ATOM     11  C   UNL     1      12.397   4.992  -1.675  0.00  0.00    -0.009 C 
ATOM     12  C   UNL     1      13.133   3.646  -1.732  0.00  0.00    +0.003 C 
ATOM     13  C   UNL     1      10.887   4.781  -1.504  0.00  0.00    +0.003 C 
ATOM     15  C   UNL     1      12.561   2.737  -2.818  0.00  0.00    +0.000 C 
ATOM     16  C   UNL     1      10.319   3.869  -2.590  0.00  0.00    +0.000 C 
ATOM     17  C   UNL     1      11.058   2.537  -2.650  0.00  0.00    +0.000 C 
ENDBRANCH  14  11
ENDBRANCH  18  14
ENDBRANCH   6  18
ENDBRANCH  19  21
TORSDOF 8
ENDMDL
MODEL 6
REMARK VINA RESULT:      -5.9     29.358     31.796
REMARK  Name = 7113406
REMARK  10 active torsions:
REMARK  status: ('A' for Active; 'I' for Inactive)
REMARK    1  A    between atoms: N_6  and  C_18
REMARK    2  A    between atoms: N_10  and  C_35
REMARK    3  A    between atoms: N_10  and  C_37
REMARK    4  A    between atoms: N_10  and  C_38
REMARK    5  A    between atoms: C_11  and  C_14
REMARK    6  A    between atoms: C_14  and  C_18
REMARK    7  A    between atoms: C_18  and  C_24
REMARK    8  A    between atoms: C_19  and  C_21
REMARK    9  A    between atoms: C_25  and  C_27
REMARK   10  A    between atoms: C_26  and  C_28
REMARK                            x       y       z     vdW  Elec       q    Type
REMARK                         _______ _______ _______ _____ _____    ______ ____
ROOT
ATOM      4  O   UNL     1     -11.858  -9.958  17.612  0.00  0.00    -0.269 OA
ATOM      5  O   UNL     1      -6.997 -13.394  14.292  0.00  0.00    -0.270 OA
ATOM      7  N   UNL     1     -10.268 -10.131  15.931  0.00  0.00    -0.283 N 
ATOM      8  N   UNL     1      -8.705 -11.800  14.239  0.00  0.00    -0.294 N 
ATOM     19  C   UNL     1      -9.816 -11.445  16.416  0.00  0.00    +0.179 C 
ATOM     20  C   UNL     1      -9.491 -12.431  15.295  0.00  0.00    +0.140 C 
ATOM     22  C   UNL     1      -9.538  -9.561  14.783  0.00  0.00    +0.128 C 
ATOM     23  C   UNL     1      -9.317 -10.592  13.682  0.00  0.00    +0.127 C 
ATOM     25  C   UNL     1     -11.270  -9.448  16.657  0.00  0.00    +0.254 C 
ATOM     26  C   UNL     1      -7.506 -12.378  13.820  0.00  0.00    +0.247 C 
ENDROOT
BRANCH  26  28
ATOM     28  C   UNL     1      -6.766 -11.724  12.733  0.00  0.00    +0.037 A 
ATOM     29  C   UNL     1      -6.862 -12.212  11.430  0.00  0.00    +0.015 A 
ATOM     30  C   UNL     1      -5.964 -10.615  13.005  0.00  0.00    +0.015 A 
ATOM     32  C   UNL     1      -6.158 -11.592  10.399  0.00  0.00    +0.024 A 
ATOM     33  C   UNL     1      -5.260  -9.994  11.973  0.00  0.00    +0.024 A 
ATOM     35  C   UNL     1      -5.357 -10.482  10.670  0.00  0.00    +0.029 A 
BRANCH  35  10
ATOM     10  N   UNL     1      -4.645  -9.855   9.626  0.00  0.00    -0.336 N 
ATOM     37  C   UNL     1      -3.392  -9.178   9.894  0.00  0.00    +0.129 C 
ATOM     38  C   UNL     1      -5.165  -9.869   8.272  0.00  0.00    +0.129 C 
ENDBRANCH  35  10
ENDBRANCH  26  28
BRANCH  25  27
ATOM      1  S   UNL     1     -12.945  -7.834  15.213  0.00  0.00    -0.092 S 
ATOM     27  C   UNL     1     -11.596  -8.088  16.239  0.00  0.00    +0.074 A 
ATOM     31  C   UNL     1     -10.957  -6.909  16.553  0.00  0.00    +0.021 A 
ATOM     34  C   UNL     1     -11.583  -5.783  15.946  0.00  0.00    +0.008 A 
ATOM     36  C   UNL     1     -12.676  -6.143  15.189  0.00  0.00    +0.046 A 
ENDBRANCH  25  27
BRANCH  19  21
ATOM      2  O   UNL     1      -8.443 -10.088  17.824  0.00  0.00    -0.274 OA
ATOM      6  N   UNL     1      -7.771 -12.268  17.357  0.00  0.00    -0.302 N 
ATOM     21  C   UNL     1      -8.619 -11.176  17.281  0.00  0.00    +0.236 C 
ATOM     39  H   UNL     1      -7.983 -13.099  16.812  0.00  0.00    +0.150 HD
BRANCH   6  18
ATOM     18  C   UNL     1      -6.537 -12.258  18.108  0.00  0.00    +0.159 C 
BRANCH  18  24
ATOM      3  O   UNL     1      -6.338 -11.466  20.396  0.00  0.00    -0.274 OA
ATOM      9  N   UNL     1      -7.804 -13.178  19.954  0.00  0.00    -0.328 N 
ATOM     24  C   UNL     1      -6.869 -12.231  19.594  0.00  0.00    +0.231 C 
ATOM     40  H   UNL     1      -8.106 -13.271  20.918  0.00  0.00    +0.145 HD
ATOM     41  H   UNL     1      -8.220 -13.818  19.283  0.00  0.00    +0.145 HD
ENDBRANCH  18  24
BRANCH  18  14
ATOM     14  C   UNL     1      -5.611 -11.113  17.685  0.00  0.00    +0.035 C 
BRANCH  14  11
ATOM     11  C   UNL     1      -4.888 -11.347  16.361  0.00  0.00    -0.009 C 
ATOM     12  C   UNL     1      -3.669 -10.424  16.237  0.00  0.00    +0.003 C 
ATOM     13  C   UNL     1      -4.475 -12.818  16.222  0.00  0.00    +0.003 C 
ATOM     15  C   UNL     1      -2.899 -10.677  14.943  0.00  0.00    +0.000 C 
ATOM     16  C   UNL     1      -3.703 -13.067  14.928  0.00  0.00    +0.000 C 
ATOM     17  C   UNL     1      -2.498 -12.142  14.805  0.00  0.00    +0.000 C 
ENDBRANCH  14  11
ENDBRANCH  18  14
ENDBRANCH   6  18
ENDBRANCH  19  21
TORSDOF 8
ENDMDL
MODEL 7
REMARK VINA RESULT:      -5.9     15.353     18.537
REMARK  Name = 7113406
REMARK  10 active torsions:
REMARK  status: ('A' for Active; 'I' for Inactive)
REMARK    1  A    between atoms: N_6  and  C_18
REMARK    2  A    between atoms: N_10  and  C_35
REMARK    3  A    between atoms: N_10  and  C_37
REMARK    4  A    between atoms: N_10  and  C_38
REMARK    5  A    between atoms: C_11  and  C_14
REMARK    6  A    between atoms: C_14  and  C_18
REMARK    7  A    between atoms: C_18  and  C_24
REMARK    8  A    between atoms: C_19  and  C_21
REMARK    9  A    between atoms: C_25  and  C_27
REMARK   10  A    between atoms: C_26  and  C_28
REMARK                            x       y       z     vdW  Elec       q    Type
REMARK                         _______ _______ _______ _____ _____    ______ ____
ROOT
ATOM      4  O   UNL     1      15.288   7.365   6.069  0.00  0.00    -0.269 OA
ATOM      5  O   UNL     1       9.095   9.622   7.806  0.00  0.00    -0.270 OA
ATOM      7  N   UNL     1      13.192   8.197   5.522  0.00  0.00    -0.283 N 
ATOM      8  N   UNL     1      10.889   9.670   6.310  0.00  0.00    -0.294 N 
ATOM     19  C   UNL     1      12.750   8.168   6.925  0.00  0.00    +0.179 C 
ATOM     20  C   UNL     1      11.898   9.372   7.323  0.00  0.00    +0.140 C 
ATOM     22  C   UNL     1      12.192   8.620   4.521  0.00  0.00    +0.128 C 
ATOM     23  C   UNL     1      11.436   9.865   4.966  0.00  0.00    +0.127 C 
ATOM     25  C   UNL     1      14.479   7.709   5.204  0.00  0.00    +0.254 C 
ATOM     26  C   UNL     1       9.547   9.787   6.674  0.00  0.00    +0.247 C 
ENDROOT
BRANCH  26  28
ATOM     28  C   UNL     1       8.574  10.119   5.626  0.00  0.00    +0.037 A 
ATOM     29  C   UNL     1       8.247  11.452   5.373  0.00  0.00    +0.015 A 
ATOM     30  C   UNL     1       7.973   9.102   4.884  0.00  0.00    +0.015 A 
ATOM     32  C   UNL     1       7.322  11.767   4.379  0.00  0.00    +0.024 A 
ATOM     33  C   UNL     1       7.047   9.417   3.889  0.00  0.00    +0.024 A 
ATOM     35  C   UNL     1       6.722  10.749   3.637  0.00  0.00    +0.029 A 
BRANCH  35  10
ATOM     10  N   UNL     1       5.785  11.070   2.632  0.00  0.00    -0.336 N 
ATOM     37  C   UNL     1       6.231  11.467   1.311  0.00  0.00    +0.129 C 
ATOM     38  C   UNL     1       4.363  11.018   2.911  0.00  0.00    +0.129 C 
ENDBRANCH  35  10
ENDBRANCH  26  28
BRANCH  25  27
ATOM      1  S   UNL     1      15.731   8.887   3.074  0.00  0.00    -0.092 S 
ATOM     27  C   UNL     1      14.835   7.616   3.792  0.00  0.00    +0.074 A 
ATOM     31  C   UNL     1      14.549   6.612   2.892  0.00  0.00    +0.021 A 
ATOM     34  C   UNL     1      15.073   6.890   1.597  0.00  0.00    +0.008 A 
ATOM     36  C   UNL     1      15.739   8.096   1.555  0.00  0.00    +0.046 A 
ENDBRANCH  25  27
BRANCH  19  21
ATOM      2  O   UNL     1      12.509   5.903   7.644  0.00  0.00    -0.274 OA
ATOM      6  N   UNL     1      10.730   6.935   6.552  0.00  0.00    -0.302 N 
ATOM     21  C   UNL     1      12.002   6.879   7.096  0.00  0.00    +0.236 C 
ATOM     39  H   UNL     1      10.437   7.775   6.062  0.00  0.00    +0.150 HD
BRANCH   6  18
ATOM     18  C   UNL     1       9.815   5.816   6.565  0.00  0.00    +0.159 C 
BRANCH  18  24
ATOM      3  O   UNL     1       9.268   5.886   8.931  0.00  0.00    -0.274 OA
ATOM      9  N   UNL     1      10.282   4.001   8.097  0.00  0.00    -0.328 N 
ATOM     24  C   UNL     1       9.738   5.263   7.982  0.00  0.00    +0.231 C 
ATOM     40  H   UNL     1      10.302   3.523   8.992  0.00  0.00    +0.145 HD
ATOM     41  H   UNL     1      10.685   3.506   7.308  0.00  0.00    +0.145 HD
ENDBRANCH  18  24
BRANCH  18  14
ATOM     14  C   UNL     1      10.192   4.749   5.531  0.00  0.00    +0.035 C 
BRANCH  14  11
ATOM     11  C   UNL     1      10.624   5.312   4.178  0.00  0.00    -0.009 C 
ATOM     12  C   UNL     1      11.010   4.179   3.218  0.00  0.00    +0.003 C 
ATOM     13  C   UNL     1       9.514   6.184   3.576  0.00  0.00    +0.003 C 
ATOM     15  C   UNL     1      11.394   4.714   1.840  0.00  0.00    +0.000 C 
ATOM     16  C   UNL     1       9.900   6.715   2.198  0.00  0.00    +0.000 C 
ATOM     17  C   UNL     1      10.292   5.588   1.249  0.00  0.00    +0.000 C 
ENDBRANCH  14  11
ENDBRANCH  18  14
ENDBRANCH   6  18
ENDBRANCH  19  21
TORSDOF 8
ENDMDL
MODEL 8
REMARK VINA RESULT:      -5.8     28.890     31.800
REMARK  Name = 7113406
REMARK  10 active torsions:
REMARK  status: ('A' for Active; 'I' for Inactive)
REMARK    1  A    between atoms: N_6  and  C_18
REMARK    2  A    between atoms: N_10  and  C_35
REMARK    3  A    between atoms: N_10  and  C_37
REMARK    4  A    between atoms: N_10  and  C_38
REMARK    5  A    between atoms: C_11  and  C_14
REMARK    6  A    between atoms: C_14  and  C_18
REMARK    7  A    between atoms: C_18  and  C_24
REMARK    8  A    between atoms: C_19  and  C_21
REMARK    9  A    between atoms: C_25  and  C_27
REMARK   10  A    between atoms: C_26  and  C_28
REMARK                            x       y       z     vdW  Elec       q    Type
REMARK                         _______ _______ _______ _____ _____    ______ ____
ROOT
ATOM      4  O   UNL     1      -2.557 -10.473  11.895  0.00  0.00    -0.269 OA
ATOM      5  O   UNL     1      -3.588 -12.102  18.434  0.00  0.00    -0.270 OA
ATOM      7  N   UNL     1      -3.943 -10.738  13.738  0.00  0.00    -0.283 N 
ATOM      8  N   UNL     1      -4.215 -10.843  16.568  0.00  0.00    -0.294 N 
ATOM     19  C   UNL     1      -2.844 -11.271  14.559  0.00  0.00    +0.179 C 
ATOM     20  C   UNL     1      -2.869 -10.782  16.006  0.00  0.00    +0.140 C 
ATOM     22  C   UNL     1      -5.278 -10.693  14.365  0.00  0.00    +0.128 C 
ATOM     23  C   UNL     1      -5.221 -10.129  15.780  0.00  0.00    +0.127 C 
ATOM     25  C   UNL     1      -3.688 -10.424  12.384  0.00  0.00    +0.254 C 
ATOM     26  C   UNL     1      -4.439 -11.504  17.776  0.00  0.00    +0.247 C 
ENDROOT
BRANCH  26  28
ATOM     28  C   UNL     1      -5.804 -11.512  18.317  0.00  0.00    +0.037 A 
ATOM     29  C   UNL     1      -6.674 -12.556  18.001  0.00  0.00    +0.015 A 
ATOM     30  C   UNL     1      -6.232 -10.474  19.145  0.00  0.00    +0.015 A 
ATOM     32  C   UNL     1      -7.971 -12.563  18.513  0.00  0.00    +0.024 A 
ATOM     33  C   UNL     1      -7.530 -10.482  19.658  0.00  0.00    +0.024 A 
ATOM     35  C   UNL     1      -8.398 -11.525  19.342  0.00  0.00    +0.029 A 
BRANCH  35  10
ATOM     10  N   UNL     1      -9.711 -11.533  19.859  0.00  0.00    -0.336 N 
ATOM     37  C   UNL     1     -10.454 -10.297  19.997  0.00  0.00    +0.129 C 
ATOM     38  C   UNL     1     -10.329 -12.778  20.272  0.00  0.00    +0.129 C 
ENDBRANCH  35  10
ENDBRANCH  26  28
BRANCH  25  27
ATOM      1  S   UNL     1      -5.640 -11.233  10.643  0.00  0.00    -0.092 S 
ATOM     27  C   UNL     1      -4.825 -10.034  11.557  0.00  0.00    +0.074 A 
ATOM     31  C   UNL     1      -5.380  -8.785  11.383  0.00  0.00    +0.021 A 
ATOM     34  C   UNL     1      -6.489  -8.812  10.488  0.00  0.00    +0.008 A 
ATOM     36  C   UNL     1      -6.739 -10.081  10.012  0.00  0.00    +0.046 A 
ENDBRANCH  25  27
BRANCH  19  21
ATOM      2  O   UNL     1      -3.725 -13.398  15.199  0.00  0.00    -0.274 OA
ATOM      6  N   UNL     1      -2.096 -13.306  13.539  0.00  0.00    -0.302 N 
ATOM     21  C   UNL     1      -2.957 -12.766  14.478  0.00  0.00    +0.236 C 
ATOM     39  H   UNL     1      -1.454 -12.693  13.043  0.00  0.00    +0.150 HD
BRANCH   6  18
ATOM     18  C   UNL     1      -1.994 -14.725  13.284  0.00  0.00    +0.159 C 
BRANCH  18  24
ATOM      3  O   UNL     1      -0.142 -16.293  13.406  0.00  0.00    -0.274 OA
ATOM      9  N   UNL     1       0.329 -14.046  13.339  0.00  0.00    -0.328 N 
ATOM     24  C   UNL     1      -0.527 -15.128  13.339  0.00  0.00    +0.231 C 
ATOM     40  H   UNL     1       1.334 -14.178  13.381  0.00  0.00    +0.145 HD
ATOM     41  H   UNL     1      -0.004 -13.087  13.303  0.00  0.00    +0.145 HD
ENDBRANCH  18  24
BRANCH  18  14
ATOM     14  C   UNL     1      -2.672 -15.127  11.970  0.00  0.00    +0.035 C 
BRANCH  14  11
ATOM     11  C   UNL     1      -4.020 -15.822  12.147  0.00  0.00    -0.009 C 
ATOM     12  C   UNL     1      -4.083 -16.551  13.496  0.00  0.00    +0.003 C 
ATOM     13  C   UNL     1      -5.170 -14.813  12.017  0.00  0.00    +0.003 C 
ATOM     15  C   UNL     1      -5.443 -17.210  13.718  0.00  0.00    +0.000 C 
ATOM     16  C   UNL     1      -6.528 -15.475  12.243  0.00  0.00    +0.000 C 
ATOM     17  C   UNL     1      -6.583 -16.206  13.580  0.00  0.00    +0.000 C 
ENDBRANCH  14  11
ENDBRANCH  18  14
ENDBRANCH   6  18
ENDBRANCH  19  21
TORSDOF 8
ENDMDL
MODEL 9
REMARK VINA RESULT:      -5.6     14.868     16.995
REMARK  Name = 7113406
REMARK  10 active torsions:
REMARK  status: ('A' for Active; 'I' for Inactive)
REMARK    1  A    between atoms: N_6  and  C_18
REMARK    2  A    between atoms: N_10  and  C_35
REMARK    3  A    between atoms: N_10  and  C_37
REMARK    4  A    between atoms: N_10  and  C_38
REMARK    5  A    between atoms: C_11  and  C_14
REMARK    6  A    between atoms: C_14  and  C_18
REMARK    7  A    between atoms: C_18  and  C_24
REMARK    8  A    between atoms: C_19  and  C_21
REMARK    9  A    between atoms: C_25  and  C_27
REMARK   10  A    between atoms: C_26  and  C_28
REMARK                            x       y       z     vdW  Elec       q    Type
REMARK                         _______ _______ _______ _____ _____    ______ ____
ROOT
ATOM      4  O   UNL     1       8.886   8.431   7.890  0.00  0.00    -0.269 OA
ATOM      5  O   UNL     1      14.373  12.015   6.017  0.00  0.00    -0.270 OA
ATOM      7  N   UNL     1      11.023   8.573   6.998  0.00  0.00    -0.283 N 
ATOM      8  N   UNL     1      13.473  10.004   6.796  0.00  0.00    -0.294 N 
ATOM     19  C   UNL     1      11.020  10.042   7.074  0.00  0.00    +0.179 C 
ATOM     20  C   UNL     1      12.361  10.635   7.501  0.00  0.00    +0.140 C 
ATOM     22  C   UNL     1      12.212   7.943   6.390  0.00  0.00    +0.128 C 
ATOM     23  C   UNL     1      13.507   8.546   6.922  0.00  0.00    +0.127 C 
ATOM     25  C   UNL     1       9.860   7.870   7.385  0.00  0.00    +0.254 C 
ATOM     26  C   UNL     1      14.407  10.790   6.119  0.00  0.00    +0.247 C 
ENDROOT
BRANCH  26  28
ATOM     28  C   UNL     1      15.525  10.112   5.450  0.00  0.00    +0.037 A 
ATOM     29  C   UNL     1      15.363   9.605   4.160  0.00  0.00    +0.015 A 
ATOM     30  C   UNL     1      16.749   9.972   6.105  0.00  0.00    +0.015 A 
ATOM     32  C   UNL     1      16.424   8.960   3.526  0.00  0.00    +0.024 A 
ATOM     33  C   UNL     1      17.810   9.327   5.470  0.00  0.00    +0.024 A 
ATOM     35  C   UNL     1      17.648   8.821   4.181  0.00  0.00    +0.029 A 
BRANCH  35  10
ATOM     10  N   UNL     1      18.720   8.167   3.538  0.00  0.00    -0.336 N 
ATOM     37  C   UNL     1      18.793   8.122   2.092  0.00  0.00    +0.129 C 
ATOM     38  C   UNL     1      19.757   7.520   4.318  0.00  0.00    +0.129 C 
ENDBRANCH  35  10
ENDBRANCH  26  28
BRANCH  25  27
ATOM      1  S   UNL     1      10.001   5.377   8.507  0.00  0.00    -0.092 S 
ATOM     27  C   UNL     1       9.839   6.428   7.163  0.00  0.00    +0.074 A 
ATOM     31  C   UNL     1       9.703   5.736   5.979  0.00  0.00    +0.021 A 
ATOM     34  C   UNL     1       9.731   4.326   6.178  0.00  0.00    +0.008 A 
ATOM     36  C   UNL     1       9.888   3.992   7.505  0.00  0.00    +0.046 A 
ENDBRANCH  25  27
BRANCH  19  21
ATOM      2  O   UNL     1      11.036  11.577   5.244  0.00  0.00    -0.274 OA
ATOM      6  N   UNL     1       9.704   9.672   5.106  0.00  0.00    -0.302 N 
ATOM     21  C   UNL     1      10.608  10.526   5.715  0.00  0.00    +0.236 C 
ATOM     39  H   UNL     1       9.367   8.861   5.617  0.00  0.00    +0.150 HD
BRANCH   6  18
ATOM     18  C   UNL     1       9.135   9.924   3.801  0.00  0.00    +0.159 C 
BRANCH  18  24
ATOM      3  O   UNL     1       6.965   9.479   2.805  0.00  0.00    -0.274 OA
ATOM      9  N   UNL     1       7.276   8.970   5.023  0.00  0.00    -0.328 N 
ATOM     24  C   UNL     1       7.693   9.436   3.794  0.00  0.00    +0.231 C 
ATOM     40  H   UNL     1       6.332   8.624   5.155  0.00  0.00    +0.145 HD
ATOM     41  H   UNL     1       7.883   8.959   5.837  0.00  0.00    +0.145 HD
ENDBRANCH  18  24
BRANCH  18  14
ATOM     14  C   UNL     1       9.976   9.311   2.676  0.00  0.00    +0.035 C 
BRANCH  14  11
ATOM     11  C   UNL     1      10.499   7.908   2.978  0.00  0.00    -0.009 C 
ATOM     12  C   UNL     1       9.769   6.862   2.125  0.00  0.00    +0.003 C 
ATOM     13  C   UNL     1      12.015   7.836   2.750  0.00  0.00    +0.003 C 
ATOM     15  C   UNL     1      10.313   5.455   2.371  0.00  0.00    +0.000 C 
ATOM     16  C   UNL     1      12.555   6.428   2.994  0.00  0.00    +0.000 C 
ATOM     17  C   UNL     1      11.821   5.390   2.152  0.00  0.00    +0.000 C 
ENDBRANCH  14  11
ENDBRANCH  18  14
ENDBRANCH   6  18
ENDBRANCH  19  21
TORSDOF 8
ENDMDL
MODEL 10
REMARK VINA RESULT:      -5.6     15.109     17.899
REMARK  Name = 7113406
REMARK  10 active torsions:
REMARK  status: ('A' for Active; 'I' for Inactive)
REMARK    1  A    between atoms: N_6  and  C_18
REMARK    2  A    between atoms: N_10  and  C_35
REMARK    3  A    between atoms: N_10  and  C_37
REMARK    4  A    between atoms: N_10  and  C_38
REMARK    5  A    between atoms: C_11  and  C_14
REMARK    6  A    between atoms: C_14  and  C_18
REMARK    7  A    between atoms: C_18  and  C_24
REMARK    8  A    between atoms: C_19  and  C_21
REMARK    9  A    between atoms: C_25  and  C_27
REMARK   10  A    between atoms: C_26  and  C_28
REMARK                            x       y       z     vdW  Elec       q    Type
REMARK                         _______ _______ _______ _____ _____    ______ ____
ROOT
ATOM      4  O   UNL     1      16.226   7.322   4.315  0.00  0.00    -0.269 OA
ATOM      5  O   UNL     1      10.219   7.486   7.532  0.00  0.00    -0.270 OA
ATOM      7  N   UNL     1      14.422   8.474   5.211  0.00  0.00    -0.283 N 
ATOM      8  N   UNL     1      12.255   8.527   7.053  0.00  0.00    -0.294 N 
ATOM     19  C   UNL     1      13.719   7.227   5.548  0.00  0.00    +0.179 C 
ATOM     20  C   UNL     1      12.994   7.278   6.892  0.00  0.00    +0.140 C 
ATOM     22  C   UNL     1      13.708   9.735   5.494  0.00  0.00    +0.128 C 
ATOM     23  C   UNL     1      13.073   9.729   6.879  0.00  0.00    +0.127 C 
ATOM     25  C   UNL     1      15.659   8.394   4.533  0.00  0.00    +0.254 C 
ATOM     26  C   UNL     1      10.900   8.499   7.387  0.00  0.00    +0.247 C 
ENDROOT
BRANCH  26  28
ATOM     28  C   UNL     1      10.207   9.781   7.568  0.00  0.00    +0.037 A 
ATOM     29  C   UNL     1       9.684  10.454   6.464  0.00  0.00    +0.015 A 
ATOM     30  C   UNL     1      10.075  10.328   8.845  0.00  0.00    +0.015 A 
ATOM     32  C   UNL     1       9.027  11.672   6.636  0.00  0.00    +0.024 A 
ATOM     33  C   UNL     1       9.418  11.547   9.017  0.00  0.00    +0.024 A 
ATOM     35  C   UNL     1       8.894  12.218   7.913  0.00  0.00    +0.029 A 
BRANCH  35  10
ATOM     10  N   UNL     1       8.230  13.451   8.086  0.00  0.00    -0.336 N 
ATOM     37  C   UNL     1       8.438  14.236   9.286  0.00  0.00    +0.129 C 
ATOM     38  C   UNL     1       7.319  13.942   7.070  0.00  0.00    +0.129 C 
ENDBRANCH  35  10
ENDBRANCH  26  28
BRANCH  25  27
ATOM      1  S   UNL     1      17.352  10.465   5.123  0.00  0.00    -0.092 S 
ATOM     27  C   UNL     1      16.264   9.645   4.084  0.00  0.00    +0.074 A 
ATOM     31  C   UNL     1      16.088  10.310   2.890  0.00  0.00    +0.021 A 
ATOM     34  C   UNL     1      16.858  11.508   2.827  0.00  0.00    +0.008 A 
ATOM     36  C   UNL     1      17.592  11.713   3.975  0.00  0.00    +0.046 A 
ENDBRANCH  25  27
BRANCH  19  21
ATOM      2  O   UNL     1      12.977   7.401   3.284  0.00  0.00    -0.274 OA
ATOM      6  N   UNL     1      11.668   6.230   4.813  0.00  0.00    -0.302 N 
ATOM     21  C   UNL     1      12.769   6.969   4.416  0.00  0.00    +0.236 C 
ATOM     39  H   UNL     1      11.566   5.980   5.792  0.00  0.00    +0.150 HD
BRANCH   6  18
ATOM     18  C   UNL     1      10.594   5.868   3.916  0.00  0.00    +0.159 C 
BRANCH  18  24
ATOM      3  O   UNL     1       8.683   7.366   3.977  0.00  0.00    -0.274 OA
ATOM      9  N   UNL     1       8.866   5.757   5.606  0.00  0.00    -0.328 N 
ATOM     24  C   UNL     1       9.287   6.416   4.470  0.00  0.00    +0.231 C 
ATOM     40  H   UNL     1       8.012   6.032   6.080  0.00  0.00    +0.145 HD
ATOM     41  H   UNL     1       9.385   4.986   6.014  0.00  0.00    +0.145 HD
ENDBRANCH  18  24
BRANCH  18  14
ATOM     14  C   UNL     1      10.543   4.358   3.656  0.00  0.00    +0.035 C 
BRANCH  14  11
ATOM     11  C   UNL     1      10.918   3.953   2.232  0.00  0.00    -0.009 C 
ATOM     12  C   UNL     1      10.355   4.957   1.216  0.00  0.00    +0.003 C 
ATOM     13  C   UNL     1      12.440   3.827   2.088  0.00  0.00    +0.003 C 
ATOM     15  C   UNL     1      10.762   4.601  -0.212  0.00  0.00    +0.000 C 
ATOM     16  C   UNL     1      12.844   3.474   0.658  0.00  0.00    +0.000 C 
ATOM     17  C   UNL     1      12.276   4.468  -0.349  0.00  0.00    +0.000 C 
ENDBRANCH  14  11
ENDBRANCH  18  14
ENDBRANCH   6  18
ENDBRANCH  19  21
TORSDOF 8
ENDMDL
