MODEL 1
REMARK VINA RESULT:      -8.1      0.000      0.000
REMARK  Name = 11912771
REMARK  8 active torsions:
REMARK  status: ('A' for Active; 'I' for Inactive)
REMARK    1  A    between atoms: O_3  and  C_16
REMARK    2  A    between atoms: O_3  and  C_20
REMARK    3  A    between atoms: O_7  and  C_35
REMARK    4  A    between atoms: O_7  and  C_38
REMARK    5  A    between atoms: N_9  and  C_15
REMARK    6  A    between atoms: N_12  and  C_24
REMARK    7  A    between atoms: C_21  and  C_25
REMARK    8  A    between atoms: C_26  and  C_35
REMARK                            x       y       z     vdW  Elec       q    Type
REMARK                         _______ _______ _______ _____ _____    ______ ____
ROOT
ATOM      1  O   UNL     1      -6.003 -12.224  19.151  0.00  0.00    -0.368 OA
ATOM      2  O   UNL     1      -7.305 -11.371  16.506  0.00  0.00    -0.368 OA
ATOM     13  C   UNL     1      -6.041 -11.018  17.108  0.00  0.00    +0.173 C 
ATOM     14  C   UNL     1      -6.279 -10.925  18.602  0.00  0.00    +0.192 C 
ATOM     15  C   UNL     1      -5.063 -12.161  16.965  0.00  0.00    +0.130 C 
ATOM     16  C   UNL     1      -7.748 -10.585  18.680  0.00  0.00    +0.235 C 
ATOM     17  C   UNL     1      -5.445 -13.062  18.127  0.00  0.00    +0.185 C 
ATOM     18  C   UNL     1      -8.318 -11.373  17.522  0.00  0.00    +0.207 C 
ENDROOT
BRANCH  15   9
ATOM      9  N   UNL     1      -3.707 -11.684  17.125  0.00  0.00    -0.306 N 
ATOM     10  N   UNL     1      -3.571 -11.035  14.899  0.00  0.00    -0.214 NA
ATOM     11  N   UNL     1      -1.717 -10.726  16.406  0.00  0.00    -0.223 NA
ATOM     19  C   UNL     1      -2.966 -11.123  16.099  0.00  0.00    +0.216 A 
ATOM     21  C   UNL     1      -2.822 -10.486  13.922  0.00  0.00    +0.076 A 
ATOM     22  C   UNL     1      -1.024 -10.184  15.383  0.00  0.00    +0.116 A 
ATOM     23  C   UNL     1      -1.529 -10.038  14.107  0.00  0.00    +0.048 A 
ATOM     39  H   UNL     1      -3.276 -11.706  18.042  0.00  0.00    +0.149 HD
BRANCH  21  25
ATOM      5  O   UNL     1      -6.762 -10.432  11.021  0.00  0.00    -0.453 OA
ATOM      6  O   UNL     1      -5.426 -10.129   9.037  0.00  0.00    -0.453 OA
ATOM     25  C   UNL     1      -3.467 -10.388  12.634  0.00  0.00    +0.004 A 
ATOM     27  C   UNL     1      -4.859 -10.471  12.549  0.00  0.00    +0.059 A 
ATOM     29  C   UNL     1      -2.688 -10.211  11.478  0.00  0.00    +0.014 A 
ATOM     30  C   UNL     1      -5.431 -10.372  11.297  0.00  0.00    +0.167 A 
ATOM     31  C   UNL     1      -4.669 -10.200  10.165  0.00  0.00    +0.166 A 
ATOM     32  C   UNL     1      -3.292 -10.115  10.222  0.00  0.00    +0.050 A 
ATOM     37  C   UNL     1      -6.752 -10.277   9.587  0.00  0.00    +0.466 C 
ENDBRANCH  21  25
ENDBRANCH  15   9
BRANCH  16   3
ATOM      3  O   UNL     1      -8.343 -10.940  19.907  0.00  0.00    -0.442 OA
BRANCH   3  20
ATOM      4  O   UNL     1     -10.152 -12.334  20.044  0.00  0.00    -0.226 OA
ATOM     12  N   UNL     1     -10.396 -10.034  19.680  0.00  0.00    -0.250 N 
ATOM     20  C   UNL     1      -9.697 -11.207  19.889  0.00  0.00    +0.405 C 
ATOM     40  H   UNL     1      -9.829  -9.199  19.573  0.00  0.00    +0.158 HD
BRANCH  12  24
ATOM     24  C   UNL     1     -11.797  -9.860  19.593  0.00  0.00    +0.050 A 
ATOM     26  C   UNL     1     -12.405  -9.521  18.384  0.00  0.00    +0.080 A 
ATOM     28  C   UNL     1     -12.572 -10.032  20.740  0.00  0.00    +0.024 A 
ATOM     33  C   UNL     1     -13.788  -9.353  18.322  0.00  0.00    +0.017 A 
ATOM     34  C   UNL     1     -13.955  -9.863  20.677  0.00  0.00    +0.002 A 
ATOM     36  C   UNL     1     -14.564  -9.524  19.469  0.00  0.00    +0.001 A 
BRANCH  26  35
ATOM      8  O   UNL     1     -11.507 -10.185  16.278  0.00  0.00    -0.245 OA
ATOM     35  C   UNL     1     -11.624  -9.334  17.167  0.00  0.00    +0.341 C 
BRANCH  35   7
ATOM      7  O   UNL     1     -11.039  -8.100  17.132  0.00  0.00    -0.464 OA
ATOM     38  C   UNL     1      -9.693  -8.038  16.648  0.00  0.00    +0.280 C 
ENDBRANCH  35   7
ENDBRANCH  26  35
ENDBRANCH  12  24
ENDBRANCH   3  20
ENDBRANCH  16   3
TORSDOF 7
ENDMDL
MODEL 2
REMARK VINA RESULT:      -7.9     26.638     29.300
REMARK  Name = 11912771
REMARK  8 active torsions:
REMARK  status: ('A' for Active; 'I' for Inactive)
REMARK    1  A    between atoms: O_3  and  C_16
REMARK    2  A    between atoms: O_3  and  C_20
REMARK    3  A    between atoms: O_7  and  C_35
REMARK    4  A    between atoms: O_7  and  C_38
REMARK    5  A    between atoms: N_9  and  C_15
REMARK    6  A    between atoms: N_12  and  C_24
REMARK    7  A    between atoms: C_21  and  C_25
REMARK    8  A    between atoms: C_26  and  C_35
REMARK                            x       y       z     vdW  Elec       q    Type
REMARK                         _______ _______ _______ _____ _____    ______ ____
ROOT
ATOM      1  O   UNL     1      15.365  11.113  16.584  0.00  0.00    -0.368 OA
ATOM      2  O   UNL     1      13.349   9.265  15.193  0.00  0.00    -0.368 OA
ATOM     13  C   UNL     1      13.278  10.662  15.552  0.00  0.00    +0.173 C 
ATOM     14  C   UNL     1      13.993  10.809  16.880  0.00  0.00    +0.192 C 
ATOM     15  C   UNL     1      14.111  11.483  14.596  0.00  0.00    +0.130 C 
ATOM     16  C   UNL     1      13.842   9.435  17.488  0.00  0.00    +0.235 C 
ATOM     17  C   UNL     1      15.508  11.334  15.173  0.00  0.00    +0.185 C 
ATOM     18  C   UNL     1      13.947   8.537  16.275  0.00  0.00    +0.207 C 
ENDROOT
BRANCH  15   9
ATOM      9  N   UNL     1      13.697  12.870  14.635  0.00  0.00    -0.306 N 
ATOM     10  N   UNL     1      12.305  12.606  12.796  0.00  0.00    -0.214 NA
ATOM     11  N   UNL     1      12.514  14.732  13.911  0.00  0.00    -0.223 NA
ATOM     19  C   UNL     1      12.799  13.426  13.742  0.00  0.00    +0.216 A 
ATOM     21  C   UNL     1      11.434  13.180  11.942  0.00  0.00    +0.076 A 
ATOM     22  C   UNL     1      11.635  15.242  13.022  0.00  0.00    +0.116 A 
ATOM     23  C   UNL     1      11.058  14.507  12.007  0.00  0.00    +0.048 A 
ATOM     39  H   UNL     1      14.034  13.469  15.381  0.00  0.00    +0.149 HD
BRANCH  21  25
ATOM      5  O   UNL     1      11.876  10.274   8.030  0.00  0.00    -0.453 OA
ATOM      6  O   UNL     1       9.513   9.797   7.987  0.00  0.00    -0.453 OA
ATOM     25  C   UNL     1      10.900  12.303  10.927  0.00  0.00    +0.004 A 
ATOM     27  C   UNL     1      11.757  11.739   9.979  0.00  0.00    +0.059 A 
ATOM     29  C   UNL     1       9.523  12.025  10.902  0.00  0.00    +0.014 A 
ATOM     30  C   UNL     1      11.202  10.907   9.028  0.00  0.00    +0.167 A 
ATOM     31  C   UNL     1       9.854  10.636   9.003  0.00  0.00    +0.166 A 
ATOM     32  C   UNL     1       8.986  11.180   9.928  0.00  0.00    +0.050 A 
ATOM     37  C   UNL     1      10.800   9.571   7.375  0.00  0.00    +0.466 C 
ENDBRANCH  21  25
ENDBRANCH  15   9
BRANCH  16   3
ATOM      3  O   UNL     1      14.823   9.136  18.455  0.00  0.00    -0.442 OA
BRANCH   3  20
ATOM      4  O   UNL     1      15.020   8.501  20.644  0.00  0.00    -0.226 OA
ATOM     12  N   UNL     1      13.259   9.860  19.911  0.00  0.00    -0.250 N 
ATOM     20  C   UNL     1      14.412   9.111  19.772  0.00  0.00    +0.405 C 
ATOM     40  H   UNL     1      12.910  10.288  19.059  0.00  0.00    +0.158 HD
BRANCH  12  24
ATOM     24  C   UNL     1      12.512  10.095  21.088  0.00  0.00    +0.050 A 
ATOM     26  C   UNL     1      11.347   9.375  21.355  0.00  0.00    +0.080 A 
ATOM     28  C   UNL     1      12.954  11.064  21.988  0.00  0.00    +0.024 A 
ATOM     33  C   UNL     1      10.625   9.624  22.522  0.00  0.00    +0.017 A 
ATOM     34  C   UNL     1      12.231  11.314  23.154  0.00  0.00    +0.002 A 
ATOM     36  C   UNL     1      11.067  10.595  23.422  0.00  0.00    +0.001 A 
BRANCH  26  35
ATOM      8  O   UNL     1      10.612   8.553  19.241  0.00  0.00    -0.245 OA
ATOM     35  C   UNL     1      10.857   8.354  20.437  0.00  0.00    +0.341 C 
BRANCH  35   7
ATOM      7  O   UNL     1      10.702   7.150  21.063  0.00  0.00    -0.464 OA
ATOM     38  C   UNL     1      11.879   6.350  21.222  0.00  0.00    +0.280 C 
ENDBRANCH  35   7
ENDBRANCH  26  35
ENDBRANCH  12  24
ENDBRANCH   3  20
ENDBRANCH  16   3
TORSDOF 7
ENDMDL
MODEL 3
REMARK VINA RESULT:      -7.7      3.644      9.928
REMARK  Name = 11912771
REMARK  8 active torsions:
REMARK  status: ('A' for Active; 'I' for Inactive)
REMARK    1  A    between atoms: O_3  and  C_16
REMARK    2  A    between atoms: O_3  and  C_20
REMARK    3  A    between atoms: O_7  and  C_35
REMARK    4  A    between atoms: O_7  and  C_38
REMARK    5  A    between atoms: N_9  and  C_15
REMARK    6  A    between atoms: N_12  and  C_24
REMARK    7  A    between atoms: C_21  and  C_25
REMARK    8  A    between atoms: C_26  and  C_35
REMARK                            x       y       z     vdW  Elec       q    Type
REMARK                         _______ _______ _______ _____ _____    ______ ____
ROOT
ATOM      1  O   UNL     1      -4.148  -9.053   9.426  0.00  0.00    -0.368 OA
ATOM      2  O   UNL     1      -6.263 -11.124  10.233  0.00  0.00    -0.368 OA
ATOM     13  C   UNL     1      -4.835 -11.081  10.446  0.00  0.00    +0.173 C 
ATOM     14  C   UNL     1      -4.226 -10.469   9.200  0.00  0.00    +0.192 C 
ATOM     15  C   UNL     1      -4.506 -10.090  11.538  0.00  0.00    +0.130 C 
ATOM     16  C   UNL     1      -5.242 -10.811   8.137  0.00  0.00    +0.235 C 
ATOM     17  C   UNL     1      -4.504  -8.769  10.788  0.00  0.00    +0.185 C 
ATOM     18  C   UNL     1      -6.546 -10.697   8.893  0.00  0.00    +0.207 C 
ENDROOT
BRANCH  15   9
ATOM      9  N   UNL     1      -3.191 -10.361  12.079  0.00  0.00    -0.306 N 
ATOM     10  N   UNL     1      -4.004 -10.478  14.251  0.00  0.00    -0.214 NA
ATOM     11  N   UNL     1      -1.664 -10.799  13.774  0.00  0.00    -0.223 NA
ATOM     19  C   UNL     1      -2.942 -10.555  13.426  0.00  0.00    +0.216 A 
ATOM     21  C   UNL     1      -3.727 -10.671  15.556  0.00  0.00    +0.076 A 
ATOM     22  C   UNL     1      -1.458 -10.983  15.094  0.00  0.00    +0.116 A 
ATOM     23  C   UNL     1      -2.461 -10.929  16.041  0.00  0.00    +0.048 A 
ATOM     39  H   UNL     1      -2.405 -10.469  11.447  0.00  0.00    +0.149 HD
BRANCH  21  25
ATOM      5  O   UNL     1      -8.341  -9.435  16.620  0.00  0.00    -0.453 OA
ATOM      6  O   UNL     1      -8.165 -10.297  18.864  0.00  0.00    -0.453 OA
ATOM     25  C   UNL     1      -4.863 -10.590  16.444  0.00  0.00    +0.004 A 
ATOM     27  C   UNL     1      -6.053 -10.014  15.994  0.00  0.00    +0.059 A 
ATOM     29  C   UNL     1      -4.760 -11.093  17.752  0.00  0.00    +0.014 A 
ATOM     30  C   UNL     1      -7.112  -9.959  16.878  0.00  0.00    +0.167 A 
ATOM     31  C   UNL     1      -7.012 -10.450  18.159  0.00  0.00    +0.166 A 
ATOM     32  C   UNL     1      -5.847 -11.025  18.627  0.00  0.00    +0.050 A 
ATOM     37  C   UNL     1      -9.003  -9.653  17.882  0.00  0.00    +0.466 C 
ENDBRANCH  21  25
ENDBRANCH  15   9
BRANCH  16   3
ATOM      3  O   UNL     1      -5.200  -9.951   7.020  0.00  0.00    -0.442 OA
BRANCH   3  20
ATOM      4  O   UNL     1      -6.872 -10.888   5.772  0.00  0.00    -0.226 OA
ATOM     12  N   UNL     1      -6.722  -8.572   6.086  0.00  0.00    -0.250 N 
ATOM     20  C   UNL     1      -6.333  -9.890   6.236  0.00  0.00    +0.405 C 
ATOM     40  H   UNL     1      -6.135  -7.888   6.553  0.00  0.00    +0.158 HD
BRANCH  12  24
ATOM     24  C   UNL     1      -7.827  -8.068   5.363  0.00  0.00    +0.050 A 
ATOM     26  C   UNL     1      -8.872  -7.412   6.015  0.00  0.00    +0.080 A 
ATOM     28  C   UNL     1      -7.863  -8.235   3.979  0.00  0.00    +0.024 A 
ATOM     33  C   UNL     1      -9.954  -6.923   5.282  0.00  0.00    +0.017 A 
ATOM     34  C   UNL     1      -8.945  -7.747   3.246  0.00  0.00    +0.002 A 
ATOM     36  C   UNL     1      -9.990  -7.091   3.897  0.00  0.00    +0.001 A 
BRANCH  26  35
ATOM      8  O   UNL     1      -8.880  -8.140   8.285  0.00  0.00    -0.245 OA
ATOM     35  C   UNL     1      -8.865  -7.219   7.460  0.00  0.00    +0.341 C 
BRANCH  35   7
ATOM      7  O   UNL     1      -8.841  -5.893   7.788  0.00  0.00    -0.464 OA
ATOM     38  C   UNL     1      -9.892  -5.421   8.638  0.00  0.00    +0.280 C 
ENDBRANCH  35   7
ENDBRANCH  26  35
ENDBRANCH  12  24
ENDBRANCH   3  20
ENDBRANCH  16   3
TORSDOF 7
ENDMDL
MODEL 4
REMARK VINA RESULT:      -7.6      4.719      8.074
REMARK  Name = 11912771
REMARK  8 active torsions:
REMARK  status: ('A' for Active; 'I' for Inactive)
REMARK    1  A    between atoms: O_3  and  C_16
REMARK    2  A    between atoms: O_3  and  C_20
REMARK    3  A    between atoms: O_7  and  C_35
REMARK    4  A    between atoms: O_7  and  C_38
REMARK    5  A    between atoms: N_9  and  C_15
REMARK    6  A    between atoms: N_12  and  C_24
REMARK    7  A    between atoms: C_21  and  C_25
REMARK    8  A    between atoms: C_26  and  C_35
REMARK                            x       y       z     vdW  Elec       q    Type
REMARK                         _______ _______ _______ _____ _____    ______ ____
ROOT
ATOM      1  O   UNL     1      -5.205  -8.669  11.065  0.00  0.00    -0.368 OA
ATOM      2  O   UNL     1      -3.359 -11.017  10.363  0.00  0.00    -0.368 OA
ATOM     13  C   UNL     1      -4.664 -10.645   9.871  0.00  0.00    +0.173 C 
ATOM     14  C   UNL     1      -5.434 -10.087  11.051  0.00  0.00    +0.192 C 
ATOM     15  C   UNL     1      -4.545  -9.473   8.925  0.00  0.00    +0.130 C 
ATOM     16  C   UNL     1      -4.777 -10.772  12.225  0.00  0.00    +0.235 C 
ATOM     17  C   UNL     1      -4.491  -8.292   9.878  0.00  0.00    +0.185 C 
ATOM     18  C   UNL     1      -3.331 -10.838  11.787  0.00  0.00    +0.207 C 
ENDROOT
BRANCH  15   9
ATOM      9  N   UNL     1      -5.720  -9.387   8.084  0.00  0.00    -0.306 N 
ATOM     10  N   UNL     1      -4.825 -10.853   6.520  0.00  0.00    -0.214 NA
ATOM     11  N   UNL     1      -7.014  -9.889   6.222  0.00  0.00    -0.223 NA
ATOM     19  C   UNL     1      -5.859 -10.073   6.891  0.00  0.00    +0.216 A 
ATOM     21  C   UNL     1      -4.994 -11.506   5.353  0.00  0.00    +0.076 A 
ATOM     22  C   UNL     1      -7.116 -10.573   5.063  0.00  0.00    +0.116 A 
ATOM     23  C   UNL     1      -6.128 -11.403   4.574  0.00  0.00    +0.048 A 
ATOM     39  H   UNL     1      -6.515  -8.839   8.394  0.00  0.00    +0.149 HD
BRANCH  21  25
ATOM      5  O   UNL     1      -1.769 -13.188   2.080  0.00  0.00    -0.453 OA
ATOM      6  O   UNL     1      -0.755 -14.673   3.686  0.00  0.00    -0.453 OA
ATOM     25  C   UNL     1      -3.888 -12.344   4.953  0.00  0.00    +0.004 A 
ATOM     27  C   UNL     1      -3.416 -12.287   3.640  0.00  0.00    +0.059 A 
ATOM     29  C   UNL     1      -3.297 -13.209   5.890  0.00  0.00    +0.014 A 
ATOM     30  C   UNL     1      -2.357 -13.106   3.304  0.00  0.00    +0.167 A 
ATOM     31  C   UNL     1      -1.779 -13.954   4.220  0.00  0.00    +0.166 A 
ATOM     32  C   UNL     1      -2.227 -14.029   5.524  0.00  0.00    +0.050 A 
ATOM     37  C   UNL     1      -0.753 -14.183   2.330  0.00  0.00    +0.466 C 
ENDBRANCH  21  25
ENDBRANCH  15   9
BRANCH  16   3
ATOM      3  O   UNL     1      -4.931 -10.076  13.441  0.00  0.00    -0.442 OA
BRANCH   3  20
ATOM      4  O   UNL     1      -5.256 -12.056  14.539  0.00  0.00    -0.226 OA
ATOM     12  N   UNL     1      -5.374  -9.999  15.652  0.00  0.00    -0.250 N 
ATOM     20  C   UNL     1      -5.198 -10.832  14.564  0.00  0.00    +0.405 C 
ATOM     40  H   UNL     1      -5.287  -9.006  15.461  0.00  0.00    +0.158 HD
BRANCH  12  24
ATOM     24  C   UNL     1      -5.663 -10.362  16.987  0.00  0.00    +0.050 A 
ATOM     26  C   UNL     1      -6.942 -10.192  17.517  0.00  0.00    +0.080 A 
ATOM     28  C   UNL     1      -4.646 -10.896  17.778  0.00  0.00    +0.024 A 
ATOM     33  C   UNL     1      -7.205 -10.556  18.838  0.00  0.00    +0.017 A 
ATOM     34  C   UNL     1      -4.908 -11.259  19.099  0.00  0.00    +0.002 A 
ATOM     36  C   UNL     1      -6.187 -11.090  19.629  0.00  0.00    +0.001 A 
BRANCH  26  35
ATOM      8  O   UNL     1      -8.310 -10.008  15.573  0.00  0.00    -0.245 OA
ATOM     35  C   UNL     1      -8.028  -9.637  16.718  0.00  0.00    +0.341 C 
BRANCH  35   7
ATOM      7  O   UNL     1      -8.695  -8.655  17.394  0.00  0.00    -0.464 OA
ATOM     38  C   UNL     1      -9.558  -7.812  16.621  0.00  0.00    +0.280 C 
ENDBRANCH  35   7
ENDBRANCH  26  35
ENDBRANCH  12  24
ENDBRANCH   3  20
ENDBRANCH  16   3
TORSDOF 7
ENDMDL
MODEL 5
REMARK VINA RESULT:      -7.5     18.377     21.954
REMARK  Name = 11912771
REMARK  8 active torsions:
REMARK  status: ('A' for Active; 'I' for Inactive)
REMARK    1  A    between atoms: O_3  and  C_16
REMARK    2  A    between atoms: O_3  and  C_20
REMARK    3  A    between atoms: O_7  and  C_35
REMARK    4  A    between atoms: O_7  and  C_38
REMARK    5  A    between atoms: N_9  and  C_15
REMARK    6  A    between atoms: N_12  and  C_24
REMARK    7  A    between atoms: C_21  and  C_25
REMARK    8  A    between atoms: C_26  and  C_35
REMARK                            x       y       z     vdW  Elec       q    Type
REMARK                         _______ _______ _______ _____ _____    ______ ____
ROOT
ATOM      1  O   UNL     1     -16.848   5.247  21.869  0.00  0.00    -0.368 OA
ATOM      2  O   UNL     1     -14.214   4.892  23.402  0.00  0.00    -0.368 OA
ATOM     13  C   UNL     1     -15.429   5.597  23.737  0.00  0.00    +0.173 C 
ATOM     14  C   UNL     1     -15.950   6.206  22.451  0.00  0.00    +0.192 C 
ATOM     15  C   UNL     1     -16.503   4.612  24.137  0.00  0.00    +0.130 C 
ATOM     16  C   UNL     1     -14.693   6.364  21.630  0.00  0.00    +0.235 C 
ATOM     17  C   UNL     1     -17.050   4.166  22.792  0.00  0.00    +0.185 C 
ATOM     18  C   UNL     1     -13.898   5.140  22.025  0.00  0.00    +0.207 C 
ENDROOT
BRANCH  15   9
ATOM      9  N   UNL     1     -17.535   5.280  24.902  0.00  0.00    -0.306 N 
ATOM     10  N   UNL     1     -16.817   4.319  26.890  0.00  0.00    -0.214 NA
ATOM     11  N   UNL     1     -18.698   5.824  26.837  0.00  0.00    -0.223 NA
ATOM     19  C   UNL     1     -17.689   5.135  26.269  0.00  0.00    +0.216 A 
ATOM     21  C   UNL     1     -16.996   4.200  28.221  0.00  0.00    +0.076 A 
ATOM     22  C   UNL     1     -18.819   5.659  28.170  0.00  0.00    +0.116 A 
ATOM     23  C   UNL     1     -17.990   4.852  28.922  0.00  0.00    +0.048 A 
ATOM     39  H   UNL     1     -18.156   5.932  24.436  0.00  0.00    +0.149 HD
BRANCH  21  25
ATOM      5  O   UNL     1     -14.979  -0.173  29.089  0.00  0.00    -0.453 OA
ATOM      6  O   UNL     1     -13.457   0.736  30.723  0.00  0.00    -0.453 OA
ATOM     25  C   UNL     1     -16.061   3.327  28.890  0.00  0.00    +0.004 A 
ATOM     27  C   UNL     1     -16.047   1.964  28.587  0.00  0.00    +0.059 A 
ATOM     29  C   UNL     1     -15.173   3.858  29.843  0.00  0.00    +0.014 A 
ATOM     30  C   UNL     1     -15.136   1.168  29.252  0.00  0.00    +0.167 A 
ATOM     31  C   UNL     1     -14.268   1.687  30.184  0.00  0.00    +0.166 A 
ATOM     32  C   UNL     1     -14.261   3.031  30.503  0.00  0.00    +0.050 A 
ATOM     37  C   UNL     1     -13.913  -0.441  30.024  0.00  0.00    +0.466 C 
ENDBRANCH  21  25
ENDBRANCH  15   9
BRANCH  16   3
ATOM      3  O   UNL     1     -14.930   6.418  20.242  0.00  0.00    -0.442 OA
BRANCH   3  20
ATOM      4  O   UNL     1     -14.994   8.273  18.905  0.00  0.00    -0.226 OA
ATOM     12  N   UNL     1     -12.973   7.407  19.711  0.00  0.00    -0.250 N 
ATOM     20  C   UNL     1     -14.345   7.458  19.549  0.00  0.00    +0.405 C 
ATOM     40  H   UNL     1     -12.629   6.645  20.286  0.00  0.00    +0.158 HD
BRANCH  12  24
ATOM     24  C   UNL     1     -12.001   8.281  19.173  0.00  0.00    +0.050 A 
ATOM     26  C   UNL     1     -11.727   9.509  19.778  0.00  0.00    +0.080 A 
ATOM     28  C   UNL     1     -11.313   7.902  18.021  0.00  0.00    +0.024 A 
ATOM     33  C   UNL     1     -10.764  10.357  19.230  0.00  0.00    +0.017 A 
ATOM     34  C   UNL     1     -10.351   8.750  17.473  0.00  0.00    +0.002 A 
ATOM     36  C   UNL     1     -10.076   9.977  18.076  0.00  0.00    +0.001 A 
BRANCH  26  35
ATOM      8  O   UNL     1     -12.636   9.210  21.962  0.00  0.00    -0.245 OA
ATOM     35  C   UNL     1     -12.427   9.936  20.983  0.00  0.00    +0.341 C 
BRANCH  35   7
ATOM      7  O   UNL     1     -12.824  11.241  20.894  0.00  0.00    -0.464 OA
ATOM     38  C   UNL     1     -14.052  11.496  20.204  0.00  0.00    +0.280 C 
ENDBRANCH  35   7
ENDBRANCH  26  35
ENDBRANCH  12  24
ENDBRANCH   3  20
ENDBRANCH  16   3
TORSDOF 7
ENDMDL
MODEL 6
REMARK VINA RESULT:      -7.3      5.152      7.613
REMARK  Name = 11912771
REMARK  8 active torsions:
REMARK  status: ('A' for Active; 'I' for Inactive)
REMARK    1  A    between atoms: O_3  and  C_16
REMARK    2  A    between atoms: O_3  and  C_20
REMARK    3  A    between atoms: O_7  and  C_35
REMARK    4  A    between atoms: O_7  and  C_38
REMARK    5  A    between atoms: N_9  and  C_15
REMARK    6  A    between atoms: N_12  and  C_24
REMARK    7  A    between atoms: C_21  and  C_25
REMARK    8  A    between atoms: C_26  and  C_35
REMARK                            x       y       z     vdW  Elec       q    Type
REMARK                         _______ _______ _______ _____ _____    ______ ____
ROOT
ATOM      1  O   UNL     1     -11.527  -8.764  15.107  0.00  0.00    -0.368 OA
ATOM      2  O   UNL     1     -10.599  -5.929  15.826  0.00  0.00    -0.368 OA
ATOM     13  C   UNL     1     -10.872  -7.085  16.648  0.00  0.00    +0.173 C 
ATOM     14  C   UNL     1     -12.057  -7.795  16.025  0.00  0.00    +0.192 C 
ATOM     15  C   UNL     1      -9.744  -8.082  16.527  0.00  0.00    +0.130 C 
ATOM     16  C   UNL     1     -12.770  -6.674  15.306  0.00  0.00    +0.235 C 
ATOM     17  C   UNL     1     -10.100  -8.821  15.249  0.00  0.00    +0.185 C 
ATOM     18  C   UNL     1     -11.618  -5.823  14.821  0.00  0.00    +0.207 C 
ENDROOT
BRANCH  15   9
ATOM      9  N   UNL     1      -9.757  -8.992  17.653  0.00  0.00    -0.306 N 
ATOM     10  N   UNL     1      -7.657  -9.830  17.123  0.00  0.00    -0.214 NA
ATOM     11  N   UNL     1      -8.883 -10.643  19.032  0.00  0.00    -0.223 NA
ATOM     19  C   UNL     1      -8.721  -9.859  17.949  0.00  0.00    +0.216 A 
ATOM     21  C   UNL     1      -6.666 -10.687  17.440  0.00  0.00    +0.076 A 
ATOM     22  C   UNL     1      -7.853 -11.475  19.291  0.00  0.00    +0.116 A 
ATOM     23  C   UNL     1      -6.709 -11.542  18.523  0.00  0.00    +0.048 A 
ATOM     39  H   UNL     1     -10.538  -8.972  18.300  0.00  0.00    +0.149 HD
BRANCH  21  25
ATOM      5  O   UNL     1      -4.589 -10.489  13.014  0.00  0.00    -0.453 OA
ATOM      6  O   UNL     1      -2.364 -10.571  13.939  0.00  0.00    -0.453 OA
ATOM     25  C   UNL     1      -5.524 -10.658  16.558  0.00  0.00    +0.004 A 
ATOM     27  C   UNL     1      -5.718 -10.583  15.177  0.00  0.00    +0.059 A 
ATOM     29  C   UNL     1      -4.227 -10.706  17.098  0.00  0.00    +0.014 A 
ATOM     30  C   UNL     1      -4.596 -10.558  14.373  0.00  0.00    +0.167 A 
ATOM     31  C   UNL     1      -3.326 -10.605  14.901  0.00  0.00    +0.166 A 
ATOM     32  C   UNL     1      -3.108 -10.680  16.262  0.00  0.00    +0.050 A 
ATOM     37  C   UNL     1      -3.171 -10.497  12.746  0.00  0.00    +0.466 C 
ENDBRANCH  21  25
ENDBRANCH  15   9
BRANCH  16   3
ATOM      3  O   UNL     1     -13.587  -7.116  14.245  0.00  0.00    -0.442 OA
BRANCH   3  20
ATOM      4  O   UNL     1     -15.281  -5.580  14.261  0.00  0.00    -0.226 OA
ATOM     12  N   UNL     1     -14.053  -6.036  12.321  0.00  0.00    -0.250 N 
ATOM     20  C   UNL     1     -14.401  -6.174  13.651  0.00  0.00    +0.405 C 
ATOM     40  H   UNL     1     -13.290  -6.626  12.004  0.00  0.00    +0.158 HD
BRANCH  12  24
ATOM     24  C   UNL     1     -14.631  -5.180  11.355  0.00  0.00    +0.050 A 
ATOM     26  C   UNL     1     -13.940  -4.066  10.878  0.00  0.00    +0.080 A 
ATOM     28  C   UNL     1     -15.911  -5.464  10.879  0.00  0.00    +0.024 A 
ATOM     33  C   UNL     1     -14.530  -3.234   9.926  0.00  0.00    +0.017 A 
ATOM     34  C   UNL     1     -16.501  -4.632   9.928  0.00  0.00    +0.002 A 
ATOM     36  C   UNL     1     -15.812  -3.517   9.450  0.00  0.00    +0.001 A 
BRANCH  26  35
ATOM      8  O   UNL     1     -12.364  -3.042  12.345  0.00  0.00    -0.245 OA
ATOM     35  C   UNL     1     -12.601  -3.741  11.353  0.00  0.00    +0.341 C 
BRANCH  35   7
ATOM      7  O   UNL     1     -11.639  -4.306  10.563  0.00  0.00    -0.464 OA
ATOM     38  C   UNL     1     -11.049  -3.466   9.565  0.00  0.00    +0.280 C 
ENDBRANCH  35   7
ENDBRANCH  26  35
ENDBRANCH  12  24
ENDBRANCH   3  20
ENDBRANCH  16   3
TORSDOF 7
ENDMDL
MODEL 7
REMARK VINA RESULT:      -7.2      9.083     16.743
REMARK  Name = 11912771
REMARK  8 active torsions:
REMARK  status: ('A' for Active; 'I' for Inactive)
REMARK    1  A    between atoms: O_3  and  C_16
REMARK    2  A    between atoms: O_3  and  C_20
REMARK    3  A    between atoms: O_7  and  C_35
REMARK    4  A    between atoms: O_7  and  C_38
REMARK    5  A    between atoms: N_9  and  C_15
REMARK    6  A    between atoms: N_12  and  C_24
REMARK    7  A    between atoms: C_21  and  C_25
REMARK    8  A    between atoms: C_26  and  C_35
REMARK                            x       y       z     vdW  Elec       q    Type
REMARK                         _______ _______ _______ _____ _____    ______ ____
ROOT
ATOM      1  O   UNL     1      -4.230 -13.930   2.725  0.00  0.00    -0.368 OA
ATOM      2  O   UNL     1      -2.032 -13.373   4.792  0.00  0.00    -0.368 OA
ATOM     13  C   UNL     1      -3.120 -12.556   4.308  0.00  0.00    +0.173 C 
ATOM     14  C   UNL     1      -3.274 -12.863   2.832  0.00  0.00    +0.192 C 
ATOM     15  C   UNL     1      -4.423 -13.019   4.916  0.00  0.00    +0.130 C 
ATOM     16  C   UNL     1      -1.887 -13.315   2.444  0.00  0.00    +0.235 C 
ATOM     17  C   UNL     1      -4.804 -14.183   4.017  0.00  0.00    +0.185 C 
ATOM     18  C   UNL     1      -1.436 -14.059   3.681  0.00  0.00    +0.207 C 
ENDROOT
BRANCH  15   9
ATOM      9  N   UNL     1      -5.417 -11.971   4.828  0.00  0.00    -0.306 N 
ATOM     10  N   UNL     1      -4.871 -11.147   6.930  0.00  0.00    -0.214 NA
ATOM     11  N   UNL     1      -6.599 -10.125   5.597  0.00  0.00    -0.223 NA
ATOM     19  C   UNL     1      -5.638 -11.040   5.828  0.00  0.00    +0.216 A 
ATOM     21  C   UNL     1      -5.113 -10.226   7.884  0.00  0.00    +0.076 A 
ATOM     22  C   UNL     1      -6.788  -9.234   6.592  0.00  0.00    +0.116 A 
ATOM     23  C   UNL     1      -6.068  -9.236   7.770  0.00  0.00    +0.048 A 
ATOM     39  H   UNL     1      -5.955 -11.865   3.975  0.00  0.00    +0.149 HD
BRANCH  21  25
ATOM      5  O   UNL     1      -3.040 -12.755  11.524  0.00  0.00    -0.453 OA
ATOM      6  O   UNL     1      -1.985 -10.786  12.431  0.00  0.00    -0.453 OA
ATOM     25  C   UNL     1      -4.291 -10.336   9.066  0.00  0.00    +0.004 A 
ATOM     27  C   UNL     1      -4.116 -11.581   9.674  0.00  0.00    +0.059 A 
ATOM     29  C   UNL     1      -3.676  -9.188   9.595  0.00  0.00    +0.014 A 
ATOM     30  C   UNL     1      -3.322 -11.637  10.801  0.00  0.00    +0.167 A 
ATOM     31  C   UNL     1      -2.720 -10.514  11.319  0.00  0.00    +0.166 A 
ATOM     32  C   UNL     1      -2.878  -9.272  10.738  0.00  0.00    +0.050 A 
ATOM     37  C   UNL     1      -2.192 -12.209  12.555  0.00  0.00    +0.466 C 
ENDBRANCH  21  25
ENDBRANCH  15   9
BRANCH  16   3
ATOM      3  O   UNL     1      -1.861 -14.132   1.295  0.00  0.00    -0.442 OA
BRANCH   3  20
ATOM      4  O   UNL     1      -0.511 -15.973   1.160  0.00  0.00    -0.226 OA
ATOM     12  N   UNL     1       0.247 -13.845   0.546  0.00  0.00    -0.250 N 
ATOM     20  C   UNL     1      -0.671 -14.768   1.009  0.00  0.00    +0.405 C 
ATOM     40  H   UNL     1      -0.084 -12.886   0.495  0.00  0.00    +0.158 HD
BRANCH  12  24
ATOM     24  C   UNL     1       1.582 -14.073   0.141  0.00  0.00    +0.050 A 
ATOM     26  C   UNL     1       1.934 -14.068  -1.209  0.00  0.00    +0.080 A 
ATOM     28  C   UNL     1       2.554 -14.307   1.114  0.00  0.00    +0.024 A 
ATOM     33  C   UNL     1       3.257 -14.297  -1.587  0.00  0.00    +0.017 A 
ATOM     34  C   UNL     1       3.877 -14.537   0.736  0.00  0.00    +0.002 A 
ATOM     36  C   UNL     1       4.229 -14.532  -0.614  0.00  0.00    +0.001 A 
BRANCH  26  35
ATOM      8  O   UNL     1       0.010 -14.593  -2.517  0.00  0.00    -0.245 OA
ATOM     35  C   UNL     1       0.943 -13.827  -2.252  0.00  0.00    +0.341 C 
BRANCH  35   7
ATOM      7  O   UNL     1       1.177 -12.647  -2.900  0.00  0.00    -0.464 OA
ATOM     38  C   UNL     1       1.243 -12.699  -4.329  0.00  0.00    +0.280 C 
ENDBRANCH  35   7
ENDBRANCH  26  35
ENDBRANCH  12  24
ENDBRANCH   3  20
ENDBRANCH  16   3
TORSDOF 7
ENDMDL
MODEL 8
REMARK VINA RESULT:      -7.2     28.523     33.009
REMARK  Name = 11912771
REMARK  8 active torsions:
REMARK  status: ('A' for Active; 'I' for Inactive)
REMARK    1  A    between atoms: O_3  and  C_16
REMARK    2  A    between atoms: O_3  and  C_20
REMARK    3  A    between atoms: O_7  and  C_35
REMARK    4  A    between atoms: O_7  and  C_38
REMARK    5  A    between atoms: N_9  and  C_15
REMARK    6  A    between atoms: N_12  and  C_24
REMARK    7  A    between atoms: C_21  and  C_25
REMARK    8  A    between atoms: C_26  and  C_35
REMARK                            x       y       z     vdW  Elec       q    Type
REMARK                         _______ _______ _______ _____ _____    ______ ____
ROOT
ATOM      1  O   UNL     1      20.080   8.651  22.098  0.00  0.00    -0.368 OA
ATOM      2  O   UNL     1      18.616   6.660  20.280  0.00  0.00    -0.368 OA
ATOM     13  C   UNL     1      18.191   7.364  21.466  0.00  0.00    +0.173 C 
ATOM     14  C   UNL     1      19.389   7.426  22.392  0.00  0.00    +0.192 C 
ATOM     15  C   UNL     1      17.911   8.811  21.134  0.00  0.00    +0.130 C 
ATOM     16  C   UNL     1      20.190   6.217  21.972  0.00  0.00    +0.235 C 
ATOM     17  C   UNL     1      19.298   9.429  21.180  0.00  0.00    +0.185 C 
ATOM     18  C   UNL     1      19.954   6.181  20.479  0.00  0.00    +0.207 C 
ENDROOT
BRANCH  15   9
ATOM      9  N   UNL     1      17.064   9.403  22.148  0.00  0.00    -0.306 N 
ATOM     10  N   UNL     1      15.260   9.549  20.693  0.00  0.00    -0.214 NA
ATOM     11  N   UNL     1      15.090  10.306  22.974  0.00  0.00    -0.223 NA
ATOM     19  C   UNL     1      15.748   9.768  21.929  0.00  0.00    +0.216 A 
ATOM     21  C   UNL     1      13.976   9.916  20.514  0.00  0.00    +0.076 A 
ATOM     22  C   UNL     1      13.810  10.650  22.725  0.00  0.00    +0.116 A 
ATOM     23  C   UNL     1      13.193  10.477  21.503  0.00  0.00    +0.048 A 
ATOM     39  H   UNL     1      17.421   9.518  23.090  0.00  0.00    +0.149 HD
BRANCH  21  25
ATOM      5  O   UNL     1      10.483   8.451  17.414  0.00  0.00    -0.453 OA
ATOM      6  O   UNL     1      11.834   8.965  15.485  0.00  0.00    -0.453 OA
ATOM     25  C   UNL     1      13.449   9.682  19.189  0.00  0.00    +0.004 A 
ATOM     27  C   UNL     1      12.162   9.159  19.039  0.00  0.00    +0.059 A 
ATOM     29  C   UNL     1      14.237   9.981  18.065  0.00  0.00    +0.014 A 
ATOM     30  C   UNL     1      11.702   8.952  17.754  0.00  0.00    +0.167 A 
ATOM     31  C   UNL     1      12.473   9.244  16.653  0.00  0.00    +0.166 A 
ATOM     32  C   UNL     1      13.747   9.762  16.775  0.00  0.00    +0.050 A 
ATOM     37  C   UNL     1      10.573   8.463  15.975  0.00  0.00    +0.466 C 
ENDBRANCH  21  25
ENDBRANCH  15   9
BRANCH  16   3
ATOM      3  O   UNL     1      21.560   6.311  22.291  0.00  0.00    -0.442 OA
BRANCH   3  20
ATOM      4  O   UNL     1      21.969   4.589  23.739  0.00  0.00    -0.226 OA
ATOM     12  N   UNL     1      23.072   4.752  21.681  0.00  0.00    -0.250 N 
ATOM     20  C   UNL     1      22.193   5.146  22.672  0.00  0.00    +0.405 C 
ATOM     40  H   UNL     1      23.114   5.358  20.867  0.00  0.00    +0.158 HD
BRANCH  12  24
ATOM     24  C   UNL     1      23.916   3.618  21.667  0.00  0.00    +0.050 A 
ATOM     26  C   UNL     1      25.252   3.713  22.058  0.00  0.00    +0.080 A 
ATOM     28  C   UNL     1      23.395   2.392  21.255  0.00  0.00    +0.024 A 
ATOM     33  C   UNL     1      26.068   2.581  22.036  0.00  0.00    +0.017 A 
ATOM     34  C   UNL     1      24.211   1.260  21.233  0.00  0.00    +0.002 A 
ATOM     36  C   UNL     1      25.547   1.354  21.623  0.00  0.00    +0.001 A 
BRANCH  26  35
ATOM      8  O   UNL     1      25.897   5.993  21.791  0.00  0.00    -0.245 OA
ATOM     35  C   UNL     1      25.829   4.979  22.495  0.00  0.00    +0.341 C 
BRANCH  35   7
ATOM      7  O   UNL     1      26.284   4.904  23.781  0.00  0.00    -0.464 OA
ATOM     38  C   UNL     1      25.333   5.172  24.818  0.00  0.00    +0.280 C 
ENDBRANCH  35   7
ENDBRANCH  26  35
ENDBRANCH  12  24
ENDBRANCH   3  20
ENDBRANCH  16   3
TORSDOF 7
ENDMDL
MODEL 9
REMARK VINA RESULT:      -7.2     20.040     24.366
REMARK  Name = 11912771
REMARK  8 active torsions:
REMARK  status: ('A' for Active; 'I' for Inactive)
REMARK    1  A    between atoms: O_3  and  C_16
REMARK    2  A    between atoms: O_3  and  C_20
REMARK    3  A    between atoms: O_7  and  C_35
REMARK    4  A    between atoms: O_7  and  C_38
REMARK    5  A    between atoms: N_9  and  C_15
REMARK    6  A    between atoms: N_12  and  C_24
REMARK    7  A    between atoms: C_21  and  C_25
REMARK    8  A    between atoms: C_26  and  C_35
REMARK                            x       y       z     vdW  Elec       q    Type
REMARK                         _______ _______ _______ _____ _____    ______ ____
ROOT
ATOM      1  O   UNL     1     -15.268   5.629  34.641  0.00  0.00    -0.368 OA
ATOM      2  O   UNL     1     -15.081   6.525  31.713  0.00  0.00    -0.368 OA
ATOM     13  C   UNL     1     -14.626   5.327  32.378  0.00  0.00    +0.173 C 
ATOM     14  C   UNL     1     -14.145   5.746  33.753  0.00  0.00    +0.192 C 
ATOM     15  C   UNL     1     -15.798   4.417  32.663  0.00  0.00    +0.130 C 
ATOM     16  C   UNL     1     -13.751   7.188  33.537  0.00  0.00    +0.235 C 
ATOM     17  C   UNL     1     -16.358   5.003  33.948  0.00  0.00    +0.185 C 
ATOM     18  C   UNL     1     -14.791   7.657  32.545  0.00  0.00    +0.207 C 
ENDROOT
BRANCH  15   9
ATOM      9  N   UNL     1     -15.339   3.063  32.886  0.00  0.00    -0.306 N 
ATOM     10  N   UNL     1     -15.701   2.473  30.670  0.00  0.00    -0.214 NA
ATOM     11  N   UNL     1     -14.836   0.884  32.261  0.00  0.00    -0.223 NA
ATOM     19  C   UNL     1     -15.289   2.098  31.896  0.00  0.00    +0.216 A 
ATOM     21  C   UNL     1     -15.640   1.509  29.729  0.00  0.00    +0.076 A 
ATOM     22  C   UNL     1     -14.801  -0.032  31.271  0.00  0.00    +0.116 A 
ATOM     23  C   UNL     1     -15.195   0.226  29.974  0.00  0.00    +0.048 A 
ATOM     39  H   UNL     1     -14.982   2.803  33.799  0.00  0.00    +0.149 HD
BRANCH  21  25
ATOM      5  O   UNL     1     -17.453   0.582  25.280  0.00  0.00    -0.453 OA
ATOM      6  O   UNL     1     -17.355   2.905  24.641  0.00  0.00    -0.453 OA
ATOM     25  C   UNL     1     -16.079   1.908  28.412  0.00  0.00    +0.004 A 
ATOM     27  C   UNL     1     -16.556   0.944  27.521  0.00  0.00    +0.059 A 
ATOM     29  C   UNL     1     -16.022   3.262  28.041  0.00  0.00    +0.014 A 
ATOM     30  C   UNL     1     -16.965   1.372  26.274  0.00  0.00    +0.167 A 
ATOM     31  C   UNL     1     -16.909   2.697  25.909  0.00  0.00    +0.166 A 
ATOM     32  C   UNL     1     -16.442   3.669  26.772  0.00  0.00    +0.050 A 
ATOM     37  C   UNL     1     -17.699   1.560  24.248  0.00  0.00    +0.466 C 
ENDBRANCH  21  25
ENDBRANCH  15   9
BRANCH  16   3
ATOM      3  O   UNL     1     -13.759   7.957  34.718  0.00  0.00    -0.442 OA
BRANCH   3  20
ATOM      4  O   UNL     1     -12.346   7.343  36.409  0.00  0.00    -0.226 OA
ATOM     12  N   UNL     1     -11.749   8.973  34.836  0.00  0.00    -0.250 N 
ATOM     20  C   UNL     1     -12.575   8.032  35.422  0.00  0.00    +0.405 C 
ATOM     40  H   UNL     1     -12.129   9.441  34.019  0.00  0.00    +0.158 HD
BRANCH  12  24
ATOM     24  C   UNL     1     -10.450   9.360  35.238  0.00  0.00    +0.050 A 
ATOM     26  C   UNL     1      -9.562   9.942  34.333  0.00  0.00    +0.080 A 
ATOM     28  C   UNL     1     -10.061   9.152  36.561  0.00  0.00    +0.024 A 
ATOM     33  C   UNL     1      -8.284  10.315  34.750  0.00  0.00    +0.017 A 
ATOM     34  C   UNL     1      -8.783   9.525  36.979  0.00  0.00    +0.002 A 
ATOM     36  C   UNL     1      -7.894  10.106  36.074  0.00  0.00    +0.001 A 
BRANCH  26  35
ATOM      8  O   UNL     1      -9.853  11.268  32.373  0.00  0.00    -0.245 OA
ATOM     35  C   UNL     1      -9.936  10.174  32.943  0.00  0.00    +0.341 C 
BRANCH  35   7
ATOM      7  O   UNL     1     -10.392   9.030  32.350  0.00  0.00    -0.464 OA
ATOM     38  C   UNL     1     -11.401   9.183  31.346  0.00  0.00    +0.280 C 
ENDBRANCH  35   7
ENDBRANCH  26  35
ENDBRANCH  12  24
ENDBRANCH   3  20
ENDBRANCH  16   3
TORSDOF 7
ENDMDL
MODEL 10
REMARK VINA RESULT:      -7.1      4.725      8.398
REMARK  Name = 11912771
REMARK  8 active torsions:
REMARK  status: ('A' for Active; 'I' for Inactive)
REMARK    1  A    between atoms: O_3  and  C_16
REMARK    2  A    between atoms: O_3  and  C_20
REMARK    3  A    between atoms: O_7  and  C_35
REMARK    4  A    between atoms: O_7  and  C_38
REMARK    5  A    between atoms: N_9  and  C_15
REMARK    6  A    between atoms: N_12  and  C_24
REMARK    7  A    between atoms: C_21  and  C_25
REMARK    8  A    between atoms: C_26  and  C_35
REMARK                            x       y       z     vdW  Elec       q    Type
REMARK                         _______ _______ _______ _____ _____    ______ ____
ROOT
ATOM      1  O   UNL     1      -5.000  -8.768  10.904  0.00  0.00    -0.368 OA
ATOM      2  O   UNL     1      -3.317 -11.182  10.038  0.00  0.00    -0.368 OA
ATOM     13  C   UNL     1      -4.640 -10.752   9.655  0.00  0.00    +0.173 C 
ATOM     14  C   UNL     1      -5.289 -10.175  10.898  0.00  0.00    +0.192 C 
ATOM     15  C   UNL     1      -4.548  -9.576   8.712  0.00  0.00    +0.130 C 
ATOM     16  C   UNL     1      -4.568 -10.899  12.010  0.00  0.00    +0.235 C 
ATOM     17  C   UNL     1      -4.368  -8.408   9.666  0.00  0.00    +0.185 C 
ATOM     18  C   UNL     1      -3.167 -11.020  11.456  0.00  0.00    +0.207 C 
ENDROOT
BRANCH  15   9
ATOM      9  N   UNL     1      -5.782  -9.432   7.969  0.00  0.00    -0.306 N 
ATOM     10  N   UNL     1      -5.019 -10.794   6.251  0.00  0.00    -0.214 NA
ATOM     11  N   UNL     1      -7.216  -9.807   6.182  0.00  0.00    -0.223 NA
ATOM     19  C   UNL     1      -6.016 -10.038   6.748  0.00  0.00    +0.216 A 
ATOM     21  C   UNL     1      -5.280 -11.369   5.060  0.00  0.00    +0.076 A 
ATOM     22  C   UNL     1      -7.410 -10.413   4.992  0.00  0.00    +0.116 A 
ATOM     23  C   UNL     1      -6.469 -11.213   4.376  0.00  0.00    +0.048 A 
ATOM     39  H   UNL     1      -6.548  -8.903   8.373  0.00  0.00    +0.149 HD
BRANCH  21  25
ATOM      5  O   UNL     1      -1.188 -14.018   5.491  0.00  0.00    -0.453 OA
ATOM      6  O   UNL     1      -1.127 -14.502   3.130  0.00  0.00    -0.453 OA
ATOM     25  C   UNL     1      -4.213 -12.182   4.524  0.00  0.00    +0.004 A 
ATOM     27  C   UNL     1      -3.227 -12.680   5.378  0.00  0.00    +0.059 A 
ATOM     29  C   UNL     1      -4.179 -12.464   3.147  0.00  0.00    +0.014 A 
ATOM     30  C   UNL     1      -2.228 -13.453   4.820  0.00  0.00    +0.167 A 
ATOM     31  C   UNL     1      -2.193 -13.728   3.473  0.00  0.00    +0.166 A 
ATOM     32  C   UNL     1      -3.156 -13.248   2.608  0.00  0.00    +0.050 A 
ATOM     37  C   UNL     1      -0.495 -14.683   4.414  0.00  0.00    +0.466 C 
ENDBRANCH  21  25
ENDBRANCH  15   9
BRANCH  16   3
ATOM      3  O   UNL     1      -4.595 -10.211  13.240  0.00  0.00    -0.442 OA
BRANCH   3  20
ATOM      4  O   UNL     1      -6.333 -11.520  13.944  0.00  0.00    -0.226 OA
ATOM     12  N   UNL     1      -5.332  -9.942  15.355  0.00  0.00    -0.250 N 
ATOM     20  C   UNL     1      -5.510 -10.643  14.177  0.00  0.00    +0.405 C 
ATOM     40  H   UNL     1      -4.590  -9.248  15.343  0.00  0.00    +0.158 HD
BRANCH  12  24
ATOM     24  C   UNL     1      -6.055 -10.072  16.562  0.00  0.00    +0.050 A 
ATOM     26  C   UNL     1      -5.615 -10.926  17.574  0.00  0.00    +0.080 A 
ATOM     28  C   UNL     1      -7.224  -9.332  16.734  0.00  0.00    +0.024 A 
ATOM     33  C   UNL     1      -6.344 -11.041  18.757  0.00  0.00    +0.017 A 
ATOM     34  C   UNL     1      -7.954  -9.447  17.917  0.00  0.00    +0.002 A 
ATOM     36  C   UNL     1      -7.515 -10.301  18.929  0.00  0.00    +0.001 A 
BRANCH  26  35
ATOM      8  O   UNL     1      -3.265 -11.231  17.302  0.00  0.00    -0.245 OA
ATOM     35  C   UNL     1      -4.397 -11.714  17.428  0.00  0.00    +0.341 C 
BRANCH  35   7
ATOM      7  O   UNL     1      -4.662 -13.054  17.446  0.00  0.00    -0.464 OA
ATOM     38  C   UNL     1      -4.690 -13.723  16.180  0.00  0.00    +0.280 C 
ENDBRANCH  35   7
ENDBRANCH  26  35
ENDBRANCH  12  24
ENDBRANCH   3  20
ENDBRANCH  16   3
TORSDOF 7
ENDMDL
