MODEL 1
REMARK VINA RESULT:      -6.4      0.000      0.000
REMARK  Name = 11912417
REMARK  11 active torsions:
REMARK  status: ('A' for Active; 'I' for Inactive)
REMARK    1  A    between atoms: O_3  and  C_26
REMARK    2  A    between atoms: O_3  and  C_28
REMARK    3  A    between atoms: N_6  and  C_18
REMARK    4  A    between atoms: N_7  and  C_19
REMARK    5  A    between atoms: C_8  and  C_14
REMARK    6  A    between atoms: C_9  and  C_13
REMARK    7  A    between atoms: C_13  and  C_15
REMARK    8  A    between atoms: C_14  and  C_17
REMARK    9  A    between atoms: C_19  and  C_23
REMARK   10  A    between atoms: C_22  and  C_26
REMARK   11  A    between atoms: C_28  and  C_29
REMARK                            x       y       z     vdW  Elec       q    Type
REMARK                         _______ _______ _______ _____ _____    ______ ____
ROOT
ATOM      1  O   UNL     1      13.226   6.924  21.266  0.00  0.00    -0.252 OA
ATOM      5  N   UNL     1      12.798   9.186  21.058  0.00  0.00    -0.285 N 
ATOM      6  N   UNL     1      15.009   8.372  20.939  0.00  0.00    -0.269 N 
ATOM      8  C   UNL     1      11.255  11.311  22.273  0.00  0.00    +0.004 C 
ATOM      9  C   UNL     1      12.776  11.473  22.014  0.00  0.00    +0.010 C 
ATOM     10  C   UNL     1      10.853   9.832  22.415  0.00  0.00    +0.023 C 
ATOM     11  C   UNL     1      13.193  10.584  20.831  0.00  0.00    +0.113 C 
ATOM     12  C   UNL     1      11.358   8.999  21.238  0.00  0.00    +0.109 C 
ATOM     16  C   UNL     1      13.657   8.067  21.090  0.00  0.00    +0.306 C 
ATOM     30  H   UNL     1      15.326   9.297  21.184  0.00  0.00    +0.156 HD
ENDROOT
BRANCH   6  18
ATOM     18  C   UNL     1      16.033   7.522  20.455  0.00  0.00    +0.036 A 
ATOM     20  C   UNL     1      17.244   7.439  21.136  0.00  0.00    +0.038 A 
ATOM     21  C   UNL     1      15.823   6.774  19.299  0.00  0.00    +0.023 A 
ATOM     22  C   UNL     1      18.253   6.602  20.658  0.00  0.00    +0.061 A 
ATOM     24  C   UNL     1      16.831   5.936  18.822  0.00  0.00    +0.003 A 
ATOM     25  C   UNL     1      18.045   5.850  19.501  0.00  0.00    +0.015 A 
BRANCH  22  26
ATOM      4  O   UNL     1      19.645   6.610  22.594  0.00  0.00    -0.245 OA
ATOM     26  C   UNL     1      19.520   6.511  21.365  0.00  0.00    +0.339 C 
BRANCH  26   3
ATOM      3  O   UNL     1      20.563   6.303  20.505  0.00  0.00    -0.461 OA
BRANCH   3  28
ATOM     28  C   UNL     1      21.606   5.429  20.950  0.00  0.00    +0.229 C 
ATOM     29  C   UNL     1      21.151   3.995  20.787  0.00  0.00    +0.048 C 
ENDBRANCH   3  28
ENDBRANCH  26   3
ENDBRANCH  22  26
ENDBRANCH   6  18
BRANCH   9  13
ATOM     13  C   UNL     1      13.652  11.183  23.239  0.00  0.00    +0.002 C 
ATOM     15  C   UNL     1      14.503  12.383  23.600  0.00  0.00    +0.004 C 
ENDBRANCH   9  13
BRANCH   8  14
ATOM     14  C   UNL     1      10.760  12.121  23.472  0.00  0.00    +0.099 C 
BRANCH  14  17
ATOM      2  O   UNL     1      11.458  14.436  23.556  0.00  0.00    -0.276 OA
ATOM      7  N   UNL     1       9.537  13.864  22.377  0.00  0.00    -0.304 N 
ATOM     17  C   UNL     1      10.653  13.598  23.159  0.00  0.00    +0.214 C 
ATOM     31  H   UNL     1       8.923  13.102  22.105  0.00  0.00    +0.150 HD
BRANCH   7  19
ATOM     19  C   UNL     1       9.186  15.192  21.931  0.00  0.00    +0.193 C 
BRANCH  19  23
ATOM     23  C   UNL     1       7.944  15.178  21.158  0.00  0.00    -0.087 C 
ATOM     27  C   UNL     1       6.924  15.163  20.525  0.00  0.00    +0.005 C 
ENDBRANCH  19  23
ENDBRANCH   7  19
ENDBRANCH  14  17
ENDBRANCH   8  14
TORSDOF 9
ENDMDL
MODEL 2
REMARK VINA RESULT:      -6.2      3.767     10.658
REMARK  Name = 11912417
REMARK  11 active torsions:
REMARK  status: ('A' for Active; 'I' for Inactive)
REMARK    1  A    between atoms: O_3  and  C_26
REMARK    2  A    between atoms: O_3  and  C_28
REMARK    3  A    between atoms: N_6  and  C_18
REMARK    4  A    between atoms: N_7  and  C_19
REMARK    5  A    between atoms: C_8  and  C_14
REMARK    6  A    between atoms: C_9  and  C_13
REMARK    7  A    between atoms: C_13  and  C_15
REMARK    8  A    between atoms: C_14  and  C_17
REMARK    9  A    between atoms: C_19  and  C_23
REMARK   10  A    between atoms: C_22  and  C_26
REMARK   11  A    between atoms: C_28  and  C_29
REMARK                            x       y       z     vdW  Elec       q    Type
REMARK                         _______ _______ _______ _____ _____    ______ ____
ROOT
ATOM      1  O   UNL     1      17.287   5.651  18.525  0.00  0.00    -0.252 OA
ATOM      5  N   UNL     1      18.342   5.994  20.553  0.00  0.00    -0.285 N 
ATOM      6  N   UNL     1      16.346   7.139  20.035  0.00  0.00    -0.269 N 
ATOM      8  C   UNL     1      20.966   6.461  21.681  0.00  0.00    +0.004 C 
ATOM      9  C   UNL     1      19.766   7.379  22.036  0.00  0.00    +0.010 C 
ATOM     10  C   UNL     1      20.779   5.777  20.315  0.00  0.00    +0.023 C 
ATOM     11  C   UNL     1      18.455   6.589  21.893  0.00  0.00    +0.113 C 
ATOM     12  C   UNL     1      19.428   5.070  20.221  0.00  0.00    +0.109 C 
ATOM     16  C   UNL     1      17.306   6.217  19.622  0.00  0.00    +0.306 C 
ATOM     30  H   UNL     1      16.603   7.828  20.725  0.00  0.00    +0.156 HD
ENDROOT
BRANCH   6  18
ATOM     18  C   UNL     1      14.999   7.230  19.606  0.00  0.00    +0.036 A 
ATOM     20  C   UNL     1      13.968   6.923  20.490  0.00  0.00    +0.038 A 
ATOM     21  C   UNL     1      14.714   7.625  18.301  0.00  0.00    +0.023 A 
ATOM     22  C   UNL     1      12.642   7.013  20.066  0.00  0.00    +0.061 A 
ATOM     24  C   UNL     1      13.388   7.715  17.878  0.00  0.00    +0.003 A 
ATOM     25  C   UNL     1      12.353   7.409  18.760  0.00  0.00    +0.015 A 
BRANCH  22  26
ATOM      4  O   UNL     1      11.421   5.599  21.547  0.00  0.00    -0.245 OA
ATOM     26  C   UNL     1      11.562   6.693  20.985  0.00  0.00    +0.339 C 
BRANCH  26   3
ATOM      3  O   UNL     1      10.714   7.754  21.153  0.00  0.00    -0.461 OA
BRANCH   3  28
ATOM     28  C   UNL     1      10.886   8.539  22.338  0.00  0.00    +0.229 C 
ATOM     29  C   UNL     1      11.287   9.945  21.945  0.00  0.00    +0.048 C 
ENDBRANCH   3  28
ENDBRANCH  26   3
ENDBRANCH  22  26
ENDBRANCH   6  18
BRANCH   9  13
ATOM     13  C   UNL     1      19.706   8.673  21.214  0.00  0.00    +0.002 C 
ATOM     15  C   UNL     1      18.526   9.527  21.625  0.00  0.00    +0.004 C 
ENDBRANCH   9  13
BRANCH   8  14
ATOM     14  C   UNL     1      22.313   7.181  21.744  0.00  0.00    +0.099 C 
BRANCH  14  17
ATOM      2  O   UNL     1      24.228   6.445  20.462  0.00  0.00    -0.276 OA
ATOM      7  N   UNL     1      23.544   5.207  22.307  0.00  0.00    -0.304 N 
ATOM     17  C   UNL     1      23.469   6.263  21.409  0.00  0.00    +0.214 C 
ATOM     31  H   UNL     1      22.862   5.137  23.057  0.00  0.00    +0.150 HD
BRANCH   7  19
ATOM     19  C   UNL     1      24.551   4.174  22.226  0.00  0.00    +0.193 C 
BRANCH  19  23
ATOM     23  C   UNL     1      24.066   3.022  21.467  0.00  0.00    -0.087 C 
ATOM     27  C   UNL     1      23.669   2.077  20.842  0.00  0.00    +0.005 C 
ENDBRANCH  19  23
ENDBRANCH   7  19
ENDBRANCH  14  17
ENDBRANCH   8  14
TORSDOF 9
ENDMDL
MODEL 3
REMARK VINA RESULT:      -6.1      3.134      5.452
REMARK  Name = 11912417
REMARK  11 active torsions:
REMARK  status: ('A' for Active; 'I' for Inactive)
REMARK    1  A    between atoms: O_3  and  C_26
REMARK    2  A    between atoms: O_3  and  C_28
REMARK    3  A    between atoms: N_6  and  C_18
REMARK    4  A    between atoms: N_7  and  C_19
REMARK    5  A    between atoms: C_8  and  C_14
REMARK    6  A    between atoms: C_9  and  C_13
REMARK    7  A    between atoms: C_13  and  C_15
REMARK    8  A    between atoms: C_14  and  C_17
REMARK    9  A    between atoms: C_19  and  C_23
REMARK   10  A    between atoms: C_22  and  C_26
REMARK   11  A    between atoms: C_28  and  C_29
REMARK                            x       y       z     vdW  Elec       q    Type
REMARK                         _______ _______ _______ _____ _____    ______ ____
ROOT
ATOM      1  O   UNL     1      18.922   9.111  21.303  0.00  0.00    -0.252 OA
ATOM      5  N   UNL     1      16.959   7.893  21.375  0.00  0.00    -0.285 N 
ATOM      6  N   UNL     1      19.002   6.837  20.854  0.00  0.00    -0.269 N 
ATOM      8  C   UNL     1      14.204   8.000  20.497  0.00  0.00    +0.004 C 
ATOM      9  C   UNL     1      15.085   6.752  20.220  0.00  0.00    +0.010 C 
ATOM     10  C   UNL     1      15.051   9.273  20.669  0.00  0.00    +0.023 C 
ATOM     11  C   UNL     1      16.179   6.649  21.296  0.00  0.00    +0.113 C 
ATOM     12  C   UNL     1      16.159   9.074  21.703  0.00  0.00    +0.109 C 
ATOM     16  C   UNL     1      18.352   8.022  21.193  0.00  0.00    +0.306 C 
ATOM     30  H   UNL     1      18.471   6.103  20.413  0.00  0.00    +0.156 HD
ENDROOT
BRANCH   6  18
ATOM     18  C   UNL     1      20.364   6.511  21.071  0.00  0.00    +0.036 A 
ATOM     20  C   UNL     1      20.701   5.493  21.958  0.00  0.00    +0.038 A 
ATOM     21  C   UNL     1      21.359   7.212  20.394  0.00  0.00    +0.023 A 
ATOM     22  C   UNL     1      22.042   5.173  22.170  0.00  0.00    +0.061 A 
ATOM     24  C   UNL     1      22.700   6.892  20.606  0.00  0.00    +0.003 A 
ATOM     25  C   UNL     1      23.041   5.872  21.493  0.00  0.00    +0.015 A 
BRANCH  22  26
ATOM      4  O   UNL     1      22.584   4.271  24.310  0.00  0.00    -0.245 OA
ATOM     26  C   UNL     1      22.398   4.110  23.096  0.00  0.00    +0.339 C 
BRANCH  26   3
ATOM      3  O   UNL     1      22.505   2.903  22.460  0.00  0.00    -0.461 OA
BRANCH   3  28
ATOM     28  C   UNL     1      23.820   2.348  22.341  0.00  0.00    +0.229 C 
ATOM     29  C   UNL     1      24.025   1.865  20.922  0.00  0.00    +0.048 C 
ENDBRANCH   3  28
ENDBRANCH  26   3
ENDBRANCH  22  26
ENDBRANCH   6  18
BRANCH   9  13
ATOM     13  C   UNL     1      15.705   6.725  18.818  0.00  0.00    +0.002 C 
ATOM     15  C   UNL     1      16.809   5.692  18.729  0.00  0.00    +0.004 C 
ENDBRANCH   9  13
BRANCH   8  14
ATOM     14  C   UNL     1      13.118   8.213  19.442  0.00  0.00    +0.099 C 
BRANCH  14  17
ATOM      2  O   UNL     1      10.720   8.530  19.405  0.00  0.00    -0.276 OA
ATOM      7  N   UNL     1      11.833   8.471  21.445  0.00  0.00    -0.304 N 
ATOM     17  C   UNL     1      11.752   8.421  20.061  0.00  0.00    +0.214 C 
ATOM     31  H   UNL     1      12.738   8.378  21.898  0.00  0.00    +0.150 HD
BRANCH   7  19
ATOM     19  C   UNL     1      10.681   8.663  22.296  0.00  0.00    +0.193 C 
BRANCH  19  23
ATOM     23  C   UNL     1      10.753   9.943  23.000  0.00  0.00    -0.087 C 
ATOM     27  C   UNL     1      10.811  10.992  23.581  0.00  0.00    +0.005 C 
ENDBRANCH  19  23
ENDBRANCH   7  19
ENDBRANCH  14  17
ENDBRANCH   8  14
TORSDOF 9
ENDMDL
MODEL 4
REMARK VINA RESULT:      -6.0      1.575      2.417
REMARK  Name = 11912417
REMARK  11 active torsions:
REMARK  status: ('A' for Active; 'I' for Inactive)
REMARK    1  A    between atoms: O_3  and  C_26
REMARK    2  A    between atoms: O_3  and  C_28
REMARK    3  A    between atoms: N_6  and  C_18
REMARK    4  A    between atoms: N_7  and  C_19
REMARK    5  A    between atoms: C_8  and  C_14
REMARK    6  A    between atoms: C_9  and  C_13
REMARK    7  A    between atoms: C_13  and  C_15
REMARK    8  A    between atoms: C_14  and  C_17
REMARK    9  A    between atoms: C_19  and  C_23
REMARK   10  A    between atoms: C_22  and  C_26
REMARK   11  A    between atoms: C_28  and  C_29
REMARK                            x       y       z     vdW  Elec       q    Type
REMARK                         _______ _______ _______ _____ _____    ______ ____
ROOT
ATOM      1  O   UNL     1      16.947  10.203  20.718  0.00  0.00    -0.252 OA
ATOM      5  N   UNL     1      14.936  10.065  21.851  0.00  0.00    -0.285 N 
ATOM      6  N   UNL     1      15.784   8.196  20.689  0.00  0.00    -0.269 N 
ATOM      8  C   UNL     1      12.469  11.524  22.253  0.00  0.00    +0.004 C 
ATOM      9  C   UNL     1      12.457  10.027  21.847  0.00  0.00    +0.010 C 
ATOM     10  C   UNL     1      13.765  12.227  21.811  0.00  0.00    +0.023 C 
ATOM     11  C   UNL     1      13.748   9.350  22.339  0.00  0.00    +0.113 C 
ATOM     12  C   UNL     1      15.004  11.464  22.278  0.00  0.00    +0.109 C 
ATOM     16  C   UNL     1      15.974   9.525  21.062  0.00  0.00    +0.306 C 
ATOM     30  H   UNL     1      14.844   7.831  20.661  0.00  0.00    +0.156 HD
ENDROOT
BRANCH   6  18
ATOM     18  C   UNL     1      16.780   7.248  20.346  0.00  0.00    +0.036 A 
ATOM     20  C   UNL     1      17.948   7.168  21.100  0.00  0.00    +0.038 A 
ATOM     21  C   UNL     1      16.585   6.403  19.257  0.00  0.00    +0.023 A 
ATOM     22  C   UNL     1      18.928   6.234  20.761  0.00  0.00    +0.061 A 
ATOM     24  C   UNL     1      17.564   5.469  18.919  0.00  0.00    +0.003 A 
ATOM     25  C   UNL     1      18.735   5.385  19.671  0.00  0.00    +0.015 A 
BRANCH  22  26
ATOM      4  O   UNL     1      20.187   6.083  22.780  0.00  0.00    -0.245 OA
ATOM     26  C   UNL     1      20.150   6.146  21.544  0.00  0.00    +0.339 C 
BRANCH  26   3
ATOM      3  O   UNL     1      21.260   6.141  20.745  0.00  0.00    -0.461 OA
BRANCH   3  28
ATOM     28  C   UNL     1      21.808   7.415  20.389  0.00  0.00    +0.229 C 
ATOM     29  C   UNL     1      22.977   7.721  21.301  0.00  0.00    +0.048 C 
ENDBRANCH   3  28
ENDBRANCH  26   3
ENDBRANCH  22  26
ENDBRANCH   6  18
BRANCH   9  13
ATOM     13  C   UNL     1      12.267   9.789  20.343  0.00  0.00    +0.002 C 
ATOM     15  C   UNL     1      11.161   8.788  20.084  0.00  0.00    +0.004 C 
ENDBRANCH   9  13
BRANCH   8  14
ATOM     14  C   UNL     1      11.244  12.291  21.755  0.00  0.00    +0.099 C 
BRANCH  14  17
ATOM      2  O   UNL     1      11.144  13.319  23.943  0.00  0.00    -0.276 OA
ATOM      7  N   UNL     1       9.648  13.992  22.296  0.00  0.00    -0.304 N 
ATOM     17  C   UNL     1      10.700  13.241  22.801  0.00  0.00    +0.214 C 
ATOM     31  H   UNL     1       9.346  13.849  21.337  0.00  0.00    +0.150 HD
BRANCH   7  19
ATOM     19  C   UNL     1       8.937  14.978  23.076  0.00  0.00    +0.193 C 
BRANCH  19  23
ATOM     23  C   UNL     1       7.590  15.196  22.549  0.00  0.00    -0.087 C 
ATOM     27  C   UNL     1       6.483  15.372  22.118  0.00  0.00    +0.005 C 
ENDBRANCH  19  23
ENDBRANCH   7  19
ENDBRANCH  14  17
ENDBRANCH   8  14
TORSDOF 9
ENDMDL
MODEL 5
REMARK VINA RESULT:      -5.9     28.060     31.486
REMARK  Name = 11912417
REMARK  11 active torsions:
REMARK  status: ('A' for Active; 'I' for Inactive)
REMARK    1  A    between atoms: O_3  and  C_26
REMARK    2  A    between atoms: O_3  and  C_28
REMARK    3  A    between atoms: N_6  and  C_18
REMARK    4  A    between atoms: N_7  and  C_19
REMARK    5  A    between atoms: C_8  and  C_14
REMARK    6  A    between atoms: C_9  and  C_13
REMARK    7  A    between atoms: C_13  and  C_15
REMARK    8  A    between atoms: C_14  and  C_17
REMARK    9  A    between atoms: C_19  and  C_23
REMARK   10  A    between atoms: C_22  and  C_26
REMARK   11  A    between atoms: C_28  and  C_29
REMARK                            x       y       z     vdW  Elec       q    Type
REMARK                         _______ _______ _______ _____ _____    ______ ____
ROOT
ATOM      1  O   UNL     1      -8.739  -8.576  16.774  0.00  0.00    -0.252 OA
ATOM      5  N   UNL     1      -7.337 -10.414  16.759  0.00  0.00    -0.285 N 
ATOM      6  N   UNL     1      -9.076 -10.250  18.344  0.00  0.00    -0.269 N 
ATOM      8  C   UNL     1      -4.536 -11.113  16.569  0.00  0.00    +0.004 C 
ATOM      9  C   UNL     1      -5.427 -11.677  17.708  0.00  0.00    +0.010 C 
ATOM     10  C   UNL     1      -5.079  -9.781  16.024  0.00  0.00    +0.023 C 
ATOM     11  C   UNL     1      -6.890 -11.731  17.236  0.00  0.00    +0.113 C 
ATOM     12  C   UNL     1      -6.554  -9.891  15.639  0.00  0.00    +0.109 C 
ATOM     16  C   UNL     1      -8.426  -9.667  17.258  0.00  0.00    +0.306 C 
ATOM     30  H   UNL     1      -8.567 -10.904  18.919  0.00  0.00    +0.156 HD
ENDROOT
BRANCH   6  18
ATOM     18  C   UNL     1     -10.417 -10.045  18.755  0.00  0.00    +0.036 A 
ATOM     20  C   UNL     1     -11.386  -9.713  17.813  0.00  0.00    +0.038 A 
ATOM     21  C   UNL     1     -10.756 -10.178  20.098  0.00  0.00    +0.023 A 
ATOM     22  C   UNL     1     -12.706  -9.512  18.217  0.00  0.00    +0.061 A 
ATOM     24  C   UNL     1     -12.076  -9.978  20.503  0.00  0.00    +0.003 A 
ATOM     25  C   UNL     1     -13.050  -9.645  19.562  0.00  0.00    +0.015 A 
BRANCH  22  26
ATOM      4  O   UNL     1     -14.935  -9.098  17.480  0.00  0.00    -0.245 OA
ATOM     26  C   UNL     1     -13.722  -9.165  17.238  0.00  0.00    +0.339 C 
BRANCH  26   3
ATOM      3  O   UNL     1     -13.174  -8.920  16.008  0.00  0.00    -0.461 OA
BRANCH   3  28
ATOM     28  C   UNL     1     -13.553  -7.700  15.362  0.00  0.00    +0.229 C 
ATOM     29  C   UNL     1     -12.701  -6.571  15.900  0.00  0.00    +0.048 C 
ENDBRANCH   3  28
ENDBRANCH  26   3
ENDBRANCH  22  26
ENDBRANCH   6  18
BRANCH   9  13
ATOM     13  C   UNL     1      -5.316 -10.904  19.028  0.00  0.00    +0.002 C 
ATOM     15  C   UNL     1      -6.248 -11.475  20.075  0.00  0.00    +0.004 C 
ENDBRANCH   9  13
BRANCH   8  14
ATOM     14  C   UNL     1      -3.067 -10.974  16.969  0.00  0.00    +0.099 C 
BRANCH  14  17
ATOM      2  O   UNL     1      -1.323 -10.143  15.512  0.00  0.00    -0.276 OA
ATOM      7  N   UNL     1      -2.346 -12.174  15.028  0.00  0.00    -0.304 N 
ATOM     17  C   UNL     1      -2.141 -11.021  15.773  0.00  0.00    +0.214 C 
ATOM     31  H   UNL     1      -3.054 -12.840  15.321  0.00  0.00    +0.150 HD
BRANCH   7  19
ATOM     19  C   UNL     1      -1.601 -12.480  13.828  0.00  0.00    +0.193 C 
BRANCH  19  23
ATOM     23  C   UNL     1      -2.105 -11.720  12.685  0.00  0.00    -0.087 C 
ATOM     27  C   UNL     1      -2.522 -11.094  11.749  0.00  0.00    +0.005 C 
ENDBRANCH  19  23
ENDBRANCH   7  19
ENDBRANCH  14  17
ENDBRANCH   8  14
TORSDOF 9
ENDMDL
MODEL 6
REMARK VINA RESULT:      -5.8      2.532     10.540
REMARK  Name = 11912417
REMARK  11 active torsions:
REMARK  status: ('A' for Active; 'I' for Inactive)
REMARK    1  A    between atoms: O_3  and  C_26
REMARK    2  A    between atoms: O_3  and  C_28
REMARK    3  A    between atoms: N_6  and  C_18
REMARK    4  A    between atoms: N_7  and  C_19
REMARK    5  A    between atoms: C_8  and  C_14
REMARK    6  A    between atoms: C_9  and  C_13
REMARK    7  A    between atoms: C_13  and  C_15
REMARK    8  A    between atoms: C_14  and  C_17
REMARK    9  A    between atoms: C_19  and  C_23
REMARK   10  A    between atoms: C_22  and  C_26
REMARK   11  A    between atoms: C_28  and  C_29
REMARK                            x       y       z     vdW  Elec       q    Type
REMARK                         _______ _______ _______ _____ _____    ______ ____
ROOT
ATOM      1  O   UNL     1      14.281   7.684  19.211  0.00  0.00    -0.252 OA
ATOM      5  N   UNL     1      15.901   6.643  20.490  0.00  0.00    -0.285 N 
ATOM      6  N   UNL     1      14.440   8.219  21.463  0.00  0.00    -0.269 N 
ATOM      8  C   UNL     1      18.703   5.923  20.431  0.00  0.00    +0.004 C 
ATOM      9  C   UNL     1      18.098   6.685  21.639  0.00  0.00    +0.010 C 
ATOM     10  C   UNL     1      17.900   6.163  19.141  0.00  0.00    +0.023 C 
ATOM     11  C   UNL     1      16.599   6.359  21.753  0.00  0.00    +0.113 C 
ATOM     12  C   UNL     1      16.411   5.884  19.347  0.00  0.00    +0.109 C 
ATOM     16  C   UNL     1      14.817   7.529  20.312  0.00  0.00    +0.306 C 
ATOM     30  H   UNL     1      15.122   8.347  22.195  0.00  0.00    +0.156 HD
ENDROOT
BRANCH   6  18
ATOM     18  C   UNL     1      13.170   8.773  21.756  0.00  0.00    +0.036 A 
ATOM     20  C   UNL     1      13.032  10.150  21.900  0.00  0.00    +0.038 A 
ATOM     21  C   UNL     1      12.066   7.936  21.897  0.00  0.00    +0.023 A 
ATOM     22  C   UNL     1      11.780  10.695  22.189  0.00  0.00    +0.061 A 
ATOM     24  C   UNL     1      10.815   8.481  22.185  0.00  0.00    +0.003 A 
ATOM     25  C   UNL     1      10.672   9.860  22.330  0.00  0.00    +0.015 A 
BRANCH  22  26
ATOM      4  O   UNL     1      10.962  12.852  21.586  0.00  0.00    -0.245 OA
ATOM     26  C   UNL     1      11.630  12.133  22.342  0.00  0.00    +0.339 C 
BRANCH  26   3
ATOM      3  O   UNL     1      12.322  12.599  23.427  0.00  0.00    -0.461 OA
BRANCH   3  28
ATOM     28  C   UNL     1      11.679  13.600  24.223  0.00  0.00    +0.229 C 
ATOM     29  C   UNL     1      10.632  12.941  25.095  0.00  0.00    +0.048 C 
ENDBRANCH   3  28
ENDBRANCH  26   3
ENDBRANCH  22  26
ENDBRANCH   6  18
BRANCH   9  13
ATOM     13  C   UNL     1      18.315   8.202  21.593  0.00  0.00    +0.002 C 
ATOM     15  C   UNL     1      19.380   8.632  22.579  0.00  0.00    +0.004 C 
ENDBRANCH   9  13
BRANCH   8  14
ATOM     14  C   UNL     1      20.185   6.230  20.209  0.00  0.00    +0.099 C 
BRANCH  14  17
ATOM      2  O   UNL     1      21.603   5.862  22.133  0.00  0.00    -0.276 OA
ATOM      7  N   UNL     1      21.225   4.119  20.643  0.00  0.00    -0.304 N 
ATOM     17  C   UNL     1      21.080   5.415  21.116  0.00  0.00    +0.214 C 
ATOM     31  H   UNL     1      20.758   3.844  19.784  0.00  0.00    +0.150 HD
BRANCH   7  19
ATOM     19  C   UNL     1      22.029   3.121  21.310  0.00  0.00    +0.193 C 
BRANCH  19  23
ATOM     23  C   UNL     1      23.393   3.102  20.782  0.00  0.00    -0.087 C 
ATOM     27  C   UNL     1      24.513   3.086  20.352  0.00  0.00    +0.005 C 
ENDBRANCH  19  23
ENDBRANCH   7  19
ENDBRANCH  14  17
ENDBRANCH   8  14
TORSDOF 9
ENDMDL
MODEL 7
REMARK VINA RESULT:      -5.8     18.457     21.484
REMARK  Name = 11912417
REMARK  11 active torsions:
REMARK  status: ('A' for Active; 'I' for Inactive)
REMARK    1  A    between atoms: O_3  and  C_26
REMARK    2  A    between atoms: O_3  and  C_28
REMARK    3  A    between atoms: N_6  and  C_18
REMARK    4  A    between atoms: N_7  and  C_19
REMARK    5  A    between atoms: C_8  and  C_14
REMARK    6  A    between atoms: C_9  and  C_13
REMARK    7  A    between atoms: C_13  and  C_15
REMARK    8  A    between atoms: C_14  and  C_17
REMARK    9  A    between atoms: C_19  and  C_23
REMARK   10  A    between atoms: C_22  and  C_26
REMARK   11  A    between atoms: C_28  and  C_29
REMARK                            x       y       z     vdW  Elec       q    Type
REMARK                         _______ _______ _______ _____ _____    ______ ____
ROOT
ATOM      1  O   UNL     1      10.848   7.410   2.214  0.00  0.00    -0.252 OA
ATOM      5  N   UNL     1      11.222   5.184   1.710  0.00  0.00    -0.285 N 
ATOM      6  N   UNL     1      12.148   6.141   3.657  0.00  0.00    -0.269 N 
ATOM      8  C   UNL     1      11.941   3.461  -0.501  0.00  0.00    +0.004 C 
ATOM      9  C   UNL     1      12.696   3.385   0.853  0.00  0.00    +0.010 C 
ATOM     10  C   UNL     1      11.302   4.843  -0.723  0.00  0.00    +0.023 C 
ATOM     11  C   UNL     1      11.766   3.846   1.987  0.00  0.00    +0.113 C 
ATOM     12  C   UNL     1      10.446   5.265   0.471  0.00  0.00    +0.109 C 
ATOM     16  C   UNL     1      11.363   6.331   2.521  0.00  0.00    +0.306 C 
ATOM     30  H   UNL     1      12.831   5.400   3.655  0.00  0.00    +0.156 HD
ENDROOT
BRANCH   6  18
ATOM     18  C   UNL     1      12.100   6.876   4.867  0.00  0.00    +0.036 A 
ATOM     20  C   UNL     1      10.924   6.906   5.612  0.00  0.00    +0.038 A 
ATOM     21  C   UNL     1      13.229   7.562   5.305  0.00  0.00    +0.023 A 
ATOM     22  C   UNL     1      10.878   7.630   6.804  0.00  0.00    +0.061 A 
ATOM     24  C   UNL     1      13.183   8.284   6.498  0.00  0.00    +0.003 A 
ATOM     25  C   UNL     1      12.007   8.318   7.247  0.00  0.00    +0.015 A 
BRANCH  22  26
ATOM      4  O   UNL     1       9.170   8.691   8.087  0.00  0.00    -0.245 OA
ATOM     26  C   UNL     1       9.652   7.665   7.586  0.00  0.00    +0.339 C 
BRANCH  26   3
ATOM      3  O   UNL     1       9.093   6.422   7.702  0.00  0.00    -0.461 OA
BRANCH   3  28
ATOM     28  C   UNL     1       9.492   5.635   8.829  0.00  0.00    +0.229 C 
ATOM     29  C   UNL     1       9.778   4.222   8.369  0.00  0.00    +0.048 C 
ENDBRANCH   3  28
ENDBRANCH  26   3
ENDBRANCH  22  26
ENDBRANCH   6  18
BRANCH   9  13
ATOM     13  C   UNL     1      14.009   4.178   0.880  0.00  0.00    +0.002 C 
ATOM     15  C   UNL     1      15.048   3.485   1.736  0.00  0.00    +0.004 C 
ENDBRANCH   9  13
BRANCH   8  14
ATOM     14  C   UNL     1      12.810   3.070  -1.696  0.00  0.00    +0.099 C 
BRANCH  14  17
ATOM      2  O   UNL     1      12.456   2.863  -4.080  0.00  0.00    -0.276 OA
ATOM      7  N   UNL     1      10.663   2.569  -2.629  0.00  0.00    -0.304 N 
ATOM     17  C   UNL     1      11.989   2.828  -2.945  0.00  0.00    +0.214 C 
ATOM     31  H   UNL     1      10.370   2.570  -1.657  0.00  0.00    +0.150 HD
BRANCH   7  19
ATOM     19  C   UNL     1       9.653   2.304  -3.627  0.00  0.00    +0.193 C 
BRANCH  19  23
ATOM     23  C   UNL     1       9.057   3.546  -4.118  0.00  0.00    -0.087 C 
ATOM     27  C   UNL     1       8.570   4.566  -4.524  0.00  0.00    +0.005 C 
ENDBRANCH  19  23
ENDBRANCH   7  19
ENDBRANCH  14  17
ENDBRANCH   8  14
TORSDOF 9
ENDMDL
MODEL 8
REMARK VINA RESULT:      -5.8     28.344     30.166
REMARK  Name = 11912417
REMARK  11 active torsions:
REMARK  status: ('A' for Active; 'I' for Inactive)
REMARK    1  A    between atoms: O_3  and  C_26
REMARK    2  A    between atoms: O_3  and  C_28
REMARK    3  A    between atoms: N_6  and  C_18
REMARK    4  A    between atoms: N_7  and  C_19
REMARK    5  A    between atoms: C_8  and  C_14
REMARK    6  A    between atoms: C_9  and  C_13
REMARK    7  A    between atoms: C_13  and  C_15
REMARK    8  A    between atoms: C_14  and  C_17
REMARK    9  A    between atoms: C_19  and  C_23
REMARK   10  A    between atoms: C_22  and  C_26
REMARK   11  A    between atoms: C_28  and  C_29
REMARK                            x       y       z     vdW  Elec       q    Type
REMARK                         _______ _______ _______ _____ _____    ______ ____
ROOT
ATOM      1  O   UNL     1      -2.895 -10.293  13.781  0.00  0.00    -0.252 OA
ATOM      5  N   UNL     1      -4.539 -11.286  15.069  0.00  0.00    -0.285 N 
ATOM      6  N   UNL     1      -5.067 -10.355  12.967  0.00  0.00    -0.269 N 
ATOM      8  C   UNL     1      -5.523 -11.383  17.788  0.00  0.00    +0.004 C 
ATOM      9  C   UNL     1      -6.481 -11.108  16.599  0.00  0.00    +0.010 C 
ATOM     10  C   UNL     1      -4.075 -10.976  17.463  0.00  0.00    +0.023 C 
ATOM     11  C   UNL     1      -5.912 -11.748  15.322  0.00  0.00    +0.113 C 
ATOM     12  C   UNL     1      -3.600 -11.595  16.149  0.00  0.00    +0.109 C 
ATOM     16  C   UNL     1      -4.078 -10.623  13.911  0.00  0.00    +0.306 C 
ATOM     30  H   UNL     1      -6.025 -10.290  13.275  0.00  0.00    +0.156 HD
ENDROOT
BRANCH   6  18
ATOM     18  C   UNL     1      -4.896 -10.167  11.573  0.00  0.00    +0.036 A 
ATOM     20  C   UNL     1      -4.684 -11.267  10.747  0.00  0.00    +0.038 A 
ATOM     21  C   UNL     1      -4.942  -8.883  11.037  0.00  0.00    +0.023 A 
ATOM     22  C   UNL     1      -4.517 -11.081   9.375  0.00  0.00    +0.061 A 
ATOM     24  C   UNL     1      -4.775  -8.697   9.665  0.00  0.00    +0.003 A 
ATOM     25  C   UNL     1      -4.563  -9.796   8.834  0.00  0.00    +0.015 A 
BRANCH  22  26
ATOM      4  O   UNL     1      -4.248 -13.402   8.896  0.00  0.00    -0.245 OA
ATOM     26  C   UNL     1      -4.295 -12.227   8.507  0.00  0.00    +0.339 C 
BRANCH  26   3
ATOM      3  O   UNL     1      -4.141 -11.847   7.201  0.00  0.00    -0.461 OA
BRANCH   3  28
ATOM     28  C   UNL     1      -4.072 -12.893   6.226  0.00  0.00    +0.229 C 
ATOM     29  C   UNL     1      -3.911 -12.278   4.853  0.00  0.00    +0.048 C 
ENDBRANCH   3  28
ENDBRANCH  26   3
ENDBRANCH  22  26
ENDBRANCH   6  18
BRANCH   9  13
ATOM     13  C   UNL     1      -6.778  -9.621  16.367  0.00  0.00    +0.002 C 
ATOM     15  C   UNL     1      -8.171  -9.423  15.808  0.00  0.00    +0.004 C 
ENDBRANCH   9  13
BRANCH   8  14
ATOM     14  C   UNL     1      -5.985 -10.735  19.093  0.00  0.00    +0.099 C 
BRANCH  14  17
ATOM      2  O   UNL     1      -7.404 -12.424  20.086  0.00  0.00    -0.276 OA
ATOM      7  N   UNL     1      -8.338 -10.413  19.388  0.00  0.00    -0.304 N 
ATOM     17  C   UNL     1      -7.297 -11.308  19.584  0.00  0.00    +0.214 C 
ATOM     31  H   UNL     1      -8.151  -9.513  18.956  0.00  0.00    +0.150 HD
BRANCH   7  19
ATOM     19  C   UNL     1      -9.705 -10.699  19.761  0.00  0.00    +0.193 C 
BRANCH  19  23
ATOM     23  C   UNL     1     -10.647  -9.968  18.914  0.00  0.00    -0.087 C 
ATOM     27  C   UNL     1     -11.418  -9.369  18.216  0.00  0.00    +0.005 C 
ENDBRANCH  19  23
ENDBRANCH   7  19
ENDBRANCH  14  17
ENDBRANCH   8  14
TORSDOF 9
ENDMDL
MODEL 9
REMARK VINA RESULT:      -5.7     28.006     30.791
REMARK  Name = 11912417
REMARK  11 active torsions:
REMARK  status: ('A' for Active; 'I' for Inactive)
REMARK    1  A    between atoms: O_3  and  C_26
REMARK    2  A    between atoms: O_3  and  C_28
REMARK    3  A    between atoms: N_6  and  C_18
REMARK    4  A    between atoms: N_7  and  C_19
REMARK    5  A    between atoms: C_8  and  C_14
REMARK    6  A    between atoms: C_9  and  C_13
REMARK    7  A    between atoms: C_13  and  C_15
REMARK    8  A    between atoms: C_14  and  C_17
REMARK    9  A    between atoms: C_19  and  C_23
REMARK   10  A    between atoms: C_22  and  C_26
REMARK   11  A    between atoms: C_28  and  C_29
REMARK                            x       y       z     vdW  Elec       q    Type
REMARK                         _______ _______ _______ _____ _____    ______ ____
ROOT
ATOM      1  O   UNL     1      -4.620 -12.786  12.244  0.00  0.00    -0.252 OA
ATOM      5  N   UNL     1      -4.007 -11.446  10.463  0.00  0.00    -0.285 N 
ATOM      6  N   UNL     1      -3.891 -10.626  12.671  0.00  0.00    -0.269 N 
ATOM      8  C   UNL     1      -4.892 -10.659   7.823  0.00  0.00    +0.004 C 
ATOM      9  C   UNL     1      -4.498  -9.598   8.885  0.00  0.00    +0.010 C 
ATOM     10  C   UNL     1      -5.347 -11.978   8.472  0.00  0.00    +0.023 C 
ATOM     11  C   UNL     1      -3.483 -10.208   9.868  0.00  0.00    +0.113 C 
ATOM     12  C   UNL     1      -4.322 -12.488   9.484  0.00  0.00    +0.109 C 
ATOM     16  C   UNL     1      -4.194 -11.701  11.838  0.00  0.00    +0.306 C 
ATOM     30  H   UNL     1      -3.927  -9.693  12.290  0.00  0.00    +0.156 HD
ENDROOT
BRANCH   6  18
ATOM     18  C   UNL     1      -3.509 -10.676  14.035  0.00  0.00    +0.036 A 
ATOM     20  C   UNL     1      -4.484 -10.753  15.025  0.00  0.00    +0.038 A 
ATOM     21  C   UNL     1      -2.159 -10.647  14.376  0.00  0.00    +0.023 A 
ATOM     22  C   UNL     1      -4.107 -10.802  16.367  0.00  0.00    +0.061 A 
ATOM     24  C   UNL     1      -1.782 -10.697  15.718  0.00  0.00    +0.003 A 
ATOM     25  C   UNL     1      -2.756 -10.774  16.713  0.00  0.00    +0.015 A 
BRANCH  22  26
ATOM      4  O   UNL     1      -4.899 -10.740  18.615  0.00  0.00    -0.245 OA
ATOM     26  C   UNL     1      -5.122 -10.882  17.405  0.00  0.00    +0.339 C 
BRANCH  26   3
ATOM      3  O   UNL     1      -6.360 -11.137  16.880  0.00  0.00    -0.461 OA
BRANCH   3  28
ATOM     28  C   UNL     1      -7.485 -10.610  17.592  0.00  0.00    +0.229 C 
ATOM     29  C   UNL     1      -7.806  -9.232  17.057  0.00  0.00    +0.048 C 
ENDBRANCH   3  28
ENDBRANCH  26   3
ENDBRANCH  22  26
ENDBRANCH   6  18
BRANCH   9  13
ATOM     13  C   UNL     1      -5.690  -9.003   9.645  0.00  0.00    +0.002 C 
ATOM     15  C   UNL     1      -5.228  -8.031  10.710  0.00  0.00    +0.004 C 
ENDBRANCH   9  13
BRANCH   8  14
ATOM     14  C   UNL     1      -5.942 -10.155   6.832  0.00  0.00    +0.099 C 
BRANCH  14  17
ATOM      2  O   UNL     1      -7.316 -11.679   5.552  0.00  0.00    -0.276 OA
ATOM      7  N   UNL     1      -5.080 -11.398   4.977  0.00  0.00    -0.304 N 
ATOM     17  C   UNL     1      -6.219 -11.157   5.733  0.00  0.00    +0.214 C 
ATOM     31  H   UNL     1      -4.214 -10.922   5.211  0.00  0.00    +0.150 HD
BRANCH   7  19
ATOM     19  C   UNL     1      -5.054 -12.315   3.861  0.00  0.00    +0.193 C 
BRANCH  19  23
ATOM     23  C   UNL     1      -3.688 -12.521   3.380  0.00  0.00    -0.087 C 
ATOM     27  C   UNL     1      -2.566 -12.688   2.986  0.00  0.00    +0.005 C 
ENDBRANCH  19  23
ENDBRANCH   7  19
ENDBRANCH  14  17
ENDBRANCH   8  14
TORSDOF 9
ENDMDL
MODEL 10
REMARK VINA RESULT:      -5.7      4.844     11.026
REMARK  Name = 11912417
REMARK  11 active torsions:
REMARK  status: ('A' for Active; 'I' for Inactive)
REMARK    1  A    between atoms: O_3  and  C_26
REMARK    2  A    between atoms: O_3  and  C_28
REMARK    3  A    between atoms: N_6  and  C_18
REMARK    4  A    between atoms: N_7  and  C_19
REMARK    5  A    between atoms: C_8  and  C_14
REMARK    6  A    between atoms: C_9  and  C_13
REMARK    7  A    between atoms: C_13  and  C_15
REMARK    8  A    between atoms: C_14  and  C_17
REMARK    9  A    between atoms: C_19  and  C_23
REMARK   10  A    between atoms: C_22  and  C_26
REMARK   11  A    between atoms: C_28  and  C_29
REMARK                            x       y       z     vdW  Elec       q    Type
REMARK                         _______ _______ _______ _____ _____    ______ ____
ROOT
ATOM      1  O   UNL     1      17.645   5.675  19.182  0.00  0.00    -0.252 OA
ATOM      5  N   UNL     1      19.124   6.023  20.925  0.00  0.00    -0.285 N 
ATOM      6  N   UNL     1      17.142   7.292  20.767  0.00  0.00    -0.269 N 
ATOM      8  C   UNL     1      21.951   6.339  21.456  0.00  0.00    +0.004 C 
ATOM      9  C   UNL     1      20.915   7.359  21.999  0.00  0.00    +0.010 C 
ATOM     10  C   UNL     1      21.437   5.615  20.199  0.00  0.00    +0.023 C 
ATOM     11  C   UNL     1      19.554   6.664  22.176  0.00  0.00    +0.113 C 
ATOM     12  C   UNL     1      20.053   5.007  20.428  0.00  0.00    +0.109 C 
ATOM     16  C   UNL     1      17.931   6.283  20.217  0.00  0.00    +0.306 C 
ATOM     30  H   UNL     1      17.582   7.988  21.349  0.00  0.00    +0.156 HD
ENDROOT
BRANCH   6  18
ATOM     18  C   UNL     1      15.743   7.465  20.622  0.00  0.00    +0.036 A 
ATOM     20  C   UNL     1      15.180   7.519  19.350  0.00  0.00    +0.038 A 
ATOM     21  C   UNL     1      14.939   7.579  21.753  0.00  0.00    +0.023 A 
ATOM     22  C   UNL     1      13.803   7.689  19.208  0.00  0.00    +0.061 A 
ATOM     24  C   UNL     1      13.562   7.748  21.611  0.00  0.00    +0.003 A 
ATOM     25  C   UNL     1      12.994   7.803  20.338  0.00  0.00    +0.015 A 
BRANCH  22  26
ATOM      4  O   UNL     1      12.158   7.179  17.559  0.00  0.00    -0.245 OA
ATOM     26  C   UNL     1      13.210   7.747  17.881  0.00  0.00    +0.339 C 
BRANCH  26   3
ATOM      3  O   UNL     1      13.961   8.508  17.027  0.00  0.00    -0.461 OA
BRANCH   3  28
ATOM     28  C   UNL     1      13.528   9.855  16.810  0.00  0.00    +0.229 C 
ATOM     29  C   UNL     1      14.740  10.733  16.584  0.00  0.00    +0.048 C 
ENDBRANCH   3  28
ENDBRANCH  26   3
ENDBRANCH  22  26
ENDBRANCH   6  18
BRANCH   9  13
ATOM     13  C   UNL     1      20.766   8.617  21.135  0.00  0.00    +0.002 C 
ATOM     15  C   UNL     1      19.767   9.581  21.741  0.00  0.00    +0.004 C 
ENDBRANCH   9  13
BRANCH   8  14
ATOM     14  C   UNL     1      23.324   6.958  21.197  0.00  0.00    +0.099 C 
BRANCH  14  17
ATOM      2  O   UNL     1      25.153   5.905  20.015  0.00  0.00    -0.276 OA
ATOM      7  N   UNL     1      24.390   4.973  22.003  0.00  0.00    -0.304 N 
ATOM     17  C   UNL     1      24.393   5.909  20.979  0.00  0.00    +0.214 C 
ATOM     31  H   UNL     1      23.715   5.057  22.757  0.00  0.00    +0.150 HD
BRANCH   7  19
ATOM     19  C   UNL     1      25.305   3.855  22.052  0.00  0.00    +0.193 C 
BRANCH  19  23
ATOM     23  C   UNL     1      24.709   2.660  21.455  0.00  0.00    -0.087 C 
ATOM     27  C   UNL     1      24.222   1.680  20.961  0.00  0.00    +0.005 C 
ENDBRANCH  19  23
ENDBRANCH   7  19
ENDBRANCH  14  17
ENDBRANCH   8  14
TORSDOF 9
ENDMDL
