MODEL 1
REMARK VINA RESULT:      -6.7      0.000      0.000
REMARK  Name = 75536748
REMARK  5 active torsions:
REMARK  status: ('A' for Active; 'I' for Inactive)
REMARK    1  A    between atoms: O_2  and  C_10
REMARK    2  A    between atoms: N_5  and  C_9
REMARK    3  A    between atoms: N_5  and  C_11
REMARK    4  A    between atoms: N_7  and  C_16
REMARK    5  A    between atoms: C_12  and  C_16
REMARK                            x       y       z     vdW  Elec       q    Type
REMARK                         _______ _______ _______ _____ _____    ______ ____
ROOT
ATOM      1  O   UNL     1      13.105   7.927  21.903  0.00  0.00    -0.371 OA
ATOM      9  C   UNL     1      11.145   8.974  22.744  0.00  0.00    +0.111 C 
ATOM     10  C   UNL     1      10.751   7.966  21.681  0.00  0.00    +0.164 C 
ATOM     12  C   UNL     1      11.980   7.067  21.658  0.00  0.00    +0.165 C 
ATOM     13  C   UNL     1      12.621   9.172  22.437  0.00  0.00    +0.181 C 
ENDROOT
BRANCH  10   2
ATOM      2  O   UNL     1       9.580   7.247  22.018  0.00  0.00    -0.388 OA
ATOM     26  H   UNL     1       9.838   6.469  22.539  0.00  0.00    +0.210 HD
ENDBRANCH  10   2
BRANCH   9   5
ATOM      5  N   UNL     1      10.384  10.211  22.685  0.00  0.00    -0.306 NA
ATOM     24  H   UNL     1       9.568  10.149  23.293  0.00  0.00    +0.123 HD
BRANCH   5  11
ATOM      6  N   UNL     1      11.406  14.170  23.863  0.00  0.00    -0.316 NA
ATOM     11  C   UNL     1      11.207  11.353  23.078  0.00  0.00    +0.056 C 
ATOM     14  C   UNL     1      11.044  12.495  22.069  0.00  0.00    +0.034 C 
ATOM     15  C   UNL     1      10.839  11.837  24.486  0.00  0.00    +0.034 C 
ATOM     17  C   UNL     1      11.814  13.737  22.523  0.00  0.00    +0.082 C 
ATOM     18  C   UNL     1      11.616  13.104  24.845  0.00  0.00    +0.082 C 
ATOM     25  H   UNL     1      11.953  14.988  24.132  0.00  0.00    +0.122 HD
ENDBRANCH   5  11
ENDBRANCH   9   5
BRANCH  12  16
ATOM     16  C   UNL     1      12.168   6.340  20.338  0.00  0.00    +0.140 C 
BRANCH  16   7
ATOM      3  O   UNL     1      12.925   9.893  15.048  0.00  0.00    -0.377 OA
ATOM      4  O   UNL     1      14.431   7.411  19.054  0.00  0.00    -0.253 OA
ATOM      7  N   UNL     1      12.148   7.256  19.220  0.00  0.00    -0.297 N 
ATOM      8  N   UNL     1      13.133   8.629  17.568  0.00  0.00    -0.281 N 
ATOM     19  C   UNL     1      13.314   7.740  18.641  0.00  0.00    +0.302 C 
ATOM     20  C   UNL     1      11.851   9.188  17.113  0.00  0.00    +0.137 C 
ATOM     21  C   UNL     1      14.308   9.195  16.901  0.00  0.00    +0.137 C 
ATOM     22  C   UNL     1      11.785   9.224  15.590  0.00  0.00    +0.179 C 
ATOM     23  C   UNL     1      14.128   9.204  15.392  0.00  0.00    +0.179 C 
ATOM     27  H   UNL     1      11.235   7.538  18.896  0.00  0.00    +0.150 HD
ENDBRANCH  16   7
ENDBRANCH  12  16
TORSDOF 5
ENDMDL
MODEL 2
REMARK VINA RESULT:      -6.5      2.945      6.694
REMARK  Name = 75536748
REMARK  5 active torsions:
REMARK  status: ('A' for Active; 'I' for Inactive)
REMARK    1  A    between atoms: O_2  and  C_10
REMARK    2  A    between atoms: N_5  and  C_9
REMARK    3  A    between atoms: N_5  and  C_11
REMARK    4  A    between atoms: N_7  and  C_16
REMARK    5  A    between atoms: C_12  and  C_16
REMARK                            x       y       z     vdW  Elec       q    Type
REMARK                         _______ _______ _______ _____ _____    ______ ____
ROOT
ATOM      1  O   UNL     1      10.868   8.810  20.156  0.00  0.00    -0.371 OA
ATOM      9  C   UNL     1      12.448   7.180  19.456  0.00  0.00    +0.111 C 
ATOM     10  C   UNL     1      12.312   7.121  20.966  0.00  0.00    +0.164 C 
ATOM     12  C   UNL     1      10.959   7.791  21.166  0.00  0.00    +0.165 C 
ATOM     13  C   UNL     1      11.868   8.553  19.156  0.00  0.00    +0.181 C 
ENDROOT
BRANCH  10   2
ATOM      2  O   UNL     1      12.323   5.797  21.464  0.00  0.00    -0.388 OA
ATOM     26  H   UNL     1      13.229   5.454  21.400  0.00  0.00    +0.210 HD
ENDBRANCH  10   2
BRANCH   9   5
ATOM      5  N   UNL     1      13.815   7.027  18.987  0.00  0.00    -0.306 NA
ATOM     24  H   UNL     1      13.960   7.583  18.145  0.00  0.00    +0.123 HD
BRANCH   5  11
ATOM      6  N   UNL     1      17.514   8.128  20.778  0.00  0.00    -0.316 NA
ATOM     11  C   UNL     1      14.772   7.430  20.015  0.00  0.00    +0.056 C 
ATOM     14  C   UNL     1      15.873   6.374  20.157  0.00  0.00    +0.034 C 
ATOM     15  C   UNL     1      15.389   8.795  19.687  0.00  0.00    +0.034 C 
ATOM     17  C   UNL     1      16.941   6.832  21.152  0.00  0.00    +0.082 C 
ATOM     18  C   UNL     1      16.475   9.158  20.700  0.00  0.00    +0.082 C 
ATOM     25  H   UNL     1      18.208   8.402  21.474  0.00  0.00    +0.122 HD
ENDBRANCH   5  11
ENDBRANCH   9   5
BRANCH  12  16
ATOM     16  C   UNL     1      10.794   8.415  22.541  0.00  0.00    +0.140 C 
BRANCH  16   7
ATOM      3  O   UNL     1      14.845  12.956  24.579  0.00  0.00    -0.377 OA
ATOM      4  O   UNL     1      10.411  11.008  23.563  0.00  0.00    -0.253 OA
ATOM      7  N   UNL     1      11.839   9.374  22.816  0.00  0.00    -0.297 N 
ATOM      8  N   UNL     1      12.685  11.462  23.532  0.00  0.00    -0.281 N 
ATOM     19  C   UNL     1      11.566  10.639  23.323  0.00  0.00    +0.302 C 
ATOM     20  C   UNL     1      14.069  11.161  23.133  0.00  0.00    +0.137 C 
ATOM     21  C   UNL     1      12.490  12.815  24.057  0.00  0.00    +0.137 C 
ATOM     22  C   UNL     1      15.051  11.590  24.218  0.00  0.00    +0.179 C 
ATOM     23  C   UNL     1      13.533  13.147  25.112  0.00  0.00    +0.179 C 
ATOM     27  H   UNL     1      12.779   9.078  22.602  0.00  0.00    +0.150 HD
ENDBRANCH  16   7
ENDBRANCH  12  16
TORSDOF 5
ENDMDL
MODEL 3
REMARK VINA RESULT:      -6.5      5.547      8.189
REMARK  Name = 75536748
REMARK  5 active torsions:
REMARK  status: ('A' for Active; 'I' for Inactive)
REMARK    1  A    between atoms: O_2  and  C_10
REMARK    2  A    between atoms: N_5  and  C_9
REMARK    3  A    between atoms: N_5  and  C_11
REMARK    4  A    between atoms: N_7  and  C_16
REMARK    5  A    between atoms: C_12  and  C_16
REMARK                            x       y       z     vdW  Elec       q    Type
REMARK                         _______ _______ _______ _____ _____    ______ ____
ROOT
ATOM      1  O   UNL     1      16.834   5.619  18.785  0.00  0.00    -0.371 OA
ATOM      9  C   UNL     1      18.002   6.422  20.691  0.00  0.00    +0.111 C 
ATOM     10  C   UNL     1      16.789   7.300  20.448  0.00  0.00    +0.164 C 
ATOM     12  C   UNL     1      15.924   6.378  19.598  0.00  0.00    +0.165 C 
ATOM     13  C   UNL     1      18.154   5.740  19.341  0.00  0.00    +0.181 C 
ENDROOT
BRANCH  10   2
ATOM      2  O   UNL     1      16.138   7.677  21.645  0.00  0.00    -0.388 OA
ATOM     26  H   UNL     1      15.792   8.579  21.535  0.00  0.00    +0.210 HD
ENDBRANCH  10   2
BRANCH   9   5
ATOM      5  N   UNL     1      19.188   7.163  21.089  0.00  0.00    -0.306 NA
ATOM     24  H   UNL     1      19.037   7.606  21.994  0.00  0.00    +0.123 HD
BRANCH   5  11
ATOM      6  N   UNL     1      23.126   5.833  21.998  0.00  0.00    -0.316 NA
ATOM     11  C   UNL     1      20.356   6.288  21.155  0.00  0.00    +0.056 C 
ATOM     14  C   UNL     1      21.544   6.934  20.435  0.00  0.00    +0.034 C 
ATOM     15  C   UNL     1      20.726   5.975  22.610  0.00  0.00    +0.034 C 
ATOM     17  C   UNL     1      22.804   6.080  20.589  0.00  0.00    +0.082 C 
ATOM     18  C   UNL     1      22.018   5.159  22.679  0.00  0.00    +0.082 C 
ATOM     25  H   UNL     1      23.961   5.249  22.054  0.00  0.00    +0.122 HD
ENDBRANCH   5  11
ENDBRANCH   9   5
BRANCH  12  16
ATOM     16  C   UNL     1      14.942   7.123  18.712  0.00  0.00    +0.140 C 
BRANCH  16   7
ATOM      3  O   UNL     1      10.790  10.105  22.593  0.00  0.00    -0.377 OA
ATOM      4  O   UNL     1      12.315   6.531  19.528  0.00  0.00    -0.253 OA
ATOM      7  N   UNL     1      14.084   7.993  19.485  0.00  0.00    -0.297 N 
ATOM      8  N   UNL     1      12.080   8.578  20.593  0.00  0.00    -0.281 N 
ATOM     19  C   UNL     1      12.794   7.624  19.849  0.00  0.00    +0.302 C 
ATOM     20  C   UNL     1      12.515   9.952  20.886  0.00  0.00    +0.137 C 
ATOM     21  C   UNL     1      10.710   8.277  21.014  0.00  0.00    +0.137 C 
ATOM     22  C   UNL     1      12.173  10.336  22.321  0.00  0.00    +0.179 C 
ATOM     23  C   UNL     1      10.470   8.720  22.448  0.00  0.00    +0.179 C 
ATOM     27  H   UNL     1      14.470   8.892  19.730  0.00  0.00    +0.150 HD
ENDBRANCH  16   7
ENDBRANCH  12  16
TORSDOF 5
ENDMDL
MODEL 4
REMARK VINA RESULT:      -6.2     25.459     27.113
REMARK  Name = 75536748
REMARK  5 active torsions:
REMARK  status: ('A' for Active; 'I' for Inactive)
REMARK    1  A    between atoms: O_2  and  C_10
REMARK    2  A    between atoms: N_5  and  C_9
REMARK    3  A    between atoms: N_5  and  C_11
REMARK    4  A    between atoms: N_7  and  C_16
REMARK    5  A    between atoms: C_12  and  C_16
REMARK                            x       y       z     vdW  Elec       q    Type
REMARK                         _______ _______ _______ _____ _____    ______ ____
ROOT
ATOM      1  O   UNL     1      -1.354 -11.338  15.232  0.00  0.00    -0.371 OA
ATOM      9  C   UNL     1      -3.518 -11.038  16.164  0.00  0.00    +0.111 C 
ATOM     10  C   UNL     1      -3.647 -11.234  14.666  0.00  0.00    +0.164 C 
ATOM     12  C   UNL     1      -2.324 -11.915  14.343  0.00  0.00    +0.165 C 
ATOM     13  C   UNL     1      -2.050 -10.661  16.292  0.00  0.00    +0.181 C 
ENDROOT
BRANCH  10   2
ATOM      2  O   UNL     1      -4.755 -12.041  14.315  0.00  0.00    -0.388 OA
ATOM     26  H   UNL     1      -5.411 -11.987  15.029  0.00  0.00    +0.210 HD
ENDBRANCH  10   2
BRANCH   9   5
ATOM      5  N   UNL     1      -4.411 -10.024  16.700  0.00  0.00    -0.306 NA
ATOM     24  H   UNL     1      -4.778  -9.446  15.944  0.00  0.00    +0.123 HD
BRANCH   5  11
ATOM      6  N   UNL     1      -7.478 -10.502  19.610  0.00  0.00    -0.316 NA
ATOM     11  C   UNL     1      -5.516 -10.633  17.437  0.00  0.00    +0.056 C 
ATOM     14  C   UNL     1      -5.124 -10.842  18.903  0.00  0.00    +0.034 C 
ATOM     15  C   UNL     1      -6.779  -9.769  17.346  0.00  0.00    +0.034 C 
ATOM     17  C   UNL     1      -6.307 -11.378  19.712  0.00  0.00    +0.082 C 
ATOM     18  C   UNL     1      -7.897 -10.347  18.215  0.00  0.00    +0.082 C 
ATOM     25  H   UNL     1      -8.246 -10.904  20.149  0.00  0.00    +0.122 HD
ENDBRANCH   5  11
ENDBRANCH   9   5
BRANCH  12  16
ATOM     16  C   UNL     1      -1.883 -11.718  12.903  0.00  0.00    +0.140 C 
BRANCH  16   7
ATOM      3  O   UNL     1      -6.163 -10.306   8.335  0.00  0.00    -0.377 OA
ATOM      4  O   UNL     1      -2.034  -9.665  10.985  0.00  0.00    -0.253 OA
ATOM      7  N   UNL     1      -3.009 -11.458  12.034  0.00  0.00    -0.297 N 
ATOM      8  N   UNL     1      -4.174 -10.289  10.343  0.00  0.00    -0.281 N 
ATOM     19  C   UNL     1      -3.004 -10.420  11.111  0.00  0.00    +0.302 C 
ATOM     20  C   UNL     1      -5.423 -11.042  10.531  0.00  0.00    +0.137 C 
ATOM     21  C   UNL     1      -4.260  -9.217   9.349  0.00  0.00    +0.137 C 
ATOM     22  C   UNL     1      -6.022 -11.443   9.187  0.00  0.00    +0.179 C 
ATOM     23  C   UNL     1      -4.891  -9.717   8.060  0.00  0.00    +0.179 C 
ATOM     27  H   UNL     1      -3.807 -12.064  12.151  0.00  0.00    +0.150 HD
ENDBRANCH  16   7
ENDBRANCH  12  16
TORSDOF 5
ENDMDL
MODEL 5
REMARK VINA RESULT:      -6.1     27.889     29.207
REMARK  Name = 75536748
REMARK  5 active torsions:
REMARK  status: ('A' for Active; 'I' for Inactive)
REMARK    1  A    between atoms: O_2  and  C_10
REMARK    2  A    between atoms: N_5  and  C_9
REMARK    3  A    between atoms: N_5  and  C_11
REMARK    4  A    between atoms: N_7  and  C_16
REMARK    5  A    between atoms: C_12  and  C_16
REMARK                            x       y       z     vdW  Elec       q    Type
REMARK                         _______ _______ _______ _____ _____    ______ ____
ROOT
ATOM      1  O   UNL     1     -12.357  -7.688  14.257  0.00  0.00    -0.371 OA
ATOM      9  C   UNL     1     -10.653  -7.924  15.895  0.00  0.00    +0.111 C 
ATOM     10  C   UNL     1     -10.987  -6.453  15.736  0.00  0.00    +0.164 C 
ATOM     12  C   UNL     1     -12.373  -6.532  15.109  0.00  0.00    +0.165 C 
ATOM     13  C   UNL     1     -11.225  -8.502  14.611  0.00  0.00    +0.181 C 
ENDROOT
BRANCH  10   2
ATOM      2  O   UNL     1     -11.006  -5.760  16.970  0.00  0.00    -0.388 OA
ATOM     26  H   UNL     1     -10.944  -6.412  17.687  0.00  0.00    +0.210 HD
ENDBRANCH  10   2
BRANCH   9   5
ATOM      5  N   UNL     1      -9.232  -8.186  16.050  0.00  0.00    -0.306 NA
ATOM     24  H   UNL     1      -8.767  -7.371  16.449  0.00  0.00    +0.123 HD
BRANCH   5  11
ATOM      6  N   UNL     1      -8.363 -10.471  19.533  0.00  0.00    -0.316 NA
ATOM     11  C   UNL     1      -9.002  -9.352  16.901  0.00  0.00    +0.056 C 
ATOM     14  C   UNL     1      -7.585  -9.313  17.481  0.00  0.00    +0.034 C 
ATOM     15  C   UNL     1     -10.034  -9.418  18.033  0.00  0.00    +0.034 C 
ATOM     17  C   UNL     1      -7.365 -10.469  18.459  0.00  0.00    +0.082 C 
ATOM     18  C   UNL     1      -9.719 -10.569  18.989  0.00  0.00    +0.082 C 
ATOM     25  H   UNL     1      -8.190 -11.264  20.151  0.00  0.00    +0.122 HD
ENDBRANCH   5  11
ENDBRANCH   9   5
BRANCH  12  16
ATOM     16  C   UNL     1     -12.737  -5.301  14.298  0.00  0.00    +0.140 C 
BRANCH  16   7
ATOM      3  O   UNL     1     -10.617  -5.242   8.240  0.00  0.00    -0.377 OA
ATOM      4  O   UNL     1     -12.164  -3.226  12.486  0.00  0.00    -0.253 OA
ATOM      7  N   UNL     1     -12.404  -5.470  12.901  0.00  0.00    -0.297 N 
ATOM      8  N   UNL     1     -11.835  -4.712  10.736  0.00  0.00    -0.281 N 
ATOM     19  C   UNL     1     -12.134  -4.389  12.070  0.00  0.00    +0.302 C 
ATOM     20  C   UNL     1     -11.924  -6.047  10.126  0.00  0.00    +0.137 C 
ATOM     21  C   UNL     1     -11.543  -3.634   9.788  0.00  0.00    +0.137 C 
ATOM     22  C   UNL     1     -10.744  -6.297   9.193  0.00  0.00    +0.179 C 
ATOM     23  C   UNL     1     -10.368  -3.996   8.894  0.00  0.00    +0.179 C 
ATOM     27  H   UNL     1     -12.398  -6.419  12.559  0.00  0.00    +0.150 HD
ENDBRANCH  16   7
ENDBRANCH  12  16
TORSDOF 5
ENDMDL
MODEL 6
REMARK VINA RESULT:      -6.0     25.960     27.305
REMARK  Name = 75536748
REMARK  5 active torsions:
REMARK  status: ('A' for Active; 'I' for Inactive)
REMARK    1  A    between atoms: O_2  and  C_10
REMARK    2  A    between atoms: N_5  and  C_9
REMARK    3  A    between atoms: N_5  and  C_11
REMARK    4  A    between atoms: N_7  and  C_16
REMARK    5  A    between atoms: C_12  and  C_16
REMARK                            x       y       z     vdW  Elec       q    Type
REMARK                         _______ _______ _______ _____ _____    ______ ____
ROOT
ATOM      1  O   UNL     1      -4.359 -10.716  14.299  0.00  0.00    -0.371 OA
ATOM      9  C   UNL     1      -4.181 -11.507  16.532  0.00  0.00    +0.111 C 
ATOM     10  C   UNL     1      -2.813 -11.559  15.877  0.00  0.00    +0.164 C 
ATOM     12  C   UNL     1      -2.997 -10.572  14.733  0.00  0.00    +0.165 C 
ATOM     13  C   UNL     1      -5.091 -11.419  15.318  0.00  0.00    +0.181 C 
ENDROOT
BRANCH  10   2
ATOM      2  O   UNL     1      -1.774 -11.165  16.752  0.00  0.00    -0.388 OA
ATOM     26  H   UNL     1      -1.980 -10.278  17.091  0.00  0.00    +0.210 HD
ENDBRANCH  10   2
BRANCH   9   5
ATOM      5  N   UNL     1      -4.469 -12.656  17.374  0.00  0.00    -0.306 NA
ATOM     24  H   UNL     1      -3.600 -13.088  17.686  0.00  0.00    +0.123 HD
BRANCH   5  11
ATOM      6  N   UNL     1      -7.521 -10.765  19.657  0.00  0.00    -0.316 NA
ATOM     11  C   UNL     1      -5.273 -12.271  18.532  0.00  0.00    +0.056 C 
ATOM     14  C   UNL     1      -5.217 -10.754  18.735  0.00  0.00    +0.034 C 
ATOM     15  C   UNL     1      -6.727 -12.729  18.368  0.00  0.00    +0.034 C 
ATOM     17  C   UNL     1      -6.140 -10.323  19.876  0.00  0.00    +0.082 C 
ATOM     18  C   UNL     1      -7.590 -12.222  19.523  0.00  0.00    +0.082 C 
ATOM     25  H   UNL     1      -8.096 -10.471  20.446  0.00  0.00    +0.122 HD
ENDBRANCH   5  11
ENDBRANCH   9   5
BRANCH  12  16
ATOM     16  C   UNL     1      -2.057 -10.821  13.566  0.00  0.00    +0.140 C 
BRANCH  16   7
ATOM      3  O   UNL     1      -5.209  -9.573   8.117  0.00  0.00    -0.377 OA
ATOM      4  O   UNL     1      -3.016 -12.457  11.487  0.00  0.00    -0.253 OA
ATOM      7  N   UNL     1      -2.624 -10.355  12.320  0.00  0.00    -0.297 N 
ATOM      8  N   UNL     1      -3.593 -10.628  10.182  0.00  0.00    -0.281 N 
ATOM     19  C   UNL     1      -3.076 -11.231  11.341  0.00  0.00    +0.302 C 
ATOM     20  C   UNL     1      -3.562  -9.193   9.865  0.00  0.00    +0.137 C 
ATOM     21  C   UNL     1      -4.086 -11.476   9.094  0.00  0.00    +0.137 C 
ATOM     22  C   UNL     1      -4.877  -8.748   9.234  0.00  0.00    +0.179 C 
ATOM     23  C   UNL     1      -5.386 -10.931   8.524  0.00  0.00    +0.179 C 
ATOM     27  H   UNL     1      -2.654  -9.354  12.196  0.00  0.00    +0.150 HD
ENDBRANCH  16   7
ENDBRANCH  12  16
TORSDOF 5
ENDMDL
MODEL 7
REMARK VINA RESULT:      -6.0     25.371     28.023
REMARK  Name = 75536748
REMARK  5 active torsions:
REMARK  status: ('A' for Active; 'I' for Inactive)
REMARK    1  A    between atoms: O_2  and  C_10
REMARK    2  A    between atoms: N_5  and  C_9
REMARK    3  A    between atoms: N_5  and  C_11
REMARK    4  A    between atoms: N_7  and  C_16
REMARK    5  A    between atoms: C_12  and  C_16
REMARK                            x       y       z     vdW  Elec       q    Type
REMARK                         _______ _______ _______ _____ _____    ______ ____
ROOT
ATOM      1  O   UNL     1      -5.268 -11.565  19.576  0.00  0.00    -0.371 OA
ATOM      9  C   UNL     1      -4.330 -11.469  17.396  0.00  0.00    +0.111 C 
ATOM     10  C   UNL     1      -5.749 -10.935  17.348  0.00  0.00    +0.164 C 
ATOM     12  C   UNL     1      -5.978 -10.578  18.811  0.00  0.00    +0.165 C 
ATOM     13  C   UNL     1      -4.343 -12.240  18.706  0.00  0.00    +0.181 C 
ENDROOT
BRANCH  10   2
ATOM      2  O   UNL     1      -5.880  -9.808  16.504  0.00  0.00    -0.388 OA
ATOM     26  H   UNL     1      -6.824  -9.589  16.431  0.00  0.00    +0.210 HD
ENDBRANCH  10   2
BRANCH   9   5
ATOM      5  N   UNL     1      -3.980 -12.298  16.254  0.00  0.00    -0.306 NA
ATOM     24  H   UNL     1      -4.768 -12.360  15.611  0.00  0.00    +0.123 HD
BRANCH   5  11
ATOM      6  N   UNL     1      -1.329  -9.466  14.507  0.00  0.00    -0.316 NA
ATOM     11  C   UNL     1      -2.813 -11.766  15.556  0.00  0.00    +0.056 C 
ATOM     14  C   UNL     1      -3.247 -11.025  14.287  0.00  0.00    +0.034 C 
ATOM     15  C   UNL     1      -2.008 -10.829  16.465  0.00  0.00    +0.034 C 
ATOM     17  C   UNL     1      -2.047 -10.368  13.602  0.00  0.00    +0.082 C 
ATOM     18  C   UNL     1      -0.857 -10.181  15.695  0.00  0.00    +0.082 C 
ATOM     25  H   UNL     1      -0.530  -9.064  14.017  0.00  0.00    +0.122 HD
ENDBRANCH   5  11
ENDBRANCH   9   5
BRANCH  12  16
ATOM     16  C   UNL     1      -7.444 -10.577  19.207  0.00  0.00    +0.140 C 
BRANCH  16   7
ATOM      3  O   UNL     1     -11.782  -7.343  15.756  0.00  0.00    -0.377 OA
ATOM      4  O   UNL     1     -10.102 -11.126  18.467  0.00  0.00    -0.253 OA
ATOM      7  N   UNL     1      -8.241  -9.796  18.288  0.00  0.00    -0.297 N 
ATOM      8  N   UNL     1     -10.194  -9.285  17.059  0.00  0.00    -0.281 N 
ATOM     19  C   UNL     1      -9.551 -10.136  17.974  0.00  0.00    +0.302 C 
ATOM     20  C   UNL     1      -9.569  -8.182  16.315  0.00  0.00    +0.137 C 
ATOM     21  C   UNL     1     -11.575  -9.572  16.665  0.00  0.00    +0.137 C 
ATOM     22  C   UNL     1     -10.496  -6.973  16.256  0.00  0.00    +0.179 C 
ATOM     23  C   UNL     1     -12.404  -8.298  16.617  0.00  0.00    +0.179 C 
ATOM     27  H   UNL     1      -7.783  -8.999  17.873  0.00  0.00    +0.150 HD
ENDBRANCH  16   7
ENDBRANCH  12  16
TORSDOF 5
ENDMDL
MODEL 8
REMARK VINA RESULT:      -6.0     27.142     29.433
REMARK  Name = 75536748
REMARK  5 active torsions:
REMARK  status: ('A' for Active; 'I' for Inactive)
REMARK    1  A    between atoms: O_2  and  C_10
REMARK    2  A    between atoms: N_5  and  C_9
REMARK    3  A    between atoms: N_5  and  C_11
REMARK    4  A    between atoms: N_7  and  C_16
REMARK    5  A    between atoms: C_12  and  C_16
REMARK                            x       y       z     vdW  Elec       q    Type
REMARK                         _______ _______ _______ _____ _____    ______ ____
ROOT
ATOM      1  O   UNL     1     -10.032 -12.656  18.258  0.00  0.00    -0.371 OA
ATOM      9  C   UNL     1      -8.525 -11.482  19.669  0.00  0.00    +0.111 C 
ATOM     10  C   UNL     1      -9.807 -10.682  19.540  0.00  0.00    +0.164 C 
ATOM     12  C   UNL     1     -10.784 -11.762  19.094  0.00  0.00    +0.165 C 
ATOM     13  C   UNL     1      -8.631 -12.415  18.473  0.00  0.00    +0.181 C 
ENDROOT
BRANCH  10   2
ATOM      2  O   UNL     1     -10.204 -10.084  20.759  0.00  0.00    -0.388 OA
ATOM     26  H   UNL     1      -9.590  -9.356  20.956  0.00  0.00    +0.210 HD
ENDBRANCH  10   2
BRANCH   9   5
ATOM      5  N   UNL     1      -7.322 -10.665  19.646  0.00  0.00    -0.306 NA
ATOM     24  H   UNL     1      -6.700 -10.938  20.405  0.00  0.00    +0.123 HD
BRANCH   5  11
ATOM      6  N   UNL     1      -4.677  -9.752  16.441  0.00  0.00    -0.316 NA
ATOM     11  C   UNL     1      -6.627 -10.790  18.367  0.00  0.00    +0.056 C 
ATOM     14  C   UNL     1      -6.922  -9.575  17.482  0.00  0.00    +0.034 C 
ATOM     15  C   UNL     1      -5.115 -10.936  18.576  0.00  0.00    +0.034 C 
ATOM     17  C   UNL     1      -6.116  -9.638  16.184  0.00  0.00    +0.082 C 
ATOM     18  C   UNL     1      -4.379 -10.946  17.235  0.00  0.00    +0.082 C 
ATOM     25  H   UNL     1      -4.180  -9.807  15.552  0.00  0.00    +0.122 HD
ENDBRANCH   5  11
ENDBRANCH   9   5
BRANCH  12  16
ATOM     16  C   UNL     1     -11.973 -11.216  18.323  0.00  0.00    +0.140 C 
BRANCH  16   7
ATOM      3  O   UNL     1     -11.359  -5.816  14.910  0.00  0.00    -0.377 OA
ATOM      4  O   UNL     1     -11.983 -10.682  15.561  0.00  0.00    -0.253 OA
ATOM      7  N   UNL     1     -11.668  -9.943  17.711  0.00  0.00    -0.297 N 
ATOM      8  N   UNL     1     -11.369  -8.469  15.888  0.00  0.00    -0.281 N 
ATOM     19  C   UNL     1     -11.696  -9.761  16.333  0.00  0.00    +0.302 C 
ATOM     20  C   UNL     1     -10.872  -7.364  16.721  0.00  0.00    +0.137 C 
ATOM     21  C   UNL     1     -11.366  -8.188  14.450  0.00  0.00    +0.137 C 
ATOM     22  C   UNL     1     -11.514  -6.044  16.311  0.00  0.00    +0.179 C 
ATOM     23  C   UNL     1     -12.007  -6.842  14.155  0.00  0.00    +0.179 C 
ATOM     27  H   UNL     1     -11.416  -9.197  18.342  0.00  0.00    +0.150 HD
ENDBRANCH  16   7
ENDBRANCH  12  16
TORSDOF 5
ENDMDL
MODEL 9
REMARK VINA RESULT:      -5.7     26.710     28.807
REMARK  Name = 75536748
REMARK  5 active torsions:
REMARK  status: ('A' for Active; 'I' for Inactive)
REMARK    1  A    between atoms: O_2  and  C_10
REMARK    2  A    between atoms: N_5  and  C_9
REMARK    3  A    between atoms: N_5  and  C_11
REMARK    4  A    between atoms: N_7  and  C_16
REMARK    5  A    between atoms: C_12  and  C_16
REMARK                            x       y       z     vdW  Elec       q    Type
REMARK                         _______ _______ _______ _____ _____    ______ ____
ROOT
ATOM      1  O   UNL     1      -8.450 -13.247  19.257  0.00  0.00    -0.371 OA
ATOM      9  C   UNL     1      -9.632 -11.206  19.537  0.00  0.00    +0.111 C 
ATOM     10  C   UNL     1      -8.181 -10.898  19.218  0.00  0.00    +0.164 C 
ATOM     12  C   UNL     1      -7.739 -12.204  18.571  0.00  0.00    +0.165 C 
ATOM     13  C   UNL     1      -9.540 -12.656  19.985  0.00  0.00    +0.181 C 
ENDROOT
BRANCH  10   2
ATOM      2  O   UNL     1      -8.036  -9.799  18.340  0.00  0.00    -0.388 OA
ATOM     26  H   UNL     1      -7.088  -9.664  18.173  0.00  0.00    +0.210 HD
ENDBRANCH  10   2
BRANCH   9   5
ATOM      5  N   UNL     1     -10.204 -10.335  20.551  0.00  0.00    -0.306 NA
ATOM     24  H   UNL     1      -9.545  -9.595  20.788  0.00  0.00    +0.123 HD
BRANCH   5  11
ATOM      6  N   UNL     1     -14.071 -10.068  18.796  0.00  0.00    -0.316 NA
ATOM     11  C   UNL     1     -11.462  -9.750  20.092  0.00  0.00    +0.056 C 
ATOM     14  C   UNL     1     -11.603  -9.920  18.576  0.00  0.00    +0.034 C 
ATOM     15  C   UNL     1     -12.658 -10.387  20.809  0.00  0.00    +0.034 C 
ATOM     17  C   UNL     1     -12.964  -9.409  18.096  0.00  0.00    +0.082 C 
ATOM     18  C   UNL     1     -13.976  -9.859  20.242  0.00  0.00    +0.082 C 
ATOM     25  H   UNL     1     -14.955  -9.688  18.458  0.00  0.00    +0.122 HD
ENDBRANCH   5  11
ENDBRANCH   9   5
BRANCH  12  16
ATOM     16  C   UNL     1      -6.244 -12.449  18.672  0.00  0.00    +0.140 C 
BRANCH  16   7
ATOM      3  O   UNL     1      -2.300 -10.502  13.998  0.00  0.00    -0.377 OA
ATOM      4  O   UNL     1      -3.508 -11.794  18.619  0.00  0.00    -0.253 OA
ATOM      7  N   UNL     1      -5.536 -11.877  17.549  0.00  0.00    -0.297 N 
ATOM      8  N   UNL     1      -3.634 -11.022  16.436  0.00  0.00    -0.281 N 
ATOM     19  C   UNL     1      -4.179 -11.582  17.604  0.00  0.00    +0.302 C 
ATOM     20  C   UNL     1      -4.386 -10.599  15.245  0.00  0.00    +0.137 C 
ATOM     21  C   UNL     1      -2.212 -10.673  16.407  0.00  0.00    +0.137 C 
ATOM     22  C   UNL     1      -3.644 -10.985  13.970  0.00  0.00    +0.179 C 
ATOM     23  C   UNL     1      -1.577 -11.080  15.086  0.00  0.00    +0.179 C 
ATOM     27  H   UNL     1      -6.089 -11.687  16.727  0.00  0.00    +0.150 HD
ENDBRANCH  16   7
ENDBRANCH  12  16
TORSDOF 5
ENDMDL
MODEL 10
REMARK VINA RESULT:      -5.5     14.085     16.634
REMARK  Name = 75536748
REMARK  5 active torsions:
REMARK  status: ('A' for Active; 'I' for Inactive)
REMARK    1  A    between atoms: O_2  and  C_10
REMARK    2  A    between atoms: N_5  and  C_9
REMARK    3  A    between atoms: N_5  and  C_11
REMARK    4  A    between atoms: N_7  and  C_16
REMARK    5  A    between atoms: C_12  and  C_16
REMARK                            x       y       z     vdW  Elec       q    Type
REMARK                         _______ _______ _______ _____ _____    ______ ____
ROOT
ATOM      1  O   UNL     1      10.950   8.763   7.370  0.00  0.00    -0.371 OA
ATOM      9  C   UNL     1       8.690   8.091   7.082  0.00  0.00    +0.111 C 
ATOM     10  C   UNL     1       9.600   6.922   6.755  0.00  0.00    +0.164 C 
ATOM     12  C   UNL     1      10.877   7.332   7.476  0.00  0.00    +0.165 C 
ATOM     13  C   UNL     1       9.657   9.260   6.985  0.00  0.00    +0.181 C 
ENDROOT
BRANCH  10   2
ATOM      2  O   UNL     1       9.098   5.689   7.233  0.00  0.00    -0.388 OA
ATOM     26  H   UNL     1       8.645   5.850   8.078  0.00  0.00    +0.210 HD
ENDBRANCH  10   2
BRANCH   9   5
ATOM      5  N   UNL     1       7.556   8.218   6.183  0.00  0.00    -0.306 NA
ATOM     24  H   UNL     1       6.827   8.784   6.616  0.00  0.00    +0.123 HD
BRANCH   5  11
ATOM      6  N   UNL     1       7.467   9.239   2.053  0.00  0.00    -0.316 NA
ATOM     11  C   UNL     1       7.957   8.816   4.912  0.00  0.00    +0.056 C 
ATOM     14  C   UNL     1       8.216   7.723   3.870  0.00  0.00    +0.034 C 
ATOM     15  C   UNL     1       6.888   9.790   4.401  0.00  0.00    +0.034 C 
ATOM     17  C   UNL     1       8.531   8.337   2.504  0.00  0.00    +0.082 C 
ATOM     18  C   UNL     1       7.256  10.322   3.015  0.00  0.00    +0.082 C 
ATOM     25  H   UNL     1       7.725   9.636   1.150  0.00  0.00    +0.122 HD
ENDBRANCH   5  11
ENDBRANCH   9   5
BRANCH  12  16
ATOM     16  C   UNL     1      12.128   6.708   6.884  0.00  0.00    +0.140 C 
BRANCH  16   7
ATOM      3  O   UNL     1      11.712   4.358   0.927  0.00  0.00    -0.377 OA
ATOM      4  O   UNL     1      12.421   7.871   4.339  0.00  0.00    -0.253 OA
ATOM      7  N   UNL     1      11.851   6.057   5.624  0.00  0.00    -0.297 N 
ATOM      8  N   UNL     1      11.703   5.943   3.268  0.00  0.00    -0.281 N 
ATOM     19  C   UNL     1      12.022   6.703   4.405  0.00  0.00    +0.302 C 
ATOM     20  C   UNL     1      11.082   4.610   3.262  0.00  0.00    +0.137 C 
ATOM     21  C   UNL     1      11.847   6.547   1.941  0.00  0.00    +0.137 C 
ATOM     22  C   UNL     1      11.722   3.718   2.203  0.00  0.00    +0.179 C 
ATOM     23  C   UNL     1      12.472   5.567   0.960  0.00  0.00    +0.179 C 
ATOM     27  H   UNL     1      11.507   5.110   5.681  0.00  0.00    +0.150 HD
ENDBRANCH  16   7
ENDBRANCH  12  16
TORSDOF 5
ENDMDL
