MODEL 1
REMARK VINA RESULT:      -7.0      0.000      0.000
REMARK  Name = 38028272
REMARK  13 active torsions:
REMARK  status: ('A' for Active; 'I' for Inactive)
REMARK    1  A    between atoms: O_3  and  C_29
REMARK    2  A    between atoms: O_3  and  C_34
REMARK    3  A    between atoms: N_4  and  C_15
REMARK    4  A    between atoms: N_5  and  C_22
REMARK    5  A    between atoms: N_6  and  C_24
REMARK    6  A    between atoms: C_8  and  C_12
REMARK    7  A    between atoms: C_9  and  C_15
REMARK    8  A    between atoms: C_11  and  C_16
REMARK    9  A    between atoms: C_12  and  C_17
REMARK   10  A    between atoms: C_12  and  C_18
REMARK   11  A    between atoms: C_13  and  C_19
REMARK   12  A    between atoms: C_16  and  C_20
REMARK   13  A    between atoms: C_22  and  C_23
REMARK                            x       y       z     vdW  Elec       q    Type
REMARK                         _______ _______ _______ _____ _____    ______ ____
ROOT
ATOM      8  C   UNL     1      -4.873 -10.576  11.044  0.00  0.00    +0.000 C 
ATOM      9  C   UNL     1      -4.394  -9.656   9.894  0.00  0.00    +0.032 C 
ATOM     10  C   UNL     1      -4.244 -10.141  12.377  0.00  0.00    +0.012 C 
ATOM     11  C   UNL     1      -2.705 -10.175  12.333  0.00  0.00    +0.023 C 
ATOM     13  C   UNL     1      -2.162  -9.516  11.081  0.00  0.00    -0.073 C 
ATOM     14  C   UNL     1      -2.935  -9.279  10.006  0.00  0.00    -0.022 C 
ATOM     19  C   UNL     1      -0.720  -9.093  11.111  0.00  0.00    +0.039 C 
ENDROOT
BRANCH   8  12
ATOM     12  C   UNL     1      -6.400 -10.583  11.168  0.00  0.00    -0.013 C 
ATOM     17  C   UNL     1      -6.880 -11.909  11.750  0.00  0.00    +0.007 C 
ATOM     18  C   UNL     1      -6.868  -9.414  12.029  0.00  0.00    +0.007 C 
ENDBRANCH   8  12
BRANCH   9  15
ATOM     15  C   UNL     1      -4.651 -10.299   8.527  0.00  0.00    +0.113 C 
BRANCH  15   4
ATOM      2  O   UNL     1      -7.463  -9.978   8.091  0.00  0.00    -0.253 OA
ATOM      4  N   UNL     1      -5.278  -9.371   7.639  0.00  0.00    -0.299 N 
ATOM      6  N   UNL     1      -6.990  -8.277   6.544  0.00  0.00    -0.269 N 
ATOM     21  C   UNL     1      -6.671  -9.269   7.476  0.00  0.00    +0.304 C 
ATOM     35  H   UNL     1      -4.684  -8.757   7.090  0.00  0.00    +0.150 HD
ATOM     37  H   UNL     1      -6.210  -7.779   6.124  0.00  0.00    +0.156 HD
BRANCH   6  24
ATOM     24  C   UNL     1      -8.276  -7.875   6.110  0.00  0.00    +0.038 A 
ATOM     26  C   UNL     1      -9.085  -7.108   6.947  0.00  0.00    +0.069 A 
ATOM     27  C   UNL     1      -8.732  -8.246   4.845  0.00  0.00    +0.023 A 
ATOM     29  C   UNL     1     -10.352  -6.711   6.520  0.00  0.00    +0.122 A 
ATOM     30  C   UNL     1      -9.999  -7.849   4.418  0.00  0.00    +0.005 A 
ATOM     32  C   UNL     1     -10.810  -7.081   5.255  0.00  0.00    +0.046 A 
BRANCH  29   3
ATOM      3  O   UNL     1     -11.142  -5.964   7.337  0.00  0.00    -0.495 OA
ATOM     34  C   UNL     1     -10.566  -5.512   8.562  0.00  0.00    +0.277 C 
ENDBRANCH  29   3
ENDBRANCH   6  24
ENDBRANCH  15   4
ENDBRANCH   9  15
BRANCH  11  16
ATOM     16  C   UNL     1      -2.180 -11.609  12.469  0.00  0.00    +0.103 C 
BRANCH  16  20
ATOM      1  O   UNL     1      -2.066 -13.244  14.249  0.00  0.00    -0.276 OA
ATOM      5  N   UNL     1      -2.210 -10.986  14.776  0.00  0.00    -0.310 N 
ATOM     20  C   UNL     1      -2.143 -12.067  13.910  0.00  0.00    +0.214 C 
ATOM     36  H   UNL     1      -2.279 -10.045  14.400  0.00  0.00    +0.149 HD
BRANCH   5  22
ATOM     22  C   UNL     1      -2.197 -11.125  16.215  0.00  0.00    +0.159 C 
BRANCH  22  23
ATOM      7  N   UNL     1      -3.753 -11.416  18.057  0.00  0.00    -0.258 NA
ATOM     23  C   UNL     1      -3.560 -10.931  16.811  0.00  0.00    +0.058 A 
ATOM     25  C   UNL     1      -4.536 -10.277  16.073  0.00  0.00    +0.025 A 
ATOM     28  C   UNL     1      -5.789 -10.112  16.654  0.00  0.00    +0.003 A 
ATOM     31  C   UNL     1      -4.982 -11.237  18.588  0.00  0.00    +0.111 A 
ATOM     33  C   UNL     1      -6.024 -10.599  17.935  0.00  0.00    +0.020 A 
ENDBRANCH  22  23
ENDBRANCH   5  22
ENDBRANCH  16  20
ENDBRANCH  11  16
TORSDOF 9
ENDMDL
MODEL 2
REMARK VINA RESULT:      -6.9      1.287      2.075
REMARK  Name = 38028272
REMARK  13 active torsions:
REMARK  status: ('A' for Active; 'I' for Inactive)
REMARK    1  A    between atoms: O_3  and  C_29
REMARK    2  A    between atoms: O_3  and  C_34
REMARK    3  A    between atoms: N_4  and  C_15
REMARK    4  A    between atoms: N_5  and  C_22
REMARK    5  A    between atoms: N_6  and  C_24
REMARK    6  A    between atoms: C_8  and  C_12
REMARK    7  A    between atoms: C_9  and  C_15
REMARK    8  A    between atoms: C_11  and  C_16
REMARK    9  A    between atoms: C_12  and  C_17
REMARK   10  A    between atoms: C_12  and  C_18
REMARK   11  A    between atoms: C_13  and  C_19
REMARK   12  A    between atoms: C_16  and  C_20
REMARK   13  A    between atoms: C_22  and  C_23
REMARK                            x       y       z     vdW  Elec       q    Type
REMARK                         _______ _______ _______ _____ _____    ______ ____
ROOT
ATOM      8  C   UNL     1      -5.185 -10.644  10.807  0.00  0.00    +0.000 C 
ATOM      9  C   UNL     1      -4.677  -9.697   9.691  0.00  0.00    +0.032 C 
ATOM     10  C   UNL     1      -4.625 -10.215  12.171  0.00  0.00    +0.012 C 
ATOM     11  C   UNL     1      -3.084 -10.216  12.194  0.00  0.00    +0.023 C 
ATOM     13  C   UNL     1      -2.503  -9.527  10.976  0.00  0.00    -0.073 C 
ATOM     14  C   UNL     1      -3.233  -9.291   9.872  0.00  0.00    -0.022 C 
ATOM     19  C   UNL     1      -1.072  -9.074  11.074  0.00  0.00    +0.039 C 
ENDROOT
BRANCH   8  12
ATOM     12  C   UNL     1      -6.716 -10.684  10.864  0.00  0.00    -0.013 C 
ATOM     17  C   UNL     1      -7.181 -11.544  12.035  0.00  0.00    +0.007 C 
ATOM     18  C   UNL     1      -7.281  -9.271  10.972  0.00  0.00    +0.007 C 
ENDBRANCH   8  12
BRANCH   9  15
ATOM     15  C   UNL     1      -4.861 -10.326   8.305  0.00  0.00    +0.113 C 
BRANCH  15   4
ATOM      2  O   UNL     1      -7.597 -10.082   7.494  0.00  0.00    -0.253 OA
ATOM      4  N   UNL     1      -5.397  -9.375   7.384  0.00  0.00    -0.299 N 
ATOM      6  N   UNL     1      -6.986  -8.285   6.112  0.00  0.00    -0.269 N 
ATOM     21  C   UNL     1      -6.758  -9.313   7.031  0.00  0.00    +0.304 C 
ATOM     35  H   UNL     1      -4.760  -8.711   6.954  0.00  0.00    +0.150 HD
ATOM     37  H   UNL     1      -6.178  -7.738   5.830  0.00  0.00    +0.156 HD
BRANCH   6  24
ATOM     24  C   UNL     1      -8.215  -7.907   5.521  0.00  0.00    +0.038 A 
ATOM     26  C   UNL     1      -8.457  -8.186   4.176  0.00  0.00    +0.069 A 
ATOM     27  C   UNL     1      -9.185  -7.256   6.284  0.00  0.00    +0.023 A 
ATOM     29  C   UNL     1      -9.668  -7.813   3.593  0.00  0.00    +0.122 A 
ATOM     30  C   UNL     1     -10.396  -6.884   5.701  0.00  0.00    +0.005 A 
ATOM     32  C   UNL     1     -10.638  -7.162   4.356  0.00  0.00    +0.046 A 
BRANCH  29   3
ATOM      3  O   UNL     1      -9.903  -8.084   2.280  0.00  0.00    -0.495 OA
ATOM     34  C   UNL     1      -9.770  -9.442   1.864  0.00  0.00    +0.277 C 
ENDBRANCH  29   3
ENDBRANCH   6  24
ENDBRANCH  15   4
ENDBRANCH   9  15
BRANCH  11  16
ATOM     16  C   UNL     1      -2.535 -11.640  12.334  0.00  0.00    +0.103 C 
BRANCH  16  20
ATOM      1  O   UNL     1      -2.262 -13.222  14.143  0.00  0.00    -0.276 OA
ATOM      5  N   UNL     1      -2.453 -10.957  14.623  0.00  0.00    -0.310 N 
ATOM     20  C   UNL     1      -2.399 -12.057  13.780  0.00  0.00    +0.214 C 
ATOM     36  H   UNL     1      -2.576 -10.029  14.228  0.00  0.00    +0.149 HD
BRANCH   5  22
ATOM     22  C   UNL     1      -2.352 -11.058  16.061  0.00  0.00    +0.159 C 
BRANCH  22  23
ATOM      7  N   UNL     1      -4.607 -10.157  16.058  0.00  0.00    -0.258 NA
ATOM     23  C   UNL     1      -3.681 -10.873  16.732  0.00  0.00    +0.058 A 
ATOM     25  C   UNL     1      -3.894 -11.434  17.982  0.00  0.00    +0.025 A 
ATOM     28  C   UNL     1      -5.137 -11.246  18.576  0.00  0.00    +0.003 A 
ATOM     31  C   UNL     1      -5.803  -9.995  16.666  0.00  0.00    +0.111 A 
ATOM     33  C   UNL     1      -6.115 -10.513  17.913  0.00  0.00    +0.020 A 
ENDBRANCH  22  23
ENDBRANCH   5  22
ENDBRANCH  16  20
ENDBRANCH  11  16
TORSDOF 9
ENDMDL
MODEL 3
REMARK VINA RESULT:      -6.9      4.768      9.863
REMARK  Name = 38028272
REMARK  13 active torsions:
REMARK  status: ('A' for Active; 'I' for Inactive)
REMARK    1  A    between atoms: O_3  and  C_29
REMARK    2  A    between atoms: O_3  and  C_34
REMARK    3  A    between atoms: N_4  and  C_15
REMARK    4  A    between atoms: N_5  and  C_22
REMARK    5  A    between atoms: N_6  and  C_24
REMARK    6  A    between atoms: C_8  and  C_12
REMARK    7  A    between atoms: C_9  and  C_15
REMARK    8  A    between atoms: C_11  and  C_16
REMARK    9  A    between atoms: C_12  and  C_17
REMARK   10  A    between atoms: C_12  and  C_18
REMARK   11  A    between atoms: C_13  and  C_19
REMARK   12  A    between atoms: C_16  and  C_20
REMARK   13  A    between atoms: C_22  and  C_23
REMARK                            x       y       z     vdW  Elec       q    Type
REMARK                         _______ _______ _______ _____ _____    ______ ____
ROOT
ATOM      8  C   UNL     1      -6.011 -10.558  15.365  0.00  0.00    +0.000 C 
ATOM      9  C   UNL     1      -6.807 -10.670  16.689  0.00  0.00    +0.032 C 
ATOM     10  C   UNL     1      -4.982 -11.693  15.260  0.00  0.00    +0.012 C 
ATOM     11  C   UNL     1      -3.983 -11.683  16.432  0.00  0.00    +0.023 C 
ATOM     13  C   UNL     1      -4.682 -11.525  17.767  0.00  0.00    -0.073 C 
ATOM     14  C   UNL     1      -5.949 -11.085  17.862  0.00  0.00    -0.022 C 
ATOM     19  C   UNL     1      -3.906 -11.930  18.989  0.00  0.00    +0.039 C 
ENDROOT
BRANCH   8  12
ATOM     12  C   UNL     1      -6.936 -10.581  14.143  0.00  0.00    -0.013 C 
ATOM     17  C   UNL     1      -6.128 -10.393  12.862  0.00  0.00    +0.007 C 
ATOM     18  C   UNL     1      -7.726 -11.885  14.099  0.00  0.00    +0.007 C 
ENDBRANCH   8  12
BRANCH   9  15
ATOM     15  C   UNL     1      -7.522  -9.355  17.019  0.00  0.00    +0.113 C 
BRANCH  15   4
ATOM      2  O   UNL     1     -10.119 -10.526  17.311  0.00  0.00    -0.253 OA
ATOM      4  N   UNL     1      -8.273  -9.475  18.228  0.00  0.00    -0.299 N 
ATOM      6  N   UNL     1     -10.037 -10.040  19.607  0.00  0.00    -0.269 N 
ATOM     21  C   UNL     1      -9.549 -10.065  18.297  0.00  0.00    +0.304 C 
ATOM     35  H   UNL     1      -7.868  -9.108  19.084  0.00  0.00    +0.150 HD
ATOM     37  H   UNL     1      -9.435  -9.620  20.309  0.00  0.00    +0.156 HD
BRANCH   6  24
ATOM     24  C   UNL     1     -11.275 -10.534  20.081  0.00  0.00    +0.038 A 
ATOM     26  C   UNL     1     -11.374 -11.851  20.530  0.00  0.00    +0.069 A 
ATOM     27  C   UNL     1     -12.396  -9.704  20.100  0.00  0.00    +0.023 A 
ATOM     29  C   UNL     1     -12.594 -12.338  20.997  0.00  0.00    +0.122 A 
ATOM     30  C   UNL     1     -13.616 -10.192  20.567  0.00  0.00    +0.005 A 
ATOM     32  C   UNL     1     -13.716 -11.509  21.017  0.00  0.00    +0.046 A 
BRANCH  29   3
ATOM      3  O   UNL     1     -12.691 -13.624  21.434  0.00  0.00    -0.495 OA
ATOM     34  C   UNL     1     -12.743 -13.828  22.845  0.00  0.00    +0.277 C 
ENDBRANCH  29   3
ENDBRANCH   6  24
ENDBRANCH  15   4
ENDBRANCH   9  15
BRANCH  11  16
ATOM     16  C   UNL     1      -2.916 -10.599  16.240  0.00  0.00    +0.103 C 
BRANCH  16  20
ATOM      1  O   UNL     1      -1.096 -11.706  15.093  0.00  0.00    -0.276 OA
ATOM      5  N   UNL     1      -2.363 -10.119  13.965  0.00  0.00    -0.310 N 
ATOM     20  C   UNL     1      -2.014 -10.891  15.063  0.00  0.00    +0.214 C 
ATOM     36  H   UNL     1      -3.137  -9.464  14.038  0.00  0.00    +0.149 HD
BRANCH   5  22
ATOM     22  C   UNL     1      -1.670 -10.187  12.699  0.00  0.00    +0.159 C 
BRANCH  22  23
ATOM      7  N   UNL     1      -2.975  -9.610  10.733  0.00  0.00    -0.258 NA
ATOM     23  C   UNL     1      -2.584 -10.589  11.578  0.00  0.00    +0.058 A 
ATOM     25  C   UNL     1      -2.974 -11.914  11.463  0.00  0.00    +0.025 A 
ATOM     28  C   UNL     1      -3.820 -12.254  10.414  0.00  0.00    +0.003 A 
ATOM     31  C   UNL     1      -3.797  -9.978   9.726  0.00  0.00    +0.111 A 
ATOM     33  C   UNL     1      -4.244 -11.274   9.524  0.00  0.00    +0.020 A 
ENDBRANCH  22  23
ENDBRANCH   5  22
ENDBRANCH  16  20
ENDBRANCH  11  16
TORSDOF 9
ENDMDL
MODEL 4
REMARK VINA RESULT:      -6.8      2.487      8.917
REMARK  Name = 38028272
REMARK  13 active torsions:
REMARK  status: ('A' for Active; 'I' for Inactive)
REMARK    1  A    between atoms: O_3  and  C_29
REMARK    2  A    between atoms: O_3  and  C_34
REMARK    3  A    between atoms: N_4  and  C_15
REMARK    4  A    between atoms: N_5  and  C_22
REMARK    5  A    between atoms: N_6  and  C_24
REMARK    6  A    between atoms: C_8  and  C_12
REMARK    7  A    between atoms: C_9  and  C_15
REMARK    8  A    between atoms: C_11  and  C_16
REMARK    9  A    between atoms: C_12  and  C_17
REMARK   10  A    between atoms: C_12  and  C_18
REMARK   11  A    between atoms: C_13  and  C_19
REMARK   12  A    between atoms: C_16  and  C_20
REMARK   13  A    between atoms: C_22  and  C_23
REMARK                            x       y       z     vdW  Elec       q    Type
REMARK                         _______ _______ _______ _____ _____    ______ ____
ROOT
ATOM      8  C   UNL     1      -3.133 -12.355  12.145  0.00  0.00    +0.000 C 
ATOM      9  C   UNL     1      -2.097 -11.202  12.148  0.00  0.00    +0.032 C 
ATOM     10  C   UNL     1      -3.661 -12.597  10.723  0.00  0.00    +0.012 C 
ATOM     11  C   UNL     1      -4.326 -11.341  10.127  0.00  0.00    +0.023 C 
ATOM     13  C   UNL     1      -3.476 -10.103  10.332  0.00  0.00    -0.073 C 
ATOM     14  C   UNL     1      -2.476 -10.064  11.230  0.00  0.00    -0.022 C 
ATOM     19  C   UNL     1      -3.773  -8.925   9.447  0.00  0.00    +0.039 C 
ENDROOT
BRANCH   8  12
ATOM     12  C   UNL     1      -2.542 -13.651  12.707  0.00  0.00    -0.013 C 
ATOM     17  C   UNL     1      -3.249 -14.040  14.002  0.00  0.00    +0.007 C 
ATOM     18  C   UNL     1      -2.645 -14.772  11.677  0.00  0.00    +0.007 C 
ENDBRANCH   8  12
BRANCH   9  15
ATOM     15  C   UNL     1      -1.875 -10.663  13.565  0.00  0.00    +0.113 C 
BRANCH  15   4
ATOM      2  O   UNL     1      -2.894 -11.403  16.137  0.00  0.00    -0.253 OA
ATOM      4  N   UNL     1      -3.109 -10.242  14.148  0.00  0.00    -0.299 N 
ATOM      6  N   UNL     1      -4.788 -10.079  15.725  0.00  0.00    -0.269 N 
ATOM     21  C   UNL     1      -3.548 -10.648  15.422  0.00  0.00    +0.304 C 
ATOM     35  H   UNL     1      -3.707  -9.622  13.610  0.00  0.00    +0.150 HD
ATOM     37  H   UNL     1      -5.195  -9.472  15.019  0.00  0.00    +0.156 HD
BRANCH   6  24
ATOM     24  C   UNL     1      -5.554 -10.243  16.903  0.00  0.00    +0.038 A 
ATOM     26  C   UNL     1      -6.903  -9.890  16.913  0.00  0.00    +0.069 A 
ATOM     27  C   UNL     1      -4.959 -10.758  18.055  0.00  0.00    +0.023 A 
ATOM     29  C   UNL     1      -7.658 -10.051  18.075  0.00  0.00    +0.122 A 
ATOM     30  C   UNL     1      -5.714 -10.919  19.217  0.00  0.00    +0.005 A 
ATOM     32  C   UNL     1      -7.064 -10.566  19.227  0.00  0.00    +0.046 A 
BRANCH  29   3
ATOM      3  O   UNL     1      -8.974  -9.705  18.084  0.00  0.00    -0.495 OA
ATOM     34  C   UNL     1      -9.415  -8.802  17.071  0.00  0.00    +0.277 C 
ENDBRANCH  29   3
ENDBRANCH   6  24
ENDBRANCH  15   4
ENDBRANCH   9  15
BRANCH  11  16
ATOM     16  C   UNL     1      -5.735 -11.139  10.695  0.00  0.00    +0.103 C 
BRANCH  16  20
ATOM      1  O   UNL     1      -6.760 -11.683   8.573  0.00  0.00    -0.276 OA
ATOM      5  N   UNL     1      -7.732 -10.070   9.933  0.00  0.00    -0.310 N 
ATOM     20  C   UNL     1      -6.776 -11.020   9.606  0.00  0.00    +0.214 C 
ATOM     36  H   UNL     1      -7.657  -9.565  10.812  0.00  0.00    +0.149 HD
BRANCH   5  22
ATOM     22  C   UNL     1      -8.848  -9.744   9.074  0.00  0.00    +0.159 C 
BRANCH  22  23
ATOM      7  N   UNL     1     -10.118  -7.678   9.206  0.00  0.00    -0.258 NA
ATOM     23  C   UNL     1      -8.960  -8.266   8.835  0.00  0.00    +0.058 A 
ATOM     25  C   UNL     1      -7.894  -7.589   8.262  0.00  0.00    +0.025 A 
ATOM     28  C   UNL     1      -8.029  -6.220   8.056  0.00  0.00    +0.003 A 
ATOM     31  C   UNL     1     -10.212  -6.347   8.990  0.00  0.00    +0.111 A 
ATOM     33  C   UNL     1      -9.207  -5.580   8.423  0.00  0.00    +0.020 A 
ENDBRANCH  22  23
ENDBRANCH   5  22
ENDBRANCH  16  20
ENDBRANCH  11  16
TORSDOF 9
ENDMDL
MODEL 5
REMARK VINA RESULT:      -6.7     19.900     24.078
REMARK  Name = 38028272
REMARK  13 active torsions:
REMARK  status: ('A' for Active; 'I' for Inactive)
REMARK    1  A    between atoms: O_3  and  C_29
REMARK    2  A    between atoms: O_3  and  C_34
REMARK    3  A    between atoms: N_4  and  C_15
REMARK    4  A    between atoms: N_5  and  C_22
REMARK    5  A    between atoms: N_6  and  C_24
REMARK    6  A    between atoms: C_8  and  C_12
REMARK    7  A    between atoms: C_9  and  C_15
REMARK    8  A    between atoms: C_11  and  C_16
REMARK    9  A    between atoms: C_12  and  C_17
REMARK   10  A    between atoms: C_12  and  C_18
REMARK   11  A    between atoms: C_13  and  C_19
REMARK   12  A    between atoms: C_16  and  C_20
REMARK   13  A    between atoms: C_22  and  C_23
REMARK                            x       y       z     vdW  Elec       q    Type
REMARK                         _______ _______ _______ _____ _____    ______ ____
ROOT
ATOM      8  C   UNL     1     -12.289   8.783  19.727  0.00  0.00    +0.000 C 
ATOM      9  C   UNL     1     -11.524  10.031  20.235  0.00  0.00    +0.032 C 
ATOM     10  C   UNL     1     -11.452   8.029  18.682  0.00  0.00    +0.012 C 
ATOM     11  C   UNL     1     -11.099   8.914  17.471  0.00  0.00    +0.023 C 
ATOM     13  C   UNL     1     -10.586  10.273  17.897  0.00  0.00    -0.073 C 
ATOM     14  C   UNL     1     -10.772  10.751  19.140  0.00  0.00    -0.022 C 
ATOM     19  C   UNL     1      -9.810  11.055  16.873  0.00  0.00    +0.039 C 
ENDROOT
BRANCH   8  12
ATOM     12  C   UNL     1     -12.661   7.838  20.874  0.00  0.00    -0.013 C 
ATOM     17  C   UNL     1     -14.119   7.405  20.754  0.00  0.00    +0.007 C 
ATOM     18  C   UNL     1     -11.735   6.625  20.884  0.00  0.00    +0.007 C 
ENDBRANCH   8  12
BRANCH   9  15
ATOM     15  C   UNL     1     -12.470  11.012  20.936  0.00  0.00    +0.113 C 
BRANCH  15   4
ATOM      2  O   UNL     1     -13.226   9.960  23.490  0.00  0.00    -0.253 OA
ATOM      4  N   UNL     1     -11.948  11.400  22.208  0.00  0.00    -0.299 N 
ATOM      6  N   UNL     1     -11.684  11.413  24.501  0.00  0.00    -0.269 N 
ATOM     21  C   UNL     1     -12.368  10.837  23.427  0.00  0.00    +0.304 C 
ATOM     35  H   UNL     1     -11.239  12.127  22.234  0.00  0.00    +0.150 HD
ATOM     37  H   UNL     1     -11.000  12.129  24.275  0.00  0.00    +0.156 HD
BRANCH   6  24
ATOM     24  C   UNL     1     -11.823  11.116  25.878  0.00  0.00    +0.038 A 
ATOM     26  C   UNL     1     -12.874  11.673  26.608  0.00  0.00    +0.069 A 
ATOM     27  C   UNL     1     -10.912  10.267  26.504  0.00  0.00    +0.023 A 
ATOM     29  C   UNL     1     -13.012  11.381  27.965  0.00  0.00    +0.122 A 
ATOM     30  C   UNL     1     -11.050   9.975  27.861  0.00  0.00    +0.005 A 
ATOM     32  C   UNL     1     -12.100  10.532  28.592  0.00  0.00    +0.046 A 
BRANCH  29   3
ATOM      3  O   UNL     1     -14.036  11.926  28.676  0.00  0.00    -0.495 OA
ATOM     34  C   UNL     1     -14.025  11.723  30.088  0.00  0.00    +0.277 C 
ENDBRANCH  29   3
ENDBRANCH   6  24
ENDBRANCH  15   4
ENDBRANCH   9  15
BRANCH  11  16
ATOM     16  C   UNL     1     -12.294   9.051  16.521  0.00  0.00    +0.103 C 
BRANCH  16  20
ATOM      1  O   UNL     1     -10.931   8.265  14.684  0.00  0.00    -0.276 OA
ATOM      5  N   UNL     1     -13.228   7.926  14.631  0.00  0.00    -0.310 N 
ATOM     20  C   UNL     1     -12.043   8.381  15.190  0.00  0.00    +0.214 C 
ATOM     36  H   UNL     1     -14.104   8.074  15.123  0.00  0.00    +0.149 HD
BRANCH   5  22
ATOM     22  C   UNL     1     -13.290   7.246  13.357  0.00  0.00    +0.159 C 
BRANCH  22  23
ATOM      7  N   UNL     1     -14.510   5.437  12.289  0.00  0.00    -0.258 NA
ATOM     23  C   UNL     1     -14.531   6.412  13.225  0.00  0.00    +0.058 A 
ATOM     25  C   UNL     1     -15.614   6.671  14.051  0.00  0.00    +0.025 A 
ATOM     28  C   UNL     1     -16.747   5.879  13.905  0.00  0.00    +0.003 A 
ATOM     31  C   UNL     1     -15.630   4.689  12.177  0.00  0.00    +0.111 A 
ATOM     33  C   UNL     1     -16.764   4.867  12.952  0.00  0.00    +0.020 A 
ENDBRANCH  22  23
ENDBRANCH   5  22
ENDBRANCH  16  20
ENDBRANCH  11  16
TORSDOF 9
ENDMDL
MODEL 6
REMARK VINA RESULT:      -6.6      2.777      9.019
REMARK  Name = 38028272
REMARK  13 active torsions:
REMARK  status: ('A' for Active; 'I' for Inactive)
REMARK    1  A    between atoms: O_3  and  C_29
REMARK    2  A    between atoms: O_3  and  C_34
REMARK    3  A    between atoms: N_4  and  C_15
REMARK    4  A    between atoms: N_5  and  C_22
REMARK    5  A    between atoms: N_6  and  C_24
REMARK    6  A    between atoms: C_8  and  C_12
REMARK    7  A    between atoms: C_9  and  C_15
REMARK    8  A    between atoms: C_11  and  C_16
REMARK    9  A    between atoms: C_12  and  C_17
REMARK   10  A    between atoms: C_12  and  C_18
REMARK   11  A    between atoms: C_13  and  C_19
REMARK   12  A    between atoms: C_16  and  C_20
REMARK   13  A    between atoms: C_22  and  C_23
REMARK                            x       y       z     vdW  Elec       q    Type
REMARK                         _______ _______ _______ _____ _____    ______ ____
ROOT
ATOM      8  C   UNL     1      -3.306 -13.105  12.476  0.00  0.00    +0.000 C 
ATOM      9  C   UNL     1      -1.941 -12.441  12.787  0.00  0.00    +0.032 C 
ATOM     10  C   UNL     1      -3.719 -12.828  11.023  0.00  0.00    +0.012 C 
ATOM     11  C   UNL     1      -3.831 -11.320  10.728  0.00  0.00    +0.023 C 
ATOM     13  C   UNL     1      -2.633 -10.553  11.248  0.00  0.00    -0.073 C 
ATOM     14  C   UNL     1      -1.791 -11.075  12.158  0.00  0.00    -0.022 C 
ATOM     19  C   UNL     1      -2.397  -9.188  10.664  0.00  0.00    +0.039 C 
ENDROOT
BRANCH   8  12
ATOM     12  C   UNL     1      -3.272 -14.616  12.727  0.00  0.00    -0.013 C 
ATOM     17  C   UNL     1      -4.459 -15.293  12.050  0.00  0.00    +0.007 C 
ATOM     18  C   UNL     1      -1.956 -15.208  12.232  0.00  0.00    +0.007 C 
ENDBRANCH   8  12
BRANCH   9  15
ATOM     15  C   UNL     1      -1.707 -12.335  14.298  0.00  0.00    +0.113 C 
BRANCH  15   4
ATOM      2  O   UNL     1      -4.094 -12.659  15.848  0.00  0.00    -0.253 OA
ATOM      4  N   UNL     1      -2.506 -11.294  14.863  0.00  0.00    -0.299 N 
ATOM      6  N   UNL     1      -4.240 -10.323  16.038  0.00  0.00    -0.269 N 
ATOM     21  C   UNL     1      -3.671 -11.528  15.617  0.00  0.00    +0.304 C 
ATOM     35  H   UNL     1      -2.221 -10.332  14.707  0.00  0.00    +0.150 HD
ATOM     37  H   UNL     1      -3.760  -9.471  15.761  0.00  0.00    +0.156 HD
BRANCH   6  24
ATOM     24  C   UNL     1      -5.410 -10.140  16.813  0.00  0.00    +0.038 A 
ATOM     26  C   UNL     1      -6.525  -9.517  16.253  0.00  0.00    +0.069 A 
ATOM     27  C   UNL     1      -5.447 -10.582  18.135  0.00  0.00    +0.023 A 
ATOM     29  C   UNL     1      -7.679  -9.336  17.017  0.00  0.00    +0.122 A 
ATOM     30  C   UNL     1      -6.600 -10.401  18.898  0.00  0.00    +0.005 A 
ATOM     32  C   UNL     1      -7.717  -9.778  18.339  0.00  0.00    +0.046 A 
BRANCH  29   3
ATOM      3  O   UNL     1      -8.767  -8.728  16.470  0.00  0.00    -0.495 OA
ATOM     34  C   UNL     1      -9.715  -8.161  17.373  0.00  0.00    +0.277 C 
ENDBRANCH  29   3
ENDBRANCH   6  24
ENDBRANCH  15   4
ENDBRANCH   9  15
BRANCH  11  16
ATOM     16  C   UNL     1      -5.137 -10.743  11.286  0.00  0.00    +0.103 C 
BRANCH  16  20
ATOM      1  O   UNL     1      -7.344 -10.815  10.299  0.00  0.00    -0.276 OA
ATOM      5  N   UNL     1      -5.584  -9.885   9.101  0.00  0.00    -0.310 N 
ATOM     20  C   UNL     1      -6.161 -10.500  10.202  0.00  0.00    +0.214 C 
ATOM     36  H   UNL     1      -4.591  -9.668   9.111  0.00  0.00    +0.149 HD
BRANCH   5  22
ATOM     22  C   UNL     1      -6.327  -9.534   7.912  0.00  0.00    +0.159 C 
BRANCH  22  23
ATOM      7  N   UNL     1      -6.719 -10.301   5.641  0.00  0.00    -0.258 NA
ATOM     23  C   UNL     1      -5.925 -10.370   6.732  0.00  0.00    +0.058 A 
ATOM     25  C   UNL     1      -4.783 -11.152   6.812  0.00  0.00    +0.025 A 
ATOM     28  C   UNL     1      -4.437 -11.914   5.701  0.00  0.00    +0.003 A 
ATOM     31  C   UNL     1      -6.350 -11.055   4.581  0.00  0.00    +0.111 A 
ATOM     33  C   UNL     1      -5.230 -11.870   4.561  0.00  0.00    +0.020 A 
ENDBRANCH  22  23
ENDBRANCH   5  22
ENDBRANCH  16  20
ENDBRANCH  11  16
TORSDOF 9
ENDMDL
MODEL 7
REMARK VINA RESULT:      -6.6      2.450      9.036
REMARK  Name = 38028272
REMARK  13 active torsions:
REMARK  status: ('A' for Active; 'I' for Inactive)
REMARK    1  A    between atoms: O_3  and  C_29
REMARK    2  A    between atoms: O_3  and  C_34
REMARK    3  A    between atoms: N_4  and  C_15
REMARK    4  A    between atoms: N_5  and  C_22
REMARK    5  A    between atoms: N_6  and  C_24
REMARK    6  A    between atoms: C_8  and  C_12
REMARK    7  A    between atoms: C_9  and  C_15
REMARK    8  A    between atoms: C_11  and  C_16
REMARK    9  A    between atoms: C_12  and  C_17
REMARK   10  A    between atoms: C_12  and  C_18
REMARK   11  A    between atoms: C_13  and  C_19
REMARK   12  A    between atoms: C_16  and  C_20
REMARK   13  A    between atoms: C_22  and  C_23
REMARK                            x       y       z     vdW  Elec       q    Type
REMARK                         _______ _______ _______ _____ _____    ______ ____
ROOT
ATOM      8  C   UNL     1      -4.097 -12.202  11.309  0.00  0.00    +0.000 C 
ATOM      9  C   UNL     1      -2.909 -11.216  11.173  0.00  0.00    +0.032 C 
ATOM     10  C   UNL     1      -5.185 -11.876  10.275  0.00  0.00    +0.012 C 
ATOM     11  C   UNL     1      -5.722 -10.441  10.428  0.00  0.00    +0.023 C 
ATOM     13  C   UNL     1      -4.601  -9.432  10.570  0.00  0.00    -0.073 C 
ATOM     14  C   UNL     1      -3.347  -9.798  10.890  0.00  0.00    -0.022 C 
ATOM     19  C   UNL     1      -4.944  -7.995  10.291  0.00  0.00    +0.039 C 
ENDROOT
BRANCH   8  12
ATOM     12  C   UNL     1      -3.647 -13.658  11.149  0.00  0.00    -0.013 C 
ATOM     17  C   UNL     1      -4.237 -14.521  12.261  0.00  0.00    +0.007 C 
ATOM     18  C   UNL     1      -4.052 -14.191   9.778  0.00  0.00    +0.007 C 
ENDBRANCH   8  12
BRANCH   9  15
ATOM     15  C   UNL     1      -2.026 -11.238  12.425  0.00  0.00    +0.113 C 
BRANCH  15   4
ATOM      2  O   UNL     1      -3.262 -12.454  14.704  0.00  0.00    -0.253 OA
ATOM      4  N   UNL     1      -2.667 -10.565  13.510  0.00  0.00    -0.299 N 
ATOM      6  N   UNL     1      -3.804 -10.315  15.504  0.00  0.00    -0.269 N 
ATOM     21  C   UNL     1      -3.255 -11.230  14.602  0.00  0.00    +0.304 C 
ATOM     35  H   UNL     1      -2.707  -9.550  13.489  0.00  0.00    +0.150 HD
ATOM     37  H   UNL     1      -3.711  -9.331  15.268  0.00  0.00    +0.156 HD
BRANCH   6  24
ATOM     24  C   UNL     1      -4.477 -10.590  16.718  0.00  0.00    +0.038 A 
ATOM     26  C   UNL     1      -5.786 -10.146  16.905  0.00  0.00    +0.069 A 
ATOM     27  C   UNL     1      -3.832 -11.306  17.726  0.00  0.00    +0.023 A 
ATOM     29  C   UNL     1      -6.450 -10.417  18.101  0.00  0.00    +0.122 A 
ATOM     30  C   UNL     1      -4.496 -11.577  18.922  0.00  0.00    +0.005 A 
ATOM     32  C   UNL     1      -5.806 -11.133  19.110  0.00  0.00    +0.046 A 
BRANCH  29   3
ATOM      3  O   UNL     1      -7.727  -9.982  18.284  0.00  0.00    -0.495 OA
ATOM     34  C   UNL     1      -8.270  -9.124  17.282  0.00  0.00    +0.277 C 
ENDBRANCH  29   3
ENDBRANCH   6  24
ENDBRANCH  15   4
ENDBRANCH   9  15
BRANCH  11  16
ATOM     16  C   UNL     1      -6.704 -10.340  11.601  0.00  0.00    +0.103 C 
BRANCH  16  20
ATOM      1  O   UNL     1      -9.051  -9.843  11.908  0.00  0.00    -0.276 OA
ATOM      5  N   UNL     1      -8.126  -9.729   9.780  0.00  0.00    -0.310 N 
ATOM     20  C   UNL     1      -8.092  -9.947  11.149  0.00  0.00    +0.214 C 
ATOM     36  H   UNL     1      -7.279  -9.847   9.232  0.00  0.00    +0.149 HD
BRANCH   5  22
ATOM     22  C   UNL     1      -9.325  -9.344   9.071  0.00  0.00    +0.159 C 
BRANCH  22  23
ATOM      7  N   UNL     1      -8.345  -7.240   8.357  0.00  0.00    -0.258 NA
ATOM     23  C   UNL     1      -9.420  -7.857   8.894  0.00  0.00    +0.058 A 
ATOM     25  C   UNL     1     -10.580  -7.201   9.278  0.00  0.00    +0.025 A 
ATOM     28  C   UNL     1     -10.637  -5.823   9.099  0.00  0.00    +0.003 A 
ATOM     31  C   UNL     1      -8.437  -5.901   8.199  0.00  0.00    +0.111 A 
ATOM     33  C   UNL     1      -9.549  -5.153   8.551  0.00  0.00    +0.020 A 
ENDBRANCH  22  23
ENDBRANCH   5  22
ENDBRANCH  16  20
ENDBRANCH  11  16
TORSDOF 9
ENDMDL
MODEL 8
REMARK VINA RESULT:      -6.4     23.152     26.303
REMARK  Name = 38028272
REMARK  13 active torsions:
REMARK  status: ('A' for Active; 'I' for Inactive)
REMARK    1  A    between atoms: O_3  and  C_29
REMARK    2  A    between atoms: O_3  and  C_34
REMARK    3  A    between atoms: N_4  and  C_15
REMARK    4  A    between atoms: N_5  and  C_22
REMARK    5  A    between atoms: N_6  and  C_24
REMARK    6  A    between atoms: C_8  and  C_12
REMARK    7  A    between atoms: C_9  and  C_15
REMARK    8  A    between atoms: C_11  and  C_16
REMARK    9  A    between atoms: C_12  and  C_17
REMARK   10  A    between atoms: C_12  and  C_18
REMARK   11  A    between atoms: C_13  and  C_19
REMARK   12  A    between atoms: C_16  and  C_20
REMARK   13  A    between atoms: C_22  and  C_23
REMARK                            x       y       z     vdW  Elec       q    Type
REMARK                         _______ _______ _______ _____ _____    ______ ____
ROOT
ATOM      8  C   UNL     1      15.429   9.719   5.180  0.00  0.00    +0.000 C 
ATOM      9  C   UNL     1      15.998   8.285   5.317  0.00  0.00    +0.032 C 
ATOM     10  C   UNL     1      14.684  10.125   6.461  0.00  0.00    +0.012 C 
ATOM     11  C   UNL     1      13.522   9.167   6.787  0.00  0.00    +0.023 C 
ATOM     13  C   UNL     1      13.942   7.715   6.680  0.00  0.00    -0.073 C 
ATOM     14  C   UNL     1      15.059   7.341   6.031  0.00  0.00    -0.022 C 
ATOM     19  C   UNL     1      13.072   6.706   7.376  0.00  0.00    +0.039 C 
ENDROOT
BRANCH   8  12
ATOM     12  C   UNL     1      16.529  10.740   4.873  0.00  0.00    -0.013 C 
ATOM     17  C   UNL     1      15.976  12.159   4.966  0.00  0.00    +0.007 C 
ATOM     18  C   UNL     1      17.706  10.555   5.826  0.00  0.00    +0.007 C 
ENDBRANCH   8  12
BRANCH   9  15
ATOM     15  C   UNL     1      16.365   7.702   3.947  0.00  0.00    +0.113 C 
BRANCH  15   4
ATOM      2  O   UNL     1      14.614   7.417   1.699  0.00  0.00    -0.253 OA
ATOM      4  N   UNL     1      15.545   6.572   3.641  0.00  0.00    -0.299 N 
ATOM      6  N   UNL     1      14.028   5.280   2.476  0.00  0.00    -0.269 N 
ATOM     21  C   UNL     1      14.706   6.502   2.514  0.00  0.00    +0.304 C 
ATOM     35  H   UNL     1      15.564   5.779   4.276  0.00  0.00    +0.150 HD
ATOM     37  H   UNL     1      14.220   4.628   3.231  0.00  0.00    +0.156 HD
BRANCH   6  24
ATOM     24  C   UNL     1      13.100   4.832   1.505  0.00  0.00    +0.038 A 
ATOM     26  C   UNL     1      13.554   4.200   0.348  0.00  0.00    +0.069 A 
ATOM     27  C   UNL     1      11.734   5.023   1.707  0.00  0.00    +0.023 A 
ATOM     29  C   UNL     1      12.639   3.758  -0.609  0.00  0.00    +0.122 A 
ATOM     30  C   UNL     1      10.820   4.581   0.750  0.00  0.00    +0.005 A 
ATOM     32  C   UNL     1      11.272   3.948  -0.408  0.00  0.00    +0.046 A 
BRANCH  29   3
ATOM      3  O   UNL     1      13.082   3.142  -1.739  0.00  0.00    -0.495 OA
ATOM     34  C   UNL     1      12.094   2.597  -2.611  0.00  0.00    +0.277 C 
ENDBRANCH  29   3
ENDBRANCH   6  24
ENDBRANCH  15   4
ENDBRANCH   9  15
BRANCH  11  16
ATOM     16  C   UNL     1      12.305   9.453   5.902  0.00  0.00    +0.103 C 
BRANCH  16  20
ATOM      1  O   UNL     1      10.613   9.583   7.626  0.00  0.00    -0.276 OA
ATOM      5  N   UNL     1      10.340   8.092   5.865  0.00  0.00    -0.310 N 
ATOM     20  C   UNL     1      11.007   9.076   6.579  0.00  0.00    +0.214 C 
ATOM     36  H   UNL     1      10.750   7.728   5.010  0.00  0.00    +0.149 HD
BRANCH   5  22
ATOM     22  C   UNL     1       9.072   7.537   6.280  0.00  0.00    +0.159 C 
BRANCH  22  23
ATOM      7  N   UNL     1       8.903   6.579   8.506  0.00  0.00    -0.258 NA
ATOM     23  C   UNL     1       9.246   6.376   7.215  0.00  0.00    +0.058 A 
ATOM     25  C   UNL     1       9.738   5.177   6.722  0.00  0.00    +0.025 A 
ATOM     28  C   UNL     1       9.886   4.120   7.614  0.00  0.00    +0.003 A 
ATOM     31  C   UNL     1       9.061   5.530   9.342  0.00  0.00    +0.111 A 
ATOM     33  C   UNL     1       9.544   4.292   8.950  0.00  0.00    +0.020 A 
ENDBRANCH  22  23
ENDBRANCH   5  22
ENDBRANCH  16  20
ENDBRANCH  11  16
TORSDOF 9
ENDMDL
MODEL 9
REMARK VINA RESULT:      -6.4      4.233     10.029
REMARK  Name = 38028272
REMARK  13 active torsions:
REMARK  status: ('A' for Active; 'I' for Inactive)
REMARK    1  A    between atoms: O_3  and  C_29
REMARK    2  A    between atoms: O_3  and  C_34
REMARK    3  A    between atoms: N_4  and  C_15
REMARK    4  A    between atoms: N_5  and  C_22
REMARK    5  A    between atoms: N_6  and  C_24
REMARK    6  A    between atoms: C_8  and  C_12
REMARK    7  A    between atoms: C_9  and  C_15
REMARK    8  A    between atoms: C_11  and  C_16
REMARK    9  A    between atoms: C_12  and  C_17
REMARK   10  A    between atoms: C_12  and  C_18
REMARK   11  A    between atoms: C_13  and  C_19
REMARK   12  A    between atoms: C_16  and  C_20
REMARK   13  A    between atoms: C_22  and  C_23
REMARK                            x       y       z     vdW  Elec       q    Type
REMARK                         _______ _______ _______ _____ _____    ______ ____
ROOT
ATOM      8  C   UNL     1     -11.403  -8.477  15.645  0.00  0.00    +0.000 C 
ATOM      9  C   UNL     1     -12.032  -9.697  16.363  0.00  0.00    +0.032 C 
ATOM     10  C   UNL     1     -11.480  -8.654  14.121  0.00  0.00    +0.012 C 
ATOM     11  C   UNL     1     -10.756  -9.928  13.645  0.00  0.00    +0.023 C 
ATOM     13  C   UNL     1     -11.126 -11.133  14.485  0.00  0.00    -0.073 C 
ATOM     14  C   UNL     1     -11.708 -11.011  15.692  0.00  0.00    -0.022 C 
ATOM     19  C   UNL     1     -10.854 -12.485  13.887  0.00  0.00    +0.039 C 
ENDROOT
BRANCH   8  12
ATOM     12  C   UNL     1     -12.083  -7.166  16.050  0.00  0.00    -0.013 C 
ATOM     17  C   UNL     1     -11.052  -6.047  16.167  0.00  0.00    +0.007 C 
ATOM     18  C   UNL     1     -13.169  -6.797  15.045  0.00  0.00    +0.007 C 
ENDBRANCH   8  12
BRANCH   9  15
ATOM     15  C   UNL     1     -11.602  -9.755  17.833  0.00  0.00    +0.113 C 
BRANCH  15   4
ATOM      2  O   UNL     1      -9.359 -11.535  17.846  0.00  0.00    -0.253 OA
ATOM      4  N   UNL     1     -10.227  -9.395  17.975  0.00  0.00    -0.299 N 
ATOM      6  N   UNL     1      -7.942  -9.684  18.128  0.00  0.00    -0.269 N 
ATOM     21  C   UNL     1      -9.173 -10.327  17.972  0.00  0.00    +0.304 C 
ATOM     35  H   UNL     1      -9.998  -8.412  18.091  0.00  0.00    +0.150 HD
ATOM     37  H   UNL     1      -7.964  -8.673  18.219  0.00  0.00    +0.156 HD
BRANCH   6  24
ATOM     24  C   UNL     1      -6.656 -10.273  18.175  0.00  0.00    +0.038 A 
ATOM     26  C   UNL     1      -5.798 -10.161  17.080  0.00  0.00    +0.069 A 
ATOM     27  C   UNL     1      -6.246 -10.963  19.315  0.00  0.00    +0.023 A 
ATOM     29  C   UNL     1      -4.531 -10.741  17.126  0.00  0.00    +0.122 A 
ATOM     30  C   UNL     1      -4.978 -11.543  19.360  0.00  0.00    +0.005 A 
ATOM     32  C   UNL     1      -4.120 -11.432  18.266  0.00  0.00    +0.046 A 
BRANCH  29   3
ATOM      3  O   UNL     1      -3.695 -10.632  16.057  0.00  0.00    -0.495 OA
ATOM     34  C   UNL     1      -2.305 -10.846  16.296  0.00  0.00    +0.277 C 
ENDBRANCH  29   3
ENDBRANCH   6  24
ENDBRANCH  15   4
ENDBRANCH   9  15
BRANCH  11  16
ATOM     16  C   UNL     1      -9.237  -9.723  13.617  0.00  0.00    +0.103 C 
BRANCH  16  20
ATOM      1  O   UNL     1      -9.359  -9.932  11.211  0.00  0.00    -0.276 OA
ATOM      5  N   UNL     1      -7.374  -9.242  12.201  0.00  0.00    -0.310 N 
ATOM     20  C   UNL     1      -8.698  -9.654  12.207  0.00  0.00    +0.214 C 
ATOM     36  H   UNL     1      -6.907  -9.041  13.080  0.00  0.00    +0.149 HD
BRANCH   5  22
ATOM     22  C   UNL     1      -6.600  -9.089  10.989  0.00  0.00    +0.159 C 
BRANCH  22  23
ATOM      7  N   UNL     1      -4.875 -10.202  12.287  0.00  0.00    -0.258 NA
ATOM     23  C   UNL     1      -5.162  -9.469  11.189  0.00  0.00    +0.058 A 
ATOM     25  C   UNL     1      -4.218  -9.062  10.259  0.00  0.00    +0.025 A 
ATOM     28  C   UNL     1      -2.894  -9.432  10.472  0.00  0.00    +0.003 A 
ATOM     31  C   UNL     1      -3.579 -10.542  12.461  0.00  0.00    +0.111 A 
ATOM     33  C   UNL     1      -2.560 -10.185  11.592  0.00  0.00    +0.020 A 
ENDBRANCH  22  23
ENDBRANCH   5  22
ENDBRANCH  16  20
ENDBRANCH  11  16
TORSDOF 9
ENDMDL
MODEL 10
REMARK VINA RESULT:      -6.4      5.399     10.061
REMARK  Name = 38028272
REMARK  13 active torsions:
REMARK  status: ('A' for Active; 'I' for Inactive)
REMARK    1  A    between atoms: O_3  and  C_29
REMARK    2  A    between atoms: O_3  and  C_34
REMARK    3  A    between atoms: N_4  and  C_15
REMARK    4  A    between atoms: N_5  and  C_22
REMARK    5  A    between atoms: N_6  and  C_24
REMARK    6  A    between atoms: C_8  and  C_12
REMARK    7  A    between atoms: C_9  and  C_15
REMARK    8  A    between atoms: C_11  and  C_16
REMARK    9  A    between atoms: C_12  and  C_17
REMARK   10  A    between atoms: C_12  and  C_18
REMARK   11  A    between atoms: C_13  and  C_19
REMARK   12  A    between atoms: C_16  and  C_20
REMARK   13  A    between atoms: C_22  and  C_23
REMARK                            x       y       z     vdW  Elec       q    Type
REMARK                         _______ _______ _______ _____ _____    ______ ____
ROOT
ATOM      8  C   UNL     1      -6.556 -11.008  16.268  0.00  0.00    +0.000 C 
ATOM      9  C   UNL     1      -7.026 -11.184  17.734  0.00  0.00    +0.032 C 
ATOM     10  C   UNL     1      -5.453 -12.022  15.933  0.00  0.00    +0.012 C 
ATOM     11  C   UNL     1      -4.229 -11.878  16.859  0.00  0.00    +0.023 C 
ATOM     13  C   UNL     1      -4.634 -11.775  18.315  0.00  0.00    -0.073 C 
ATOM     14  C   UNL     1      -5.892 -11.478  18.688  0.00  0.00    -0.022 C 
ATOM     19  C   UNL     1      -3.570 -12.068  19.335  0.00  0.00    +0.039 C 
ENDROOT
BRANCH   8  12
ATOM     12  C   UNL     1      -7.716 -11.157  15.278  0.00  0.00    -0.013 C 
ATOM     17  C   UNL     1      -8.776 -12.100  15.839  0.00  0.00    +0.007 C 
ATOM     18  C   UNL     1      -8.320  -9.792  14.959  0.00  0.00    +0.007 C 
ENDBRANCH   8  12
BRANCH   9  15
ATOM     15  C   UNL     1      -7.796  -9.952  18.221  0.00  0.00    +0.113 C 
BRANCH  15   4
ATOM      2  O   UNL     1     -10.654 -10.054  18.069  0.00  0.00    -0.253 OA
ATOM      4  N   UNL     1      -8.695 -10.298  19.275  0.00  0.00    -0.299 N 
ATOM      6  N   UNL     1     -10.711 -10.701  20.326  0.00  0.00    -0.269 N 
ATOM     21  C   UNL     1     -10.094 -10.328  19.128  0.00  0.00    +0.304 C 
ATOM     35  H   UNL     1      -8.303 -10.530  20.183  0.00  0.00    +0.150 HD
ATOM     37  H   UNL     1     -10.099 -10.896  21.112  0.00  0.00    +0.156 HD
BRANCH   6  24
ATOM     24  C   UNL     1     -12.096 -10.845  20.580  0.00  0.00    +0.038 A 
ATOM     26  C   UNL     1     -12.924  -9.722  20.587  0.00  0.00    +0.069 A 
ATOM     27  C   UNL     1     -12.633 -12.109  20.823  0.00  0.00    +0.023 A 
ATOM     29  C   UNL     1     -14.288  -9.864  20.838  0.00  0.00    +0.122 A 
ATOM     30  C   UNL     1     -13.997 -12.250  21.074  0.00  0.00    +0.005 A 
ATOM     32  C   UNL     1     -14.826 -11.128  21.081  0.00  0.00    +0.046 A 
BRANCH  29   3
ATOM      3  O   UNL     1     -15.095  -8.768  20.846  0.00  0.00    -0.495 OA
ATOM     34  C   UNL     1     -16.503  -8.998  20.879  0.00  0.00    +0.277 C 
ENDBRANCH  29   3
ENDBRANCH   6  24
ENDBRANCH  15   4
ENDBRANCH   9  15
BRANCH  11  16
ATOM     16  C   UNL     1      -3.360 -10.685  16.445  0.00  0.00    +0.103 C 
BRANCH  16  20
ATOM      1  O   UNL     1      -1.565 -11.733  15.208  0.00  0.00    -0.276 OA
ATOM      5  N   UNL     1      -3.023 -10.295  14.112  0.00  0.00    -0.310 N 
ATOM     20  C   UNL     1      -2.536 -10.982  15.213  0.00  0.00    +0.214 C 
ATOM     36  H   UNL     1      -3.832  -9.689  14.216  0.00  0.00    +0.149 HD
BRANCH   5  22
ATOM     22  C   UNL     1      -2.429 -10.387  12.797  0.00  0.00    +0.159 C 
BRANCH  22  23
ATOM      7  N   UNL     1      -2.840  -9.545  10.557  0.00  0.00    -0.258 NA
ATOM     23  C   UNL     1      -3.384  -9.970  11.718  0.00  0.00    +0.058 A 
ATOM     25  C   UNL     1      -4.749 -10.041  11.955  0.00  0.00    +0.025 A 
ATOM     28  C   UNL     1      -5.608  -9.649  10.934  0.00  0.00    +0.003 A 
ATOM     31  C   UNL     1      -3.706  -9.172   9.588  0.00  0.00    +0.111 A 
ATOM     33  C   UNL     1      -5.085  -9.204   9.726  0.00  0.00    +0.020 A 
ENDBRANCH  22  23
ENDBRANCH   5  22
ENDBRANCH  16  20
ENDBRANCH  11  16
TORSDOF 9
ENDMDL
