MODEL 1
REMARK VINA RESULT:      -7.4      0.000      0.000
REMARK  Name = 75536919
REMARK  7 active torsions:
REMARK  status: ('A' for Active; 'I' for Inactive)
REMARK    1  A    between atoms: S_1  and  C_22
REMARK    2  A    between atoms: S_1  and  C_28
REMARK    3  A    between atoms: O_3  and  C_8
REMARK    4  A    between atoms: O_3  and  C_14
REMARK    5  A    between atoms: N_6  and  C_11
REMARK    6  A    between atoms: C_11  and  C_13
REMARK    7  A    between atoms: C_17  and  C_25
REMARK                            x       y       z     vdW  Elec       q    Type
REMARK                         _______ _______ _______ _____ _____    ______ ____
ROOT
ATOM      2  O   UNL     1      11.388   6.979  22.152  0.00  0.00    -0.375 OA
ATOM      6  N   UNL     1      13.377   8.132  20.420  0.00  0.00    -0.292 NA
ATOM      7  C   UNL     1      12.480   9.279  20.554  0.00  0.00    +0.131 C 
ATOM      8  C   UNL     1      11.927   9.380  21.982  0.00  0.00    +0.213 C 
ATOM      9  C   UNL     1      12.705   6.868  20.098  0.00  0.00    +0.113 C 
ATOM     10  C   UNL     1      10.919   8.303  22.373  0.00  0.00    +0.205 C 
ATOM     12  C   UNL     1      11.359   6.619  20.777  0.00  0.00    +0.175 C 
ENDROOT
BRANCH   8   3
ATOM      3  O   UNL     1      11.305  10.657  22.123  0.00  0.00    -0.485 OA
BRANCH   3  14
ATOM     14  C   UNL     1      11.727  11.431  23.167  0.00  0.00    +0.121 A 
ATOM     20  C   UNL     1      12.974  12.054  23.115  0.00  0.00    +0.047 A 
ATOM     21  C   UNL     1      10.911  11.598  24.286  0.00  0.00    +0.047 A 
ATOM     22  C   UNL     1      12.588  13.010  25.300  0.00  0.00    +0.088 A 
ATOM     23  C   UNL     1      13.404  12.843  24.182  0.00  0.00    +0.030 A 
ATOM     24  C   UNL     1      11.341  12.387  25.352  0.00  0.00    +0.030 A 
BRANCH  22   1
ATOM      1  S   UNL     1      13.127  13.997  26.636  0.00  0.00    -0.006 S 
ATOM      4  O   UNL     1      12.014  14.812  27.100  0.00  0.00    -0.170 OA
ATOM      5  O   UNL     1      13.832  13.135  27.574  0.00  0.00    -0.170 OA
ATOM     28  C   UNL     1      14.316  15.107  25.914  0.00  0.00    +0.200 C 
ENDBRANCH  22   1
ENDBRANCH   3  14
ENDBRANCH   8   3
BRANCH   6  11
ATOM     11  C   UNL     1      14.442   8.393  19.450  0.00  0.00    +0.119 C 
BRANCH  11  13
ATOM     13  C   UNL     1      15.752   7.789  19.880  0.00  0.00    -0.033 A 
ATOM     15  C   UNL     1      16.506   8.400  20.883  0.00  0.00    +0.005 A 
ATOM     16  C   UNL     1      16.214   6.620  19.274  0.00  0.00    +0.005 A 
ATOM     17  C   UNL     1      18.182   6.673  20.675  0.00  0.00    -0.018 A 
ATOM     18  C   UNL     1      17.720   7.841  21.280  0.00  0.00    +0.009 A 
ATOM     19  C   UNL     1      17.428   6.062  19.672  0.00  0.00    +0.009 A 
BRANCH  17  25
ATOM     25  C   UNL     1      19.441   6.092  21.088  0.00  0.00    -0.018 A 
ATOM     26  C   UNL     1      20.039   6.500  22.279  0.00  0.00    +0.008 A 
ATOM     27  C   UNL     1      20.058   5.126  20.293  0.00  0.00    +0.008 A 
ATOM     29  C   UNL     1      21.254   5.941  22.678  0.00  0.00    +0.001 A 
ATOM     30  C   UNL     1      21.272   4.567  20.692  0.00  0.00    +0.001 A 
ATOM     31  C   UNL     1      21.870   4.975  21.885  0.00  0.00    +0.000 A 
ENDBRANCH  17  25
ENDBRANCH  11  13
ENDBRANCH   6  11
TORSDOF 6
ENDMDL
MODEL 2
REMARK VINA RESULT:      -7.2     28.164     30.749
REMARK  Name = 75536919
REMARK  7 active torsions:
REMARK  status: ('A' for Active; 'I' for Inactive)
REMARK    1  A    between atoms: S_1  and  C_22
REMARK    2  A    between atoms: S_1  and  C_28
REMARK    3  A    between atoms: O_3  and  C_8
REMARK    4  A    between atoms: O_3  and  C_14
REMARK    5  A    between atoms: N_6  and  C_11
REMARK    6  A    between atoms: C_11  and  C_13
REMARK    7  A    between atoms: C_17  and  C_25
REMARK                            x       y       z     vdW  Elec       q    Type
REMARK                         _______ _______ _______ _____ _____    ______ ____
ROOT
ATOM      2  O   UNL     1      -2.756 -13.171  12.511  0.00  0.00    -0.375 OA
ATOM      6  N   UNL     1      -2.905 -11.303  14.696  0.00  0.00    -0.292 NA
ATOM      7  C   UNL     1      -2.556 -10.381  13.615  0.00  0.00    +0.131 C 
ATOM      8  C   UNL     1      -3.271 -10.766  12.313  0.00  0.00    +0.213 C 
ATOM      9  C   UNL     1      -2.072 -12.509  14.760  0.00  0.00    +0.113 C 
ATOM     10  C   UNL     1      -2.773 -12.044  11.643  0.00  0.00    +0.205 C 
ATOM     12  C   UNL     1      -1.667 -13.130  13.425  0.00  0.00    +0.175 C 
ENDROOT
BRANCH   8   3
ATOM      3  O   UNL     1      -3.123  -9.684  11.393  0.00  0.00    -0.485 OA
BRANCH   3  14
ATOM     14  C   UNL     1      -4.199  -9.407  10.597  0.00  0.00    +0.121 A 
ATOM     20  C   UNL     1      -5.420  -9.051  11.171  0.00  0.00    +0.047 A 
ATOM     21  C   UNL     1      -4.076  -9.480   9.210  0.00  0.00    +0.047 A 
ATOM     22  C   UNL     1      -6.394  -8.842   8.971  0.00  0.00    +0.088 A 
ATOM     23  C   UNL     1      -6.517  -8.769  10.358  0.00  0.00    +0.030 A 
ATOM     24  C   UNL     1      -5.173  -9.197   8.396  0.00  0.00    +0.030 A 
BRANCH  22   1
ATOM      1  S   UNL     1      -7.768  -8.489   7.952  0.00  0.00    -0.006 S 
ATOM      4  O   UNL     1      -7.413  -8.767   6.567  0.00  0.00    -0.170 OA
ATOM      5  O   UNL     1      -8.938  -9.128   8.541  0.00  0.00    -0.170 OA
ATOM     28  C   UNL     1      -7.980  -6.728   8.089  0.00  0.00    +0.200 C 
ENDBRANCH  22   1
ENDBRANCH   3  14
ENDBRANCH   8   3
BRANCH   6  11
ATOM     11  C   UNL     1      -2.910 -10.628  15.995  0.00  0.00    +0.119 C 
BRANCH  11  13
ATOM     13  C   UNL     1      -4.300 -10.520  16.565  0.00  0.00    -0.033 A 
ATOM     15  C   UNL     1      -4.571 -11.022  17.839  0.00  0.00    +0.005 A 
ATOM     16  C   UNL     1      -5.315  -9.919  15.820  0.00  0.00    +0.005 A 
ATOM     17  C   UNL     1      -6.873 -10.322  17.623  0.00  0.00    -0.018 A 
ATOM     18  C   UNL     1      -5.858 -10.922  18.367  0.00  0.00    +0.009 A 
ATOM     19  C   UNL     1      -6.602  -9.820  16.349  0.00  0.00    +0.009 A 
BRANCH  17  25
ATOM     25  C   UNL     1      -8.208 -10.218  18.171  0.00  0.00    -0.018 A 
ATOM     26  C   UNL     1      -8.554 -10.952  19.305  0.00  0.00    +0.008 A 
ATOM     27  C   UNL     1      -9.149  -9.385  17.565  0.00  0.00    +0.008 A 
ATOM     29  C   UNL     1      -9.842 -10.852  19.834  0.00  0.00    +0.001 A 
ATOM     30  C   UNL     1     -10.435  -9.285  18.094  0.00  0.00    +0.001 A 
ATOM     31  C   UNL     1     -10.782 -10.019  19.229  0.00  0.00    +0.000 A 
ENDBRANCH  17  25
ENDBRANCH  11  13
ENDBRANCH   6  11
TORSDOF 6
ENDMDL
MODEL 3
REMARK VINA RESULT:      -7.1      4.408      6.122
REMARK  Name = 75536919
REMARK  7 active torsions:
REMARK  status: ('A' for Active; 'I' for Inactive)
REMARK    1  A    between atoms: S_1  and  C_22
REMARK    2  A    between atoms: S_1  and  C_28
REMARK    3  A    between atoms: O_3  and  C_8
REMARK    4  A    between atoms: O_3  and  C_14
REMARK    5  A    between atoms: N_6  and  C_11
REMARK    6  A    between atoms: C_11  and  C_13
REMARK    7  A    between atoms: C_17  and  C_25
REMARK                            x       y       z     vdW  Elec       q    Type
REMARK                         _______ _______ _______ _____ _____    ______ ____
ROOT
ATOM      2  O   UNL     1      12.836  10.121  22.097  0.00  0.00    -0.375 OA
ATOM      6  N   UNL     1      13.853   8.002  20.435  0.00  0.00    -0.292 NA
ATOM      7  C   UNL     1      13.284   8.867  19.401  0.00  0.00    +0.131 C 
ATOM      8  C   UNL     1      13.513  10.347  19.736  0.00  0.00    +0.213 C 
ATOM      9  C   UNL     1      12.959   7.740  21.568  0.00  0.00    +0.113 C 
ATOM     10  C   UNL     1      12.700  10.889  20.908  0.00  0.00    +0.205 C 
ATOM     12  C   UNL     1      12.096   8.908  22.042  0.00  0.00    +0.175 C 
ENDROOT
BRANCH   8   3
ATOM      3  O   UNL     1      13.201  11.114  18.574  0.00  0.00    -0.485 OA
BRANCH   3  14
ATOM     14  C   UNL     1      14.252  11.471  17.775  0.00  0.00    +0.121 A 
ATOM     20  C   UNL     1      14.344  10.971  16.476  0.00  0.00    +0.047 A 
ATOM     21  C   UNL     1      15.233  12.335  18.260  0.00  0.00    +0.047 A 
ATOM     22  C   UNL     1      16.398  12.199  16.148  0.00  0.00    +0.088 A 
ATOM     23  C   UNL     1      15.417  11.335  15.663  0.00  0.00    +0.030 A 
ATOM     24  C   UNL     1      16.306  12.699  17.447  0.00  0.00    +0.030 A 
BRANCH  22   1
ATOM      1  S   UNL     1      17.742  12.654  15.130  0.00  0.00    -0.006 S 
ATOM      4  O   UNL     1      18.540  13.656  15.823  0.00  0.00    -0.170 OA
ATOM      5  O   UNL     1      18.373  11.433  14.649  0.00  0.00    -0.170 OA
ATOM     28  C   UNL     1      16.987  13.465  13.738  0.00  0.00    +0.200 C 
ENDBRANCH  22   1
ENDBRANCH   3  14
ENDBRANCH   8   3
BRANCH   6  11
ATOM     11  C   UNL     1      14.332   6.739  19.873  0.00  0.00    +0.119 C 
BRANCH  11  13
ATOM     13  C   UNL     1      15.819   6.577  20.045  0.00  0.00    -0.033 A 
ATOM     15  C   UNL     1      16.441   7.041  21.205  0.00  0.00    +0.005 A 
ATOM     16  C   UNL     1      16.575   5.964  19.046  0.00  0.00    +0.005 A 
ATOM     17  C   UNL     1      18.574   6.279  20.366  0.00  0.00    -0.018 A 
ATOM     18  C   UNL     1      17.818   6.891  21.365  0.00  0.00    +0.009 A 
ATOM     19  C   UNL     1      17.953   5.815  19.206  0.00  0.00    +0.009 A 
BRANCH  17  25
ATOM     25  C   UNL     1      20.003   6.123  20.532  0.00  0.00    -0.018 A 
ATOM     26  C   UNL     1      20.804   7.242  20.756  0.00  0.00    +0.008 A 
ATOM     27  C   UNL     1      20.579   4.854  20.467  0.00  0.00    +0.008 A 
ATOM     29  C   UNL     1      22.182   7.092  20.917  0.00  0.00    +0.001 A 
ATOM     30  C   UNL     1      21.957   4.705  20.627  0.00  0.00    +0.001 A 
ATOM     31  C   UNL     1      22.759   5.824  20.852  0.00  0.00    +0.000 A 
ENDBRANCH  17  25
ENDBRANCH  11  13
ENDBRANCH   6  11
TORSDOF 6
ENDMDL
MODEL 4
REMARK VINA RESULT:      -6.9     27.923     32.014
REMARK  Name = 75536919
REMARK  7 active torsions:
REMARK  status: ('A' for Active; 'I' for Inactive)
REMARK    1  A    between atoms: S_1  and  C_22
REMARK    2  A    between atoms: S_1  and  C_28
REMARK    3  A    between atoms: O_3  and  C_8
REMARK    4  A    between atoms: O_3  and  C_14
REMARK    5  A    between atoms: N_6  and  C_11
REMARK    6  A    between atoms: C_11  and  C_13
REMARK    7  A    between atoms: C_17  and  C_25
REMARK                            x       y       z     vdW  Elec       q    Type
REMARK                         _______ _______ _______ _____ _____    ______ ____
ROOT
ATOM      2  O   UNL     1      -9.486 -12.242  16.085  0.00  0.00    -0.375 OA
ATOM      6  N   UNL     1     -10.747  -9.938  17.263  0.00  0.00    -0.292 NA
ATOM      7  C   UNL     1      -9.471  -9.906  17.978  0.00  0.00    +0.131 C 
ATOM      8  C   UNL     1      -8.313 -10.299  17.052  0.00  0.00    +0.213 C 
ATOM      9  C   UNL     1     -11.398 -11.252  17.238  0.00  0.00    +0.113 C 
ATOM     10  C   UNL     1      -8.267 -11.770  16.645  0.00  0.00    +0.205 C 
ATOM     12  C   UNL     1     -10.483 -12.464  17.074  0.00  0.00    +0.175 C 
ENDROOT
BRANCH   8   3
ATOM      3  O   UNL     1      -7.091  -9.974  17.714  0.00  0.00    -0.485 OA
BRANCH   3  14
ATOM     14  C   UNL     1      -5.935 -10.301  17.061  0.00  0.00    +0.121 A 
ATOM     20  C   UNL     1      -4.894 -10.921  17.752  0.00  0.00    +0.047 A 
ATOM     21  C   UNL     1      -5.796 -10.013  15.703  0.00  0.00    +0.047 A 
ATOM     22  C   UNL     1      -3.576 -10.966  15.728  0.00  0.00    +0.088 A 
ATOM     23  C   UNL     1      -3.715 -11.253  17.086  0.00  0.00    +0.030 A 
ATOM     24  C   UNL     1      -4.617 -10.345  15.036  0.00  0.00    +0.030 A 
BRANCH  22   1
ATOM      1  S   UNL     1      -2.099 -11.381  14.893  0.00  0.00    -0.006 S 
ATOM      4  O   UNL     1      -0.966 -10.906  15.675  0.00  0.00    -0.170 OA
ATOM      5  O   UNL     1      -2.179 -12.784  14.514  0.00  0.00    -0.170 OA
ATOM     28  C   UNL     1      -2.145 -10.408  13.404  0.00  0.00    +0.200 C 
ENDBRANCH  22   1
ENDBRANCH   3  14
ENDBRANCH   8   3
BRANCH   6  11
ATOM     11  C   UNL     1     -11.675  -8.929  17.776  0.00  0.00    +0.119 C 
BRANCH  11  13
ATOM     13  C   UNL     1     -12.053  -7.925  16.720  0.00  0.00    -0.033 A 
ATOM     15  C   UNL     1     -13.274  -8.041  16.054  0.00  0.00    +0.005 A 
ATOM     16  C   UNL     1     -11.183  -6.880  16.408  0.00  0.00    +0.005 A 
ATOM     17  C   UNL     1     -12.754  -6.066  14.762  0.00  0.00    -0.018 A 
ATOM     18  C   UNL     1     -13.623  -7.111  15.075  0.00  0.00    +0.009 A 
ATOM     19  C   UNL     1     -11.534  -5.951  15.428  0.00  0.00    +0.009 A 
BRANCH  17  25
ATOM     25  C   UNL     1     -13.118  -5.102  13.747  0.00  0.00    -0.018 A 
ATOM     26  C   UNL     1     -14.462  -4.836  13.488  0.00  0.00    +0.008 A 
ATOM     27  C   UNL     1     -12.124  -4.437  13.028  0.00  0.00    +0.008 A 
ATOM     29  C   UNL     1     -14.813  -3.905  12.509  0.00  0.00    +0.001 A 
ATOM     30  C   UNL     1     -12.475  -3.508  12.049  0.00  0.00    +0.001 A 
ATOM     31  C   UNL     1     -13.820  -3.241  11.790  0.00  0.00    +0.000 A 
ENDBRANCH  17  25
ENDBRANCH  11  13
ENDBRANCH   6  11
TORSDOF 6
ENDMDL
MODEL 5
REMARK VINA RESULT:      -6.8     17.594     20.654
REMARK  Name = 75536919
REMARK  7 active torsions:
REMARK  status: ('A' for Active; 'I' for Inactive)
REMARK    1  A    between atoms: S_1  and  C_22
REMARK    2  A    between atoms: S_1  and  C_28
REMARK    3  A    between atoms: O_3  and  C_8
REMARK    4  A    between atoms: O_3  and  C_14
REMARK    5  A    between atoms: N_6  and  C_11
REMARK    6  A    between atoms: C_11  and  C_13
REMARK    7  A    between atoms: C_17  and  C_25
REMARK                            x       y       z     vdW  Elec       q    Type
REMARK                         _______ _______ _______ _____ _____    ______ ____
ROOT
ATOM      2  O   UNL     1      13.882   6.328  -2.252  0.00  0.00    -0.375 OA
ATOM      6  N   UNL     1      12.253   4.883  -0.370  0.00  0.00    -0.292 NA
ATOM      7  C   UNL     1      13.473   5.021   0.424  0.00  0.00    +0.131 C 
ATOM      8  C   UNL     1      14.120   6.394   0.202  0.00  0.00    +0.213 C 
ATOM      9  C   UNL     1      12.469   4.403  -1.740  0.00  0.00    +0.113 C 
ATOM     10  C   UNL     1      14.759   6.605  -1.168  0.00  0.00    +0.205 C 
ATOM     12  C   UNL     1      13.708   4.932  -2.461  0.00  0.00    +0.175 C 
ENDROOT
BRANCH   8   3
ATOM      3  O   UNL     1      15.122   6.575   1.203  0.00  0.00    -0.485 OA
BRANCH   3  14
ATOM     14  C   UNL     1      14.698   7.042   2.416  0.00  0.00    +0.121 A 
ATOM     20  C   UNL     1      13.420   7.587   2.546  0.00  0.00    +0.047 A 
ATOM     21  C   UNL     1      15.543   6.975   3.523  0.00  0.00    +0.047 A 
ATOM     22  C   UNL     1      13.835   7.997   4.890  0.00  0.00    +0.088 A 
ATOM     23  C   UNL     1      12.989   8.065   3.783  0.00  0.00    +0.030 A 
ATOM     24  C   UNL     1      15.112   7.452   4.760  0.00  0.00    +0.030 A 
BRANCH  22   1
ATOM      1  S   UNL     1      13.295   8.596   6.440  0.00  0.00    -0.006 S 
ATOM      4  O   UNL     1      13.109   7.469   7.343  0.00  0.00    -0.170 OA
ATOM      5  O   UNL     1      14.170   9.695   6.825  0.00  0.00    -0.170 OA
ATOM     28  C   UNL     1      11.681   9.270   6.115  0.00  0.00    +0.200 C 
ENDBRANCH  22   1
ENDBRANCH   3  14
ENDBRANCH   8   3
BRANCH   6  11
ATOM     11  C   UNL     1      11.265   4.039   0.305  0.00  0.00    +0.119 C 
BRANCH  11  13
ATOM     13  C   UNL     1      10.814   4.639   1.610  0.00  0.00    -0.033 A 
ATOM     15  C   UNL     1      10.148   5.865   1.620  0.00  0.00    +0.005 A 
ATOM     16  C   UNL     1      11.062   3.969   2.808  0.00  0.00    +0.005 A 
ATOM     17  C   UNL     1       9.978   5.752   4.028  0.00  0.00    -0.018 A 
ATOM     18  C   UNL     1       9.731   6.421   2.829  0.00  0.00    +0.009 A 
ATOM     19  C   UNL     1      10.644   4.525   4.017  0.00  0.00    +0.009 A 
BRANCH  17  25
ATOM     25  C   UNL     1       9.545   6.328   5.282  0.00  0.00    -0.018 A 
ATOM     26  C   UNL     1       8.595   7.348   5.288  0.00  0.00    +0.008 A 
ATOM     27  C   UNL     1      10.077   5.863   6.484  0.00  0.00    +0.008 A 
ATOM     29  C   UNL     1       8.176   7.905   6.497  0.00  0.00    +0.001 A 
ATOM     30  C   UNL     1       9.658   6.419   7.693  0.00  0.00    +0.001 A 
ATOM     31  C   UNL     1       8.707   7.440   7.700  0.00  0.00    +0.000 A 
ENDBRANCH  17  25
ENDBRANCH  11  13
ENDBRANCH   6  11
TORSDOF 6
ENDMDL
MODEL 6
REMARK VINA RESULT:      -6.8     19.195     21.666
REMARK  Name = 75536919
REMARK  7 active torsions:
REMARK  status: ('A' for Active; 'I' for Inactive)
REMARK    1  A    between atoms: S_1  and  C_22
REMARK    2  A    between atoms: S_1  and  C_28
REMARK    3  A    between atoms: O_3  and  C_8
REMARK    4  A    between atoms: O_3  and  C_14
REMARK    5  A    between atoms: N_6  and  C_11
REMARK    6  A    between atoms: C_11  and  C_13
REMARK    7  A    between atoms: C_17  and  C_25
REMARK                            x       y       z     vdW  Elec       q    Type
REMARK                         _______ _______ _______ _____ _____    ______ ____
ROOT
ATOM      2  O   UNL     1      10.000  -6.967  36.021  0.00  0.00    -0.375 OA
ATOM      6  N   UNL     1       7.944  -6.968  34.007  0.00  0.00    -0.292 NA
ATOM      7  C   UNL     1       8.719  -5.811  33.559  0.00  0.00    +0.131 C 
ATOM      8  C   UNL     1      10.223  -6.054  33.741  0.00  0.00    +0.213 C 
ATOM      9  C   UNL     1       7.628  -6.972  35.439  0.00  0.00    +0.113 C 
ATOM     10  C   UNL     1      10.717  -6.068  35.185  0.00  0.00    +0.205 C 
ATOM     12  C   UNL     1       8.719  -6.465  36.380  0.00  0.00    +0.175 C 
ENDROOT
BRANCH   8   3
ATOM      3  O   UNL     1      10.922  -5.031  33.032  0.00  0.00    -0.485 OA
BRANCH   3  14
ATOM     14  C   UNL     1      11.942  -5.438  32.218  0.00  0.00    +0.121 A 
ATOM     20  C   UNL     1      13.144  -4.730  32.197  0.00  0.00    +0.047 A 
ATOM     21  C   UNL     1      11.781  -6.561  31.406  0.00  0.00    +0.047 A 
ATOM     22  C   UNL     1      14.022  -6.268  30.554  0.00  0.00    +0.088 A 
ATOM     23  C   UNL     1      14.183  -5.146  31.366  0.00  0.00    +0.030 A 
ATOM     24  C   UNL     1      12.820  -6.976  30.575  0.00  0.00    +0.030 A 
BRANCH  22   1
ATOM      1  S   UNL     1      15.324  -6.788  29.512  0.00  0.00    -0.006 S 
ATOM      4  O   UNL     1      15.829  -8.067  29.991  0.00  0.00    -0.170 OA
ATOM      5  O   UNL     1      14.872  -6.659  28.134  0.00  0.00    -0.170 OA
ATOM     28  C   UNL     1      16.610  -5.589  29.782  0.00  0.00    +0.200 C 
ENDBRANCH  22   1
ENDBRANCH   3  14
ENDBRANCH   8   3
BRANCH   6  11
ATOM     11  C   UNL     1       6.718  -7.129  33.224  0.00  0.00    +0.119 C 
BRANCH  11  13
ATOM     13  C   UNL     1       6.746  -8.380  32.387  0.00  0.00    -0.033 A 
ATOM     15  C   UNL     1       6.760  -8.287  30.995  0.00  0.00    +0.005 A 
ATOM     16  C   UNL     1       6.758  -9.631  33.004  0.00  0.00    +0.005 A 
ATOM     17  C   UNL     1       6.797 -10.698  30.836  0.00  0.00    -0.018 A 
ATOM     18  C   UNL     1       6.785  -9.447  30.220  0.00  0.00    +0.009 A 
ATOM     19  C   UNL     1       6.783 -10.790  32.228  0.00  0.00    +0.009 A 
BRANCH  17  25
ATOM     25  C   UNL     1       6.823 -11.900  30.032  0.00  0.00    -0.018 A 
ATOM     26  C   UNL     1       5.826 -12.862  30.184  0.00  0.00    +0.008 A 
ATOM     27  C   UNL     1       7.847 -12.098  29.105  0.00  0.00    +0.008 A 
ATOM     29  C   UNL     1       5.851 -14.023  29.409  0.00  0.00    +0.001 A 
ATOM     30  C   UNL     1       7.872 -13.257  28.330  0.00  0.00    +0.001 A 
ATOM     31  C   UNL     1       6.874 -14.220  28.482  0.00  0.00    +0.000 A 
ENDBRANCH  17  25
ENDBRANCH  11  13
ENDBRANCH   6  11
TORSDOF 6
ENDMDL
MODEL 7
REMARK VINA RESULT:      -6.7     24.954     28.451
REMARK  Name = 75536919
REMARK  7 active torsions:
REMARK  status: ('A' for Active; 'I' for Inactive)
REMARK    1  A    between atoms: S_1  and  C_22
REMARK    2  A    between atoms: S_1  and  C_28
REMARK    3  A    between atoms: O_3  and  C_8
REMARK    4  A    between atoms: O_3  and  C_14
REMARK    5  A    between atoms: N_6  and  C_11
REMARK    6  A    between atoms: C_11  and  C_13
REMARK    7  A    between atoms: C_17  and  C_25
REMARK                            x       y       z     vdW  Elec       q    Type
REMARK                         _______ _______ _______ _____ _____    ______ ____
ROOT
ATOM      2  O   UNL     1       0.224  12.464   4.477  0.00  0.00    -0.375 OA
ATOM      6  N   UNL     1       0.244  10.978   2.011  0.00  0.00    -0.292 NA
ATOM      7  C   UNL     1       0.020   9.880   2.952  0.00  0.00    +0.131 C 
ATOM      8  C   UNL     1      -0.918  10.313   4.086  0.00  0.00    +0.213 C 
ATOM      9  C   UNL     1       1.337  11.883   2.382  0.00  0.00    +0.113 C 
ATOM     10  C   UNL     1      -0.328  11.303   5.086  0.00  0.00    +0.205 C 
ATOM     12  C   UNL     1       1.483  12.205   3.868  0.00  0.00    +0.175 C 
ENDROOT
BRANCH   8   3
ATOM      3  O   UNL     1      -1.321   9.140   4.794  0.00  0.00    -0.485 OA
BRANCH   3  14
ATOM     14  C   UNL     1      -2.636   8.781   4.684  0.00  0.00    +0.121 A 
ATOM     20  C   UNL     1      -3.532   9.609   4.008  0.00  0.00    +0.047 A 
ATOM     21  C   UNL     1      -3.081   7.585   5.248  0.00  0.00    +0.047 A 
ATOM     22  C   UNL     1      -5.318   8.047   4.462  0.00  0.00    +0.088 A 
ATOM     23  C   UNL     1      -4.873   9.242   3.897  0.00  0.00    +0.030 A 
ATOM     24  C   UNL     1      -4.422   7.218   5.137  0.00  0.00    +0.030 A 
BRANCH  22   1
ATOM      1  S   UNL     1      -6.997   7.588   4.324  0.00  0.00    -0.006 S 
ATOM      4  O   UNL     1      -7.073   6.198   3.894  0.00  0.00    -0.170 OA
ATOM      5  O   UNL     1      -7.678   8.007   5.541  0.00  0.00    -0.170 OA
ATOM     28  C   UNL     1      -7.617   8.578   2.982  0.00  0.00    +0.200 C 
ENDBRANCH  22   1
ENDBRANCH   3  14
ENDBRANCH   8   3
BRANCH   6  11
ATOM     11  C   UNL     1       0.444  10.484   0.648  0.00  0.00    +0.119 C 
BRANCH  11  13
ATOM     13  C   UNL     1      -0.845  10.443  -0.128  0.00  0.00    -0.033 A 
ATOM     15  C   UNL     1      -1.541   9.241  -0.262  0.00  0.00    +0.005 A 
ATOM     16  C   UNL     1      -1.344  11.607  -0.714  0.00  0.00    +0.005 A 
ATOM     17  C   UNL     1      -3.233  10.366  -1.568  0.00  0.00    -0.018 A 
ATOM     18  C   UNL     1      -2.734   9.203  -0.982  0.00  0.00    +0.009 A 
ATOM     19  C   UNL     1      -2.538  11.568  -1.434  0.00  0.00    +0.009 A 
BRANCH  17  25
ATOM     25  C   UNL     1      -4.472  10.327  -2.314  0.00  0.00    -0.018 A 
ATOM     26  C   UNL     1      -4.602  11.068  -3.488  0.00  0.00    +0.008 A 
ATOM     27  C   UNL     1      -5.537   9.549  -1.859  0.00  0.00    +0.008 A 
ATOM     29  C   UNL     1      -5.796  11.030  -4.209  0.00  0.00    +0.001 A 
ATOM     30  C   UNL     1      -6.731   9.512  -2.579  0.00  0.00    +0.001 A 
ATOM     31  C   UNL     1      -6.861  10.252  -3.755  0.00  0.00    +0.000 A 
ENDBRANCH  17  25
ENDBRANCH  11  13
ENDBRANCH   6  11
TORSDOF 6
ENDMDL
MODEL 8
REMARK VINA RESULT:      -6.7     27.222     30.646
REMARK  Name = 75536919
REMARK  7 active torsions:
REMARK  status: ('A' for Active; 'I' for Inactive)
REMARK    1  A    between atoms: S_1  and  C_22
REMARK    2  A    between atoms: S_1  and  C_28
REMARK    3  A    between atoms: O_3  and  C_8
REMARK    4  A    between atoms: O_3  and  C_14
REMARK    5  A    between atoms: N_6  and  C_11
REMARK    6  A    between atoms: C_11  and  C_13
REMARK    7  A    between atoms: C_17  and  C_25
REMARK                            x       y       z     vdW  Elec       q    Type
REMARK                         _______ _______ _______ _____ _____    ______ ____
ROOT
ATOM      2  O   UNL     1      -9.925 -12.772  19.679  0.00  0.00    -0.375 OA
ATOM      6  N   UNL     1      -9.192 -10.515  18.048  0.00  0.00    -0.292 NA
ATOM      7  C   UNL     1      -7.891 -10.812  18.648  0.00  0.00    +0.131 C 
ATOM      8  C   UNL     1      -7.675 -12.326  18.770  0.00  0.00    +0.213 C 
ATOM      9  C   UNL     1     -10.303 -10.455  19.004  0.00  0.00    +0.113 C 
ATOM     10  C   UNL     1      -8.533 -13.029  19.818  0.00  0.00    +0.205 C 
ATOM     12  C   UNL     1     -10.282 -11.475  20.141  0.00  0.00    +0.175 C 
ENDROOT
BRANCH   8   3
ATOM      3  O   UNL     1      -6.301 -12.550  19.084  0.00  0.00    -0.485 OA
BRANCH   3  14
ATOM     14  C   UNL     1      -5.398 -12.310  18.086  0.00  0.00    +0.121 A 
ATOM     20  C   UNL     1      -5.425 -13.077  16.921  0.00  0.00    +0.047 A 
ATOM     21  C   UNL     1      -4.449 -11.299  18.233  0.00  0.00    +0.047 A 
ATOM     22  C   UNL     1      -3.554 -11.821  16.051  0.00  0.00    +0.088 A 
ATOM     23  C   UNL     1      -4.503 -12.833  15.904  0.00  0.00    +0.030 A 
ATOM     24  C   UNL     1      -3.527 -11.054  17.216  0.00  0.00    +0.030 A 
BRANCH  22   1
ATOM      1  S   UNL     1      -2.399 -11.515  14.777  0.00  0.00    -0.006 S 
ATOM      4  O   UNL     1      -1.874 -12.788  14.300  0.00  0.00    -0.170 OA
ATOM      5  O   UNL     1      -3.005 -10.584  13.836  0.00  0.00    -0.170 OA
ATOM     28  C   UNL     1      -1.057 -10.675  15.591  0.00  0.00    +0.200 C 
ENDBRANCH  22   1
ENDBRANCH   3  14
ENDBRANCH   8   3
BRANCH   6  11
ATOM     11  C   UNL     1      -9.149  -9.288  17.253  0.00  0.00    +0.119 C 
BRANCH  11  13
ATOM     13  C   UNL     1      -8.376  -9.474  15.975  0.00  0.00    -0.033 A 
ATOM     15  C   UNL     1      -9.045  -9.479  14.750  0.00  0.00    +0.005 A 
ATOM     16  C   UNL     1      -6.992  -9.642  16.014  0.00  0.00    +0.005 A 
ATOM     17  C   UNL     1      -6.945  -9.820  13.605  0.00  0.00    -0.018 A 
ATOM     18  C   UNL     1      -8.329  -9.652  13.566  0.00  0.00    +0.009 A 
ATOM     19  C   UNL     1      -6.276  -9.816  14.830  0.00  0.00    +0.009 A 
BRANCH  17  25
ATOM     25  C   UNL     1      -6.203 -10.000  12.377  0.00  0.00    -0.018 A 
ATOM     26  C   UNL     1      -5.793  -8.888  11.642  0.00  0.00    +0.008 A 
ATOM     27  C   UNL     1      -5.897 -11.284  11.926  0.00  0.00    +0.008 A 
ATOM     29  C   UNL     1      -5.076  -9.059  10.457  0.00  0.00    +0.001 A 
ATOM     30  C   UNL     1      -5.181 -11.456  10.742  0.00  0.00    +0.001 A 
ATOM     31  C   UNL     1      -4.770 -10.343  10.007  0.00  0.00    +0.000 A 
ENDBRANCH  17  25
ENDBRANCH  11  13
ENDBRANCH   6  11
TORSDOF 6
ENDMDL
MODEL 9
REMARK VINA RESULT:      -6.6     29.241     31.012
REMARK  Name = 75536919
REMARK  7 active torsions:
REMARK  status: ('A' for Active; 'I' for Inactive)
REMARK    1  A    between atoms: S_1  and  C_22
REMARK    2  A    between atoms: S_1  and  C_28
REMARK    3  A    between atoms: O_3  and  C_8
REMARK    4  A    between atoms: O_3  and  C_14
REMARK    5  A    between atoms: N_6  and  C_11
REMARK    6  A    between atoms: C_11  and  C_13
REMARK    7  A    between atoms: C_17  and  C_25
REMARK                            x       y       z     vdW  Elec       q    Type
REMARK                         _______ _______ _______ _____ _____    ______ ____
ROOT
ATOM      2  O   UNL     1      -6.921 -11.988   8.122  0.00  0.00    -0.375 OA
ATOM      6  N   UNL     1      -4.962 -10.453   9.569  0.00  0.00    -0.292 NA
ATOM      7  C   UNL     1      -5.354  -9.461   8.569  0.00  0.00    +0.131 C 
ATOM      8  C   UNL     1      -6.862  -9.527   8.291  0.00  0.00    +0.213 C 
ATOM      9  C   UNL     1      -4.661 -11.782   9.024  0.00  0.00    +0.113 C 
ATOM     10  C   UNL     1      -7.336 -10.763   7.530  0.00  0.00    +0.205 C 
ATOM     12  C   UNL     1      -5.548 -12.266   7.879  0.00  0.00    +0.175 C 
ENDROOT
BRANCH   8   3
ATOM      3  O   UNL     1      -7.222  -8.367   7.541  0.00  0.00    -0.485 OA
BRANCH   3  14
ATOM     14  C   UNL     1      -8.263  -7.625   8.025  0.00  0.00    +0.121 A 
ATOM     20  C   UNL     1      -9.357  -8.258   8.616  0.00  0.00    +0.047 A 
ATOM     21  C   UNL     1      -8.232  -6.234   7.927  0.00  0.00    +0.047 A 
ATOM     22  C   UNL     1     -10.388  -6.109   9.010  0.00  0.00    +0.088 A 
ATOM     23  C   UNL     1     -10.419  -7.500   9.108  0.00  0.00    +0.030 A 
ATOM     24  C   UNL     1      -9.294  -5.476   8.419  0.00  0.00    +0.030 A 
BRANCH  22   1
ATOM      1  S   UNL     1     -11.718  -5.160   9.626  0.00  0.00    -0.006 S 
ATOM      4  O   UNL     1     -12.843  -5.273   8.708  0.00  0.00    -0.170 OA
ATOM      5  O   UNL     1     -11.896  -5.496  11.032  0.00  0.00    -0.170 OA
ATOM     28  C   UNL     1     -11.141  -3.479   9.534  0.00  0.00    +0.200 C 
ENDBRANCH  22   1
ENDBRANCH   3  14
ENDBRANCH   8   3
BRANCH   6  11
ATOM     11  C   UNL     1      -3.842  -9.981  10.384  0.00  0.00    +0.119 C 
BRANCH  11  13
ATOM     13  C   UNL     1      -4.104 -10.158  11.855  0.00  0.00    -0.033 A 
ATOM     15  C   UNL     1      -3.069 -10.549  12.706  0.00  0.00    +0.005 A 
ATOM     16  C   UNL     1      -5.381  -9.931  12.369  0.00  0.00    +0.005 A 
ATOM     17  C   UNL     1      -4.589 -10.487  14.583  0.00  0.00    -0.018 A 
ATOM     18  C   UNL     1      -3.313 -10.713  14.069  0.00  0.00    +0.009 A 
ATOM     19  C   UNL     1      -5.624 -10.095  13.733  0.00  0.00    +0.009 A 
BRANCH  17  25
ATOM     25  C   UNL     1      -4.841 -10.656  15.997  0.00  0.00    -0.018 A 
ATOM     26  C   UNL     1      -3.891 -11.282  16.804  0.00  0.00    +0.008 A 
ATOM     27  C   UNL     1      -6.034 -10.196  16.554  0.00  0.00    +0.008 A 
ATOM     29  C   UNL     1      -4.133 -11.446  18.168  0.00  0.00    +0.001 A 
ATOM     30  C   UNL     1      -6.276 -10.360  17.918  0.00  0.00    +0.001 A 
ATOM     31  C   UNL     1      -5.326 -10.985  18.725  0.00  0.00    +0.000 A 
ENDBRANCH  17  25
ENDBRANCH  11  13
ENDBRANCH   6  11
TORSDOF 6
ENDMDL
MODEL 10
REMARK VINA RESULT:      -6.4     29.099     31.445
REMARK  Name = 75536919
REMARK  7 active torsions:
REMARK  status: ('A' for Active; 'I' for Inactive)
REMARK    1  A    between atoms: S_1  and  C_22
REMARK    2  A    between atoms: S_1  and  C_28
REMARK    3  A    between atoms: O_3  and  C_8
REMARK    4  A    between atoms: O_3  and  C_14
REMARK    5  A    between atoms: N_6  and  C_11
REMARK    6  A    between atoms: C_11  and  C_13
REMARK    7  A    between atoms: C_17  and  C_25
REMARK                            x       y       z     vdW  Elec       q    Type
REMARK                         _______ _______ _______ _____ _____    ______ ____
ROOT
ATOM      2  O   UNL     1      -5.599 -12.994   9.159  0.00  0.00    -0.375 OA
ATOM      6  N   UNL     1      -4.044 -11.038  10.589  0.00  0.00    -0.292 NA
ATOM      7  C   UNL     1      -4.043 -10.423   9.262  0.00  0.00    +0.131 C 
ATOM      8  C   UNL     1      -5.401 -10.607   8.571  0.00  0.00    +0.213 C 
ATOM      9  C   UNL     1      -3.698 -12.464  10.600  0.00  0.00    +0.113 C 
ATOM     10  C   UNL     1      -5.722 -12.029   8.122  0.00  0.00    +0.205 C 
ATOM     12  C   UNL     1      -4.241 -13.306   9.447  0.00  0.00    +0.175 C 
ENDROOT
BRANCH   8   3
ATOM      3  O   UNL     1      -5.431  -9.752   7.428  0.00  0.00    -0.485 OA
BRANCH   3  14
ATOM     14  C   UNL     1      -6.625  -9.148   7.147  0.00  0.00    +0.121 A 
ATOM     20  C   UNL     1      -7.429  -8.675   8.184  0.00  0.00    +0.047 A 
ATOM     21  C   UNL     1      -7.039  -9.006   5.823  0.00  0.00    +0.047 A 
ATOM     22  C   UNL     1      -9.062  -7.917   6.573  0.00  0.00    +0.088 A 
ATOM     23  C   UNL     1      -8.647  -8.060   7.897  0.00  0.00    +0.030 A 
ATOM     24  C   UNL     1      -8.257  -8.391   5.535  0.00  0.00    +0.030 A 
BRANCH  22   1
ATOM      1  S   UNL     1     -10.587  -7.148   6.212  0.00  0.00    -0.006 S 
ATOM      4  O   UNL     1     -10.837  -6.108   7.201  0.00  0.00    -0.170 OA
ATOM      5  O   UNL     1     -10.598  -6.816   4.794  0.00  0.00    -0.170 OA
ATOM     28  C   UNL     1     -11.800  -8.422   6.484  0.00  0.00    +0.200 C 
ENDBRANCH  22   1
ENDBRANCH   3  14
ENDBRANCH   8   3
BRANCH   6  11
ATOM     11  C   UNL     1      -3.182 -10.308  11.520  0.00  0.00    +0.119 C 
BRANCH  11  13
ATOM     13  C   UNL     1      -3.651 -10.445  12.944  0.00  0.00    -0.033 A 
ATOM     15  C   UNL     1      -4.997 -10.249  13.256  0.00  0.00    +0.005 A 
ATOM     16  C   UNL     1      -2.741 -10.766  13.951  0.00  0.00    +0.005 A 
ATOM     17  C   UNL     1      -4.522 -10.696  15.582  0.00  0.00    -0.018 A 
ATOM     18  C   UNL     1      -5.431 -10.375  14.576  0.00  0.00    +0.009 A 
ATOM     19  C   UNL     1      -3.176 -10.892  15.270  0.00  0.00    +0.009 A 
BRANCH  17  25
ATOM     25  C   UNL     1      -4.972 -10.828  16.951  0.00  0.00    -0.018 A 
ATOM     26  C   UNL     1      -6.169 -10.233  17.350  0.00  0.00    +0.008 A 
ATOM     27  C   UNL     1      -4.210 -11.548  17.871  0.00  0.00    +0.008 A 
ATOM     29  C   UNL     1      -6.604 -10.360  18.670  0.00  0.00    +0.001 A 
ATOM     30  C   UNL     1      -4.645 -11.674  19.190  0.00  0.00    +0.001 A 
ATOM     31  C   UNL     1      -5.843 -11.080  19.590  0.00  0.00    +0.000 A 
ENDBRANCH  17  25
ENDBRANCH  11  13
ENDBRANCH   6  11
TORSDOF 6
ENDMDL
