MODEL 1
REMARK VINA RESULT:      -7.4      0.000      0.000
REMARK  Name = 51136866
REMARK  11 active torsions:
REMARK  status: ('A' for Active; 'I' for Inactive)
REMARK    1  A    between atoms: O_2  and  C_27
REMARK    2  A    between atoms: O_2  and  C_28
REMARK    3  A    between atoms: O_3  and  C_29
REMARK    4  A    between atoms: O_3  and  C_30
REMARK    5  A    between atoms: N_4  and  C_12
REMARK    6  A    between atoms: C_8  and  C_13
REMARK    7  A    between atoms: C_12  and  C_14
REMARK    8  A    between atoms: C_14  and  C_15
REMARK    9  A    between atoms: C_15  and  C_16
REMARK   10  A    between atoms: C_17  and  C_20
REMARK   11  A    between atoms: C_28  and  C_29
REMARK                            x       y       z     vdW  Elec       q    Type
REMARK                         _______ _______ _______ _____ _____    ______ ____
ROOT
ATOM      1  O   UNL     1     -16.442   3.570  22.278  0.00  0.00    -0.336 OA
ATOM      5  N   UNL     1     -16.243   4.577  24.268  0.00  0.00    -0.190 NA
ATOM      6  N   UNL     1     -16.524   2.554  23.239  0.00  0.00    -0.056 NA
ATOM     13  C   UNL     1     -16.276   4.728  22.970  0.00  0.00    +0.245 A 
ATOM     17  C   UNL     1     -16.399   3.226  24.386  0.00  0.00    +0.204 A 
ENDROOT
BRANCH  17  20
ATOM      7  N   UNL     1     -16.713   0.552  26.952  0.00  0.00    -0.221 NA
ATOM     20  C   UNL     1     -16.424   2.579  25.667  0.00  0.00    +0.041 A 
ATOM     23  C   UNL     1     -16.198   3.297  26.835  0.00  0.00    +0.018 A 
ATOM     25  C   UNL     1     -16.675   1.221  25.777  0.00  0.00    +0.126 A 
ATOM     26  C   UNL     1     -16.230   2.644  28.063  0.00  0.00    +0.068 A 
ATOM     27  C   UNL     1     -16.489   1.283  28.066  0.00  0.00    +0.215 A 
BRANCH  27   2
ATOM      2  O   UNL     1     -16.525   0.615  29.263  0.00  0.00    -0.474 OA
BRANCH   2  28
ATOM     28  C   UNL     1     -15.577   1.013  30.246  0.00  0.00    +0.258 C 
BRANCH  28  29
ATOM     29  C   UNL     1     -14.207   0.495  29.849  0.00  0.00    +0.200 C 
BRANCH  29   3
ATOM      3  O   UNL     1     -14.293  -0.902  29.597  0.00  0.00    -0.380 OA
ATOM     30  C   UNL     1     -13.040  -1.436  29.196  0.00  0.00    +0.194 C 
ENDBRANCH  29   3
ENDBRANCH  28  29
ENDBRANCH   2  28
ENDBRANCH  27   2
ENDBRANCH  17  20
BRANCH  13   8
ATOM      4  N   UNL     1     -15.027   5.951  21.198  0.00  0.00    -0.291 NA
ATOM      8  C   UNL     1     -16.159   5.993  22.146  0.00  0.00    +0.146 C 
ATOM      9  C   UNL     1     -17.397   6.245  21.265  0.00  0.00    +0.030 C 
ATOM     10  C   UNL     1     -15.409   6.789  20.060  0.00  0.00    +0.085 C 
ATOM     11  C   UNL     1     -16.856   6.391  19.850  0.00  0.00    +0.017 C 
BRANCH   4  12
ATOM     12  C   UNL     1     -13.765   6.373  21.791  0.00  0.00    +0.085 C 
BRANCH  12  14
ATOM     14  C   UNL     1     -13.129   7.480  20.951  0.00  0.00    +0.020 C 
BRANCH  14  15
ATOM     15  C   UNL     1     -11.646   7.197  20.698  0.00  0.00    +0.036 C 
BRANCH  15  16
ATOM     16  C   UNL     1     -11.120   7.987  19.527  0.00  0.00    -0.047 A 
ATOM     18  C   UNL     1     -10.651   9.287  19.716  0.00  0.00    +0.003 A 
ATOM     19  C   UNL     1     -11.104   7.418  18.253  0.00  0.00    +0.003 A 
ATOM     21  C   UNL     1     -10.165  10.017  18.632  0.00  0.00    +0.000 A 
ATOM     22  C   UNL     1     -10.617   8.148  17.169  0.00  0.00    +0.000 A 
ATOM     24  C   UNL     1     -10.148   9.449  17.359  0.00  0.00    +0.000 A 
ENDBRANCH  15  16
ENDBRANCH  14  15
ENDBRANCH  12  14
ENDBRANCH   4  12
ENDBRANCH  13   8
TORSDOF 10
ENDMDL
MODEL 2
REMARK VINA RESULT:      -6.8     28.216     31.779
REMARK  Name = 51136866
REMARK  11 active torsions:
REMARK  status: ('A' for Active; 'I' for Inactive)
REMARK    1  A    between atoms: O_2  and  C_27
REMARK    2  A    between atoms: O_2  and  C_28
REMARK    3  A    between atoms: O_3  and  C_29
REMARK    4  A    between atoms: O_3  and  C_30
REMARK    5  A    between atoms: N_4  and  C_12
REMARK    6  A    between atoms: C_8  and  C_13
REMARK    7  A    between atoms: C_12  and  C_14
REMARK    8  A    between atoms: C_14  and  C_15
REMARK    9  A    between atoms: C_15  and  C_16
REMARK   10  A    between atoms: C_17  and  C_20
REMARK   11  A    between atoms: C_28  and  C_29
REMARK                            x       y       z     vdW  Elec       q    Type
REMARK                         _______ _______ _______ _____ _____    ______ ____
ROOT
ATOM      1  O   UNL     1      15.460   8.612  20.055  0.00  0.00    -0.336 OA
ATOM      5  N   UNL     1      16.131   6.530  19.574  0.00  0.00    -0.190 NA
ATOM      6  N   UNL     1      16.737   8.475  20.614  0.00  0.00    -0.056 NA
ATOM     13  C   UNL     1      15.180   7.421  19.463  0.00  0.00    +0.245 A 
ATOM     17  C   UNL     1      17.066   7.222  20.288  0.00  0.00    +0.204 A 
ENDROOT
BRANCH  17  20
ATOM      7  N   UNL     1      20.220   6.589  22.154  0.00  0.00    -0.221 NA
ATOM     20  C   UNL     1      18.319   6.631  20.661  0.00  0.00    +0.041 A 
ATOM     23  C   UNL     1      18.852   5.570  19.939  0.00  0.00    +0.018 A 
ATOM     25  C   UNL     1      19.035   7.100  21.750  0.00  0.00    +0.126 A 
ATOM     26  C   UNL     1      20.070   5.017  20.324  0.00  0.00    +0.068 A 
ATOM     27  C   UNL     1      20.707   5.559  21.428  0.00  0.00    +0.215 A 
BRANCH  27   2
ATOM      2  O   UNL     1      21.908   5.031  21.828  0.00  0.00    -0.474 OA
BRANCH   2  28
ATOM     28  C   UNL     1      22.927   4.941  20.840  0.00  0.00    +0.258 C 
BRANCH  28  29
ATOM     29  C   UNL     1      23.871   3.811  21.205  0.00  0.00    +0.200 C 
BRANCH  29   3
ATOM      3  O   UNL     1      23.210   2.568  20.999  0.00  0.00    -0.380 OA
ATOM     30  C   UNL     1      24.112   1.476  21.098  0.00  0.00    +0.194 C 
ENDBRANCH  29   3
ENDBRANCH  28  29
ENDBRANCH   2  28
ENDBRANCH  27   2
ENDBRANCH  17  20
BRANCH  13   8
ATOM      4  N   UNL     1      12.793   8.124  19.434  0.00  0.00    -0.291 NA
ATOM      8  C   UNL     1      13.836   7.311  18.775  0.00  0.00    +0.146 C 
ATOM      9  C   UNL     1      13.868   7.820  17.322  0.00  0.00    +0.030 C 
ATOM     10  C   UNL     1      11.845   8.507  18.387  0.00  0.00    +0.085 C 
ATOM     11  C   UNL     1      12.771   8.872  17.244  0.00  0.00    +0.017 C 
BRANCH   4  12
ATOM     12  C   UNL     1      12.140   7.435  20.539  0.00  0.00    +0.085 C 
BRANCH  12  14
ATOM     14  C   UNL     1      10.883   8.190  20.966  0.00  0.00    +0.020 C 
BRANCH  14  15
ATOM     15  C   UNL     1      10.987   8.658  22.419  0.00  0.00    +0.036 C 
BRANCH  15  16
ATOM     16  C   UNL     1      11.102  10.158  22.515  0.00  0.00    -0.047 A 
ATOM     18  C   UNL     1      11.512  10.898  21.406  0.00  0.00    +0.003 A 
ATOM     19  C   UNL     1      10.801  10.805  23.713  0.00  0.00    +0.003 A 
ATOM     21  C   UNL     1      11.620  12.286  21.495  0.00  0.00    +0.000 A 
ATOM     22  C   UNL     1      10.907  12.193  23.802  0.00  0.00    +0.000 A 
ATOM     24  C   UNL     1      11.318  12.934  22.693  0.00  0.00    +0.000 A 
ENDBRANCH  15  16
ENDBRANCH  14  15
ENDBRANCH  12  14
ENDBRANCH   4  12
ENDBRANCH  13   8
TORSDOF 10
ENDMDL
MODEL 3
REMARK VINA RESULT:      -6.7      2.607     10.620
REMARK  Name = 51136866
REMARK  11 active torsions:
REMARK  status: ('A' for Active; 'I' for Inactive)
REMARK    1  A    between atoms: O_2  and  C_27
REMARK    2  A    between atoms: O_2  and  C_28
REMARK    3  A    between atoms: O_3  and  C_29
REMARK    4  A    between atoms: O_3  and  C_30
REMARK    5  A    between atoms: N_4  and  C_12
REMARK    6  A    between atoms: C_8  and  C_13
REMARK    7  A    between atoms: C_12  and  C_14
REMARK    8  A    between atoms: C_14  and  C_15
REMARK    9  A    between atoms: C_15  and  C_16
REMARK   10  A    between atoms: C_17  and  C_20
REMARK   11  A    between atoms: C_28  and  C_29
REMARK                            x       y       z     vdW  Elec       q    Type
REMARK                         _______ _______ _______ _____ _____    ______ ____
ROOT
ATOM      1  O   UNL     1     -16.715   3.298  22.959  0.00  0.00    -0.336 OA
ATOM      5  N   UNL     1     -15.071   4.366  24.043  0.00  0.00    -0.190 NA
ATOM      6  N   UNL     1     -16.142   4.177  22.030  0.00  0.00    -0.056 NA
ATOM     13  C   UNL     1     -16.026   3.475  24.117  0.00  0.00    +0.245 A 
ATOM     17  C   UNL     1     -15.181   4.770  22.744  0.00  0.00    +0.204 A 
ENDROOT
BRANCH  17  20
ATOM      7  N   UNL     1     -13.971   8.069  21.525  0.00  0.00    -0.221 NA
ATOM     20  C   UNL     1     -14.314   5.769  22.190  0.00  0.00    +0.041 A 
ATOM     23  C   UNL     1     -13.022   5.453  21.786  0.00  0.00    +0.018 A 
ATOM     25  C   UNL     1     -14.738   7.080  22.040  0.00  0.00    +0.126 A 
ATOM     26  C   UNL     1     -12.204   6.443  21.252  0.00  0.00    +0.068 A 
ATOM     27  C   UNL     1     -12.722   7.723  21.144  0.00  0.00    +0.215 A 
BRANCH  27   2
ATOM      2  O   UNL     1     -11.936   8.717  20.621  0.00  0.00    -0.474 OA
BRANCH   2  28
ATOM     28  C   UNL     1     -11.167   8.386  19.471  0.00  0.00    +0.258 C 
BRANCH  28  29
ATOM     29  C   UNL     1     -10.393   9.612  19.023  0.00  0.00    +0.200 C 
BRANCH  29   3
ATOM      3  O   UNL     1      -9.700   9.309  17.819  0.00  0.00    -0.380 OA
ATOM     30  C   UNL     1     -10.454   8.438  16.989  0.00  0.00    +0.194 C 
ENDBRANCH  29   3
ENDBRANCH  28  29
ENDBRANCH   2  28
ENDBRANCH  27   2
ENDBRANCH  17  20
BRANCH  13   8
ATOM      4  N   UNL     1     -17.407   3.329  26.182  0.00  0.00    -0.291 NA
ATOM      8  C   UNL     1     -16.459   2.626  25.294  0.00  0.00    +0.146 C 
ATOM      9  C   UNL     1     -17.202   1.348  24.864  0.00  0.00    +0.030 C 
ATOM     10  C   UNL     1     -18.250   2.296  26.787  0.00  0.00    +0.085 C 
ATOM     11  C   UNL     1     -18.530   1.389  25.605  0.00  0.00    +0.017 C 
BRANCH   4  12
ATOM     12  C   UNL     1     -16.749   4.157  27.185  0.00  0.00    +0.085 C 
BRANCH  12  14
ATOM     14  C   UNL     1     -15.744   3.326  27.981  0.00  0.00    +0.020 C 
BRANCH  14  15
ATOM     15  C   UNL     1     -15.924   3.536  29.486  0.00  0.00    +0.036 C 
BRANCH  15  16
ATOM     16  C   UNL     1     -15.563   2.298  30.269  0.00  0.00    -0.047 A 
ATOM     18  C   UNL     1     -15.126   2.411  31.588  0.00  0.00    +0.003 A 
ATOM     19  C   UNL     1     -15.666   1.042  29.673  0.00  0.00    +0.003 A 
ATOM     21  C   UNL     1     -14.792   1.266  32.312  0.00  0.00    +0.000 A 
ATOM     22  C   UNL     1     -15.333  -0.103  30.397  0.00  0.00    +0.000 A 
ATOM     24  C   UNL     1     -14.896   0.010  31.717  0.00  0.00    +0.000 A 
ENDBRANCH  15  16
ENDBRANCH  14  15
ENDBRANCH  12  14
ENDBRANCH   4  12
ENDBRANCH  13   8
TORSDOF 10
ENDMDL
MODEL 4
REMARK VINA RESULT:      -6.6     32.706     36.174
REMARK  Name = 51136866
REMARK  11 active torsions:
REMARK  status: ('A' for Active; 'I' for Inactive)
REMARK    1  A    between atoms: O_2  and  C_27
REMARK    2  A    between atoms: O_2  and  C_28
REMARK    3  A    between atoms: O_3  and  C_29
REMARK    4  A    between atoms: O_3  and  C_30
REMARK    5  A    between atoms: N_4  and  C_12
REMARK    6  A    between atoms: C_8  and  C_13
REMARK    7  A    between atoms: C_12  and  C_14
REMARK    8  A    between atoms: C_14  and  C_15
REMARK    9  A    between atoms: C_15  and  C_16
REMARK   10  A    between atoms: C_17  and  C_20
REMARK   11  A    between atoms: C_28  and  C_29
REMARK                            x       y       z     vdW  Elec       q    Type
REMARK                         _______ _______ _______ _____ _____    ______ ____
ROOT
ATOM      1  O   UNL     1      20.990   6.500  22.900  0.00  0.00    -0.336 OA
ATOM      5  N   UNL     1      20.501   5.414  21.004  0.00  0.00    -0.190 NA
ATOM      6  N   UNL     1      19.703   6.914  22.535  0.00  0.00    -0.056 NA
ATOM     13  C   UNL     1      21.386   5.618  21.945  0.00  0.00    +0.245 A 
ATOM     17  C   UNL     1      19.485   6.231  21.408  0.00  0.00    +0.204 A 
ENDROOT
BRANCH  17  20
ATOM      7  N   UNL     1      16.965   5.711  18.723  0.00  0.00    -0.221 NA
ATOM     20  C   UNL     1      18.265   6.341  20.662  0.00  0.00    +0.041 A 
ATOM     23  C   UNL     1      17.223   7.147  21.108  0.00  0.00    +0.018 A 
ATOM     25  C   UNL     1      18.089   5.650  19.474  0.00  0.00    +0.126 A 
ATOM     26  C   UNL     1      16.052   7.235  20.362  0.00  0.00    +0.068 A 
ATOM     27  C   UNL     1      15.975   6.504  19.188  0.00  0.00    +0.215 A 
BRANCH  27   2
ATOM      2  O   UNL     1      14.831   6.574  18.435  0.00  0.00    -0.474 OA
BRANCH   2  28
ATOM     28  C   UNL     1      14.026   7.735  18.601  0.00  0.00    +0.258 C 
BRANCH  28  29
ATOM     29  C   UNL     1      12.635   7.453  18.067  0.00  0.00    +0.200 C 
BRANCH  29   3
ATOM      3  O   UNL     1      11.738   7.308  19.161  0.00  0.00    -0.380 OA
ATOM     30  C   UNL     1      11.347   8.570  19.684  0.00  0.00    +0.194 C 
ENDBRANCH  29   3
ENDBRANCH  28  29
ENDBRANCH   2  28
ENDBRANCH  27   2
ENDBRANCH  17  20
BRANCH  13   8
ATOM      4  N   UNL     1      23.845   5.998  21.885  0.00  0.00    -0.291 NA
ATOM      8  C   UNL     1      22.765   5.016  22.114  0.00  0.00    +0.146 C 
ATOM      9  C   UNL     1      23.013   4.490  23.540  0.00  0.00    +0.030 C 
ATOM     10  C   UNL     1      24.974   5.572  22.714  0.00  0.00    +0.085 C 
ATOM     11  C   UNL     1      24.283   5.184  24.007  0.00  0.00    +0.017 C 
BRANCH   4  12
ATOM     12  C   UNL     1      24.214   6.128  20.481  0.00  0.00    +0.085 C 
BRANCH  12  14
ATOM     14  C   UNL     1      25.557   5.447  20.222  0.00  0.00    +0.020 C 
BRANCH  14  15
ATOM     15  C   UNL     1      25.370   4.124  19.476  0.00  0.00    +0.036 C 
BRANCH  15  16
ATOM     16  C   UNL     1      25.380   2.947  20.417  0.00  0.00    -0.047 A 
ATOM     18  C   UNL     1      24.241   2.153  20.552  0.00  0.00    +0.003 A 
ATOM     19  C   UNL     1      26.526   2.653  21.154  0.00  0.00    +0.003 A 
ATOM     21  C   UNL     1      24.250   1.063  21.424  0.00  0.00    +0.000 A 
ATOM     22  C   UNL     1      26.536   1.563  22.025  0.00  0.00    +0.000 A 
ATOM     24  C   UNL     1      25.397   0.769  22.160  0.00  0.00    +0.000 A 
ENDBRANCH  15  16
ENDBRANCH  14  15
ENDBRANCH  12  14
ENDBRANCH   4  12
ENDBRANCH  13   8
TORSDOF 10
ENDMDL
MODEL 5
REMARK VINA RESULT:      -6.6     29.777     33.281
REMARK  Name = 51136866
REMARK  11 active torsions:
REMARK  status: ('A' for Active; 'I' for Inactive)
REMARK    1  A    between atoms: O_2  and  C_27
REMARK    2  A    between atoms: O_2  and  C_28
REMARK    3  A    between atoms: O_3  and  C_29
REMARK    4  A    between atoms: O_3  and  C_30
REMARK    5  A    between atoms: N_4  and  C_12
REMARK    6  A    between atoms: C_8  and  C_13
REMARK    7  A    between atoms: C_12  and  C_14
REMARK    8  A    between atoms: C_14  and  C_15
REMARK    9  A    between atoms: C_15  and  C_16
REMARK   10  A    between atoms: C_17  and  C_20
REMARK   11  A    between atoms: C_28  and  C_29
REMARK                            x       y       z     vdW  Elec       q    Type
REMARK                         _______ _______ _______ _____ _____    ______ ____
ROOT
ATOM      1  O   UNL     1      16.495   6.612  19.349  0.00  0.00    -0.336 OA
ATOM      5  N   UNL     1      17.993   7.445  20.790  0.00  0.00    -0.190 NA
ATOM      6  N   UNL     1      17.624   5.788  19.258  0.00  0.00    -0.056 NA
ATOM     13  C   UNL     1      16.798   7.562  20.273  0.00  0.00    +0.245 A 
ATOM     17  C   UNL     1      18.463   6.343  20.137  0.00  0.00    +0.204 A 
ENDROOT
BRANCH  17  20
ATOM      7  N   UNL     1      22.116   6.244  20.828  0.00  0.00    -0.221 NA
ATOM     20  C   UNL     1      19.776   5.823  20.386  0.00  0.00    +0.041 A 
ATOM     23  C   UNL     1      20.007   4.452  20.429  0.00  0.00    +0.018 A 
ATOM     25  C   UNL     1      20.854   6.669  20.589  0.00  0.00    +0.126 A 
ATOM     26  C   UNL     1      21.292   3.977  20.671  0.00  0.00    +0.068 A 
ATOM     27  C   UNL     1      22.301   4.906  20.862  0.00  0.00    +0.215 A 
BRANCH  27   2
ATOM      2  O   UNL     1      23.576   4.463  21.103  0.00  0.00    -0.474 OA
BRANCH   2  28
ATOM     28  C   UNL     1      24.412   4.272  19.968  0.00  0.00    +0.258 C 
BRANCH  28  29
ATOM     29  C   UNL     1      25.028   2.887  20.034  0.00  0.00    +0.200 C 
BRANCH  29   3
ATOM      3  O   UNL     1      24.082   1.984  20.593  0.00  0.00    -0.380 OA
ATOM     30  C   UNL     1      24.694   1.095  21.516  0.00  0.00    +0.194 C 
ENDBRANCH  29   3
ENDBRANCH  28  29
ENDBRANCH   2  28
ENDBRANCH  27   2
ENDBRANCH  17  20
BRANCH  13   8
ATOM      4  N   UNL     1      14.999   8.320  21.817  0.00  0.00    -0.291 NA
ATOM      8  C   UNL     1      15.723   8.590  20.558  0.00  0.00    +0.146 C 
ATOM      9  C   UNL     1      16.291  10.011  20.731  0.00  0.00    +0.030 C 
ATOM     10  C   UNL     1      14.560   9.619  22.329  0.00  0.00    +0.085 C 
ATOM     11  C   UNL     1      15.785  10.480  22.087  0.00  0.00    +0.017 C 
BRANCH   4  12
ATOM     12  C   UNL     1      13.888   7.391  21.653  0.00  0.00    +0.085 C 
BRANCH  12  14
ATOM     14  C   UNL     1      12.563   8.152  21.620  0.00  0.00    +0.020 C 
BRANCH  14  15
ATOM     15  C   UNL     1      11.818   7.905  20.306  0.00  0.00    +0.036 C 
BRANCH  15  16
ATOM     16  C   UNL     1      12.576   8.454  19.124  0.00  0.00    -0.047 A 
ATOM     18  C   UNL     1      13.106   7.586  18.171  0.00  0.00    +0.003 A 
ATOM     19  C   UNL     1      12.746   9.832  18.984  0.00  0.00    +0.003 A 
ATOM     21  C   UNL     1      13.808   8.094  17.077  0.00  0.00    +0.000 A 
ATOM     22  C   UNL     1      13.446  10.341  17.890  0.00  0.00    +0.000 A 
ATOM     24  C   UNL     1      13.978   9.471  16.937  0.00  0.00    +0.000 A 
ENDBRANCH  15  16
ENDBRANCH  14  15
ENDBRANCH  12  14
ENDBRANCH   4  12
ENDBRANCH  13   8
TORSDOF 10
ENDMDL
MODEL 6
REMARK VINA RESULT:      -6.6     27.772     31.289
REMARK  Name = 51136866
REMARK  11 active torsions:
REMARK  status: ('A' for Active; 'I' for Inactive)
REMARK    1  A    between atoms: O_2  and  C_27
REMARK    2  A    between atoms: O_2  and  C_28
REMARK    3  A    between atoms: O_3  and  C_29
REMARK    4  A    between atoms: O_3  and  C_30
REMARK    5  A    between atoms: N_4  and  C_12
REMARK    6  A    between atoms: C_8  and  C_13
REMARK    7  A    between atoms: C_12  and  C_14
REMARK    8  A    between atoms: C_14  and  C_15
REMARK    9  A    between atoms: C_15  and  C_16
REMARK   10  A    between atoms: C_17  and  C_20
REMARK   11  A    between atoms: C_28  and  C_29
REMARK                            x       y       z     vdW  Elec       q    Type
REMARK                         _______ _______ _______ _____ _____    ______ ____
ROOT
ATOM      1  O   UNL     1      14.468   6.895  19.417  0.00  0.00    -0.336 OA
ATOM      5  N   UNL     1      15.654   7.546  21.202  0.00  0.00    -0.190 NA
ATOM      6  N   UNL     1      15.749   6.351  19.254  0.00  0.00    -0.056 NA
ATOM     13  C   UNL     1      14.500   7.584  20.588  0.00  0.00    +0.245 A 
ATOM     17  C   UNL     1      16.389   6.778  20.345  0.00  0.00    +0.204 A 
ENDROOT
BRANCH  17  20
ATOM      7  N   UNL     1      19.752   6.828  21.933  0.00  0.00    -0.221 NA
ATOM     20  C   UNL     1      17.762   6.458  20.610  0.00  0.00    +0.041 A 
ATOM     23  C   UNL     1      18.436   5.511  19.847  0.00  0.00    +0.018 A 
ATOM     25  C   UNL     1      18.458   7.083  21.632  0.00  0.00    +0.126 A 
ATOM     26  C   UNL     1      19.768   5.222  20.126  0.00  0.00    +0.068 A 
ATOM     27  C   UNL     1      20.373   5.902  21.171  0.00  0.00    +0.215 A 
BRANCH  27   2
ATOM      2  O   UNL     1      21.685   5.634  21.466  0.00  0.00    -0.474 OA
BRANCH   2  28
ATOM     28  C   UNL     1      22.184   4.362  21.071  0.00  0.00    +0.258 C 
BRANCH  28  29
ATOM     29  C   UNL     1      22.072   3.402  22.240  0.00  0.00    +0.200 C 
BRANCH  29   3
ATOM      3  O   UNL     1      22.150   4.138  23.454  0.00  0.00    -0.380 OA
ATOM     30  C   UNL     1      23.171   3.634  24.304  0.00  0.00    +0.194 C 
ENDBRANCH  29   3
ENDBRANCH  28  29
ENDBRANCH   2  28
ENDBRANCH  27   2
ENDBRANCH  17  20
BRANCH  13   8
ATOM      4  N   UNL     1      12.409   8.705  19.838  0.00  0.00    -0.291 NA
ATOM      8  C   UNL     1      13.216   8.275  20.998  0.00  0.00    +0.146 C 
ATOM      9  C   UNL     1      12.279   7.359  21.806  0.00  0.00    +0.030 C 
ATOM     10  C   UNL     1      11.012   8.678  20.274  0.00  0.00    +0.085 C 
ATOM     11  C   UNL     1      10.954   7.384  21.059  0.00  0.00    +0.017 C 
BRANCH   4  12
ATOM     12  C   UNL     1      12.797  10.012  19.321  0.00  0.00    +0.085 C 
BRANCH  12  14
ATOM     14  C   UNL     1      13.189  10.940  20.468  0.00  0.00    +0.020 C 
BRANCH  14  15
ATOM     15  C   UNL     1      12.227  12.126  20.572  0.00  0.00    +0.036 C 
BRANCH  15  16
ATOM     16  C   UNL     1      11.627  12.239  21.950  0.00  0.00    -0.047 A 
ATOM     18  C   UNL     1      10.937  13.394  22.318  0.00  0.00    +0.003 A 
ATOM     19  C   UNL     1      11.764  11.189  22.858  0.00  0.00    +0.003 A 
ATOM     21  C   UNL     1      10.382  13.499  23.593  0.00  0.00    +0.000 A 
ATOM     22  C   UNL     1      11.208  11.293  24.134  0.00  0.00    +0.000 A 
ATOM     24  C   UNL     1      10.518  12.449  24.501  0.00  0.00    +0.000 A 
ENDBRANCH  15  16
ENDBRANCH  14  15
ENDBRANCH  12  14
ENDBRANCH   4  12
ENDBRANCH  13   8
TORSDOF 10
ENDMDL
MODEL 7
REMARK VINA RESULT:      -6.6     29.053     34.373
REMARK  Name = 51136866
REMARK  11 active torsions:
REMARK  status: ('A' for Active; 'I' for Inactive)
REMARK    1  A    between atoms: O_2  and  C_27
REMARK    2  A    between atoms: O_2  and  C_28
REMARK    3  A    between atoms: O_3  and  C_29
REMARK    4  A    between atoms: O_3  and  C_30
REMARK    5  A    between atoms: N_4  and  C_12
REMARK    6  A    between atoms: C_8  and  C_13
REMARK    7  A    between atoms: C_12  and  C_14
REMARK    8  A    between atoms: C_14  and  C_15
REMARK    9  A    between atoms: C_15  and  C_16
REMARK   10  A    between atoms: C_17  and  C_20
REMARK   11  A    between atoms: C_28  and  C_29
REMARK                            x       y       z     vdW  Elec       q    Type
REMARK                         _______ _______ _______ _____ _____    ______ ____
ROOT
ATOM      1  O   UNL     1       9.793   4.389  -0.476  0.00  0.00    -0.336 OA
ATOM      5  N   UNL     1      10.583   6.315   0.349  0.00  0.00    -0.190 NA
ATOM      6  N   UNL     1       9.923   4.196   0.905  0.00  0.00    -0.056 NA
ATOM     13  C   UNL     1      10.204   5.661  -0.718  0.00  0.00    +0.245 A 
ATOM     17  C   UNL     1      10.393   5.376   1.321  0.00  0.00    +0.204 A 
ENDROOT
BRANCH  17  20
ATOM      7  N   UNL     1      11.895   6.953   4.336  0.00  0.00    -0.221 NA
ATOM     20  C   UNL     1      10.685   5.648   2.699  0.00  0.00    +0.041 A 
ATOM     23  C   UNL     1      10.083   4.916   3.716  0.00  0.00    +0.018 A 
ATOM     25  C   UNL     1      11.576   6.646   3.058  0.00  0.00    +0.126 A 
ATOM     26  C   UNL     1      10.386   5.202   5.044  0.00  0.00    +0.068 A 
ATOM     27  C   UNL     1      11.290   6.221   5.297  0.00  0.00    +0.215 A 
BRANCH  27   2
ATOM      2  O   UNL     1      11.605   6.522   6.597  0.00  0.00    -0.474 OA
BRANCH   2  28
ATOM     28  C   UNL     1      10.515   6.754   7.482  0.00  0.00    +0.258 C 
BRANCH  28  29
ATOM     29  C   UNL     1      10.548   5.716   8.588  0.00  0.00    +0.200 C 
BRANCH  29   3
ATOM      3  O   UNL     1       9.241   5.184   8.765  0.00  0.00    -0.380 OA
ATOM     30  C   UNL     1       9.091   4.587  10.045  0.00  0.00    +0.194 C 
ENDBRANCH  29   3
ENDBRANCH  28  29
ENDBRANCH   2  28
ENDBRANCH  27   2
ENDBRANCH  17  20
BRANCH  13   8
ATOM      4  N   UNL     1      10.923   5.235  -3.062  0.00  0.00    -0.291 NA
ATOM      8  C   UNL     1      10.158   6.121  -2.161  0.00  0.00    +0.146 C 
ATOM      9  C   UNL     1       8.731   6.127  -2.737  0.00  0.00    +0.030 C 
ATOM     10  C   UNL     1      10.270   5.315  -4.371  0.00  0.00    +0.085 C 
ATOM     11  C   UNL     1       8.803   5.269  -3.992  0.00  0.00    +0.017 C 
BRANCH   4  12
ATOM     12  C   UNL     1      12.339   5.572  -3.134  0.00  0.00    +0.085 C 
BRANCH  12  14
ATOM     14  C   UNL     1      13.185   4.300  -3.146  0.00  0.00    +0.020 C 
BRANCH  14  15
ATOM     15  C   UNL     1      12.745   3.334  -2.044  0.00  0.00    +0.036 C 
BRANCH  15  16
ATOM     16  C   UNL     1      13.550   3.520  -0.784  0.00  0.00    -0.047 A 
ATOM     18  C   UNL     1      14.824   4.085  -0.847  0.00  0.00    +0.003 A 
ATOM     19  C   UNL     1      13.023   3.125   0.446  0.00  0.00    +0.003 A 
ATOM     21  C   UNL     1      15.570   4.257   0.319  0.00  0.00    +0.000 A 
ATOM     22  C   UNL     1      13.768   3.298   1.612  0.00  0.00    +0.000 A 
ATOM     24  C   UNL     1      15.042   3.863   1.549  0.00  0.00    +0.000 A 
ENDBRANCH  15  16
ENDBRANCH  14  15
ENDBRANCH  12  14
ENDBRANCH   4  12
ENDBRANCH  13   8
TORSDOF 10
ENDMDL
MODEL 8
REMARK VINA RESULT:      -6.5     28.994     32.519
REMARK  Name = 51136866
REMARK  11 active torsions:
REMARK  status: ('A' for Active; 'I' for Inactive)
REMARK    1  A    between atoms: O_2  and  C_27
REMARK    2  A    between atoms: O_2  and  C_28
REMARK    3  A    between atoms: O_3  and  C_29
REMARK    4  A    between atoms: O_3  and  C_30
REMARK    5  A    between atoms: N_4  and  C_12
REMARK    6  A    between atoms: C_8  and  C_13
REMARK    7  A    between atoms: C_12  and  C_14
REMARK    8  A    between atoms: C_14  and  C_15
REMARK    9  A    between atoms: C_15  and  C_16
REMARK   10  A    between atoms: C_17  and  C_20
REMARK   11  A    between atoms: C_28  and  C_29
REMARK                            x       y       z     vdW  Elec       q    Type
REMARK                         _______ _______ _______ _____ _____    ______ ____
ROOT
ATOM      1  O   UNL     1      15.995   6.189  18.659  0.00  0.00    -0.336 OA
ATOM      5  N   UNL     1      16.845   7.047  20.544  0.00  0.00    -0.190 NA
ATOM      6  N   UNL     1      17.281   5.649  18.787  0.00  0.00    -0.056 NA
ATOM     13  C   UNL     1      15.819   7.001  19.734  0.00  0.00    +0.245 A 
ATOM     17  C   UNL     1      17.718   6.202  19.921  0.00  0.00    +0.204 A 
ENDROOT
BRANCH  17  20
ATOM      7  N   UNL     1      20.836   6.605  21.908  0.00  0.00    -0.221 NA
ATOM     20  C   UNL     1      19.020   5.933  20.460  0.00  0.00    +0.041 A 
ATOM     23  C   UNL     1      19.726   4.794  20.090  0.00  0.00    +0.018 A 
ATOM     25  C   UNL     1      19.613   6.800  21.363  0.00  0.00    +0.126 A 
ATOM     26  C   UNL     1      20.987   4.559  20.628  0.00  0.00    +0.068 A 
ATOM     27  C   UNL     1      21.492   5.488  21.524  0.00  0.00    +0.215 A 
BRANCH  27   2
ATOM      2  O   UNL     1      22.733   5.279  22.069  0.00  0.00    -0.474 OA
BRANCH   2  28
ATOM     28  C   UNL     1      23.086   3.932  22.358  0.00  0.00    +0.258 C 
BRANCH  28  29
ATOM     29  C   UNL     1      24.476   3.658  21.815  0.00  0.00    +0.200 C 
BRANCH  29   3
ATOM      3  O   UNL     1      24.596   4.248  20.527  0.00  0.00    -0.380 OA
ATOM     30  C   UNL     1      24.996   3.295  19.553  0.00  0.00    +0.194 C 
ENDBRANCH  29   3
ENDBRANCH  28  29
ENDBRANCH   2  28
ENDBRANCH  27   2
ENDBRANCH  17  20
BRANCH  13   8
ATOM      4  N   UNL     1      13.825   7.857  18.517  0.00  0.00    -0.291 NA
ATOM      8  C   UNL     1      14.487   7.714  19.830  0.00  0.00    +0.146 C 
ATOM      9  C   UNL     1      13.468   6.955  20.700  0.00  0.00    +0.030 C 
ATOM     10  C   UNL     1      12.385   7.870  18.779  0.00  0.00    +0.085 C 
ATOM     11  C   UNL     1      12.245   6.770  19.813  0.00  0.00    +0.017 C 
BRANCH   4  12
ATOM     12  C   UNL     1      14.258   9.038  17.780  0.00  0.00    +0.085 C 
BRANCH  12  14
ATOM     14  C   UNL     1      13.277  10.188  17.999  0.00  0.00    +0.020 C 
BRANCH  14  15
ATOM     15  C   UNL     1      13.875  11.257  18.915  0.00  0.00    +0.036 C 
BRANCH  15  16
ATOM     16  C   UNL     1      12.921  11.647  20.015  0.00  0.00    -0.047 A 
ATOM     18  C   UNL     1      12.546  12.981  20.173  0.00  0.00    +0.003 A 
ATOM     19  C   UNL     1      12.415  10.674  20.877  0.00  0.00    +0.003 A 
ATOM     21  C   UNL     1      11.664  13.342  21.191  0.00  0.00    +0.000 A 
ATOM     22  C   UNL     1      11.531  11.034  21.894  0.00  0.00    +0.000 A 
ATOM     24  C   UNL     1      11.156  12.369  22.052  0.00  0.00    +0.000 A 
ENDBRANCH  15  16
ENDBRANCH  14  15
ENDBRANCH  12  14
ENDBRANCH   4  12
ENDBRANCH  13   8
TORSDOF 10
ENDMDL
MODEL 9
REMARK VINA RESULT:      -6.4     30.784     34.248
REMARK  Name = 51136866
REMARK  11 active torsions:
REMARK  status: ('A' for Active; 'I' for Inactive)
REMARK    1  A    between atoms: O_2  and  C_27
REMARK    2  A    between atoms: O_2  and  C_28
REMARK    3  A    between atoms: O_3  and  C_29
REMARK    4  A    between atoms: O_3  and  C_30
REMARK    5  A    between atoms: N_4  and  C_12
REMARK    6  A    between atoms: C_8  and  C_13
REMARK    7  A    between atoms: C_12  and  C_14
REMARK    8  A    between atoms: C_14  and  C_15
REMARK    9  A    between atoms: C_15  and  C_16
REMARK   10  A    between atoms: C_17  and  C_20
REMARK   11  A    between atoms: C_28  and  C_29
REMARK                            x       y       z     vdW  Elec       q    Type
REMARK                         _______ _______ _______ _____ _____    ______ ____
ROOT
ATOM      1  O   UNL     1      19.227   5.625  20.162  0.00  0.00    -0.336 OA
ATOM      5  N   UNL     1      18.260   7.209  21.415  0.00  0.00    -0.190 NA
ATOM      6  N   UNL     1      17.975   5.869  19.583  0.00  0.00    -0.056 NA
ATOM     13  C   UNL     1      19.313   6.455  21.235  0.00  0.00    +0.245 A 
ATOM     17  C   UNL     1      17.466   6.815  20.378  0.00  0.00    +0.204 A 
ENDROOT
BRANCH  17  20
ATOM      7  N   UNL     1      14.487   8.998  20.813  0.00  0.00    -0.221 NA
ATOM     20  C   UNL     1      16.167   7.385  20.164  0.00  0.00    +0.041 A 
ATOM     23  C   UNL     1      15.338   6.918  19.151  0.00  0.00    +0.018 A 
ATOM     25  C   UNL     1      15.700   8.417  20.961  0.00  0.00    +0.126 A 
ATOM     26  C   UNL     1      14.083   7.490  18.968  0.00  0.00    +0.068 A 
ATOM     27  C   UNL     1      13.710   8.518  19.818  0.00  0.00    +0.215 A 
BRANCH  27   2
ATOM      2  O   UNL     1      12.478   9.099  19.658  0.00  0.00    -0.474 OA
BRANCH   2  28
ATOM     28  C   UNL     1      11.350   8.326  20.051  0.00  0.00    +0.258 C 
BRANCH  28  29
ATOM     29  C   UNL     1      10.970   8.693  21.473  0.00  0.00    +0.200 C 
BRANCH  29   3
ATOM      3  O   UNL     1      10.780   7.501  22.225  0.00  0.00    -0.380 OA
ATOM     30  C   UNL     1      11.188   6.353  21.495  0.00  0.00    +0.194 C 
ENDBRANCH  29   3
ENDBRANCH  28  29
ENDBRANCH   2  28
ENDBRANCH  27   2
ENDBRANCH  17  20
BRANCH  13   8
ATOM      4  N   UNL     1      21.621   7.327  21.560  0.00  0.00    -0.291 NA
ATOM      8  C   UNL     1      20.593   6.382  22.042  0.00  0.00    +0.146 C 
ATOM      9  C   UNL     1      20.384   6.753  23.521  0.00  0.00    +0.030 C 
ATOM     10  C   UNL     1      22.434   7.682  22.725  0.00  0.00    +0.085 C 
ATOM     11  C   UNL     1      21.379   7.871  23.797  0.00  0.00    +0.017 C 
BRANCH   4  12
ATOM     12  C   UNL     1      22.428   6.792  20.471  0.00  0.00    +0.085 C 
BRANCH  12  14
ATOM     14  C   UNL     1      23.512   5.867  21.020  0.00  0.00    +0.020 C 
BRANCH  14  15
ATOM     15  C   UNL     1      23.555   4.547  20.248  0.00  0.00    +0.036 C 
BRANCH  15  16
ATOM     16  C   UNL     1      23.732   3.367  21.169  0.00  0.00    -0.047 A 
ATOM     18  C   UNL     1      24.191   2.151  20.664  0.00  0.00    +0.003 A 
ATOM     19  C   UNL     1      23.435   3.491  22.526  0.00  0.00    +0.003 A 
ATOM     21  C   UNL     1      24.354   1.058  21.517  0.00  0.00    +0.000 A 
ATOM     22  C   UNL     1      23.599   2.399  23.379  0.00  0.00    +0.000 A 
ATOM     24  C   UNL     1      24.058   1.183  22.874  0.00  0.00    +0.000 A 
ENDBRANCH  15  16
ENDBRANCH  14  15
ENDBRANCH  12  14
ENDBRANCH   4  12
ENDBRANCH  13   8
TORSDOF 10
ENDMDL
MODEL 10
REMARK VINA RESULT:      -6.4     29.072     32.543
REMARK  Name = 51136866
REMARK  11 active torsions:
REMARK  status: ('A' for Active; 'I' for Inactive)
REMARK    1  A    between atoms: O_2  and  C_27
REMARK    2  A    between atoms: O_2  and  C_28
REMARK    3  A    between atoms: O_3  and  C_29
REMARK    4  A    between atoms: O_3  and  C_30
REMARK    5  A    between atoms: N_4  and  C_12
REMARK    6  A    between atoms: C_8  and  C_13
REMARK    7  A    between atoms: C_12  and  C_14
REMARK    8  A    between atoms: C_14  and  C_15
REMARK    9  A    between atoms: C_15  and  C_16
REMARK   10  A    between atoms: C_17  and  C_20
REMARK   11  A    between atoms: C_28  and  C_29
REMARK                            x       y       z     vdW  Elec       q    Type
REMARK                         _______ _______ _______ _____ _____    ______ ____
ROOT
ATOM      1  O   UNL     1      16.123   6.097  18.768  0.00  0.00    -0.336 OA
ATOM      5  N   UNL     1      16.993   7.224  20.497  0.00  0.00    -0.190 NA
ATOM      6  N   UNL     1      17.437   5.633  18.914  0.00  0.00    -0.056 NA
ATOM     13  C   UNL     1      15.945   7.032  19.739  0.00  0.00    +0.245 A 
ATOM     17  C   UNL     1      17.884   6.344  19.953  0.00  0.00    +0.204 A 
ENDROOT
BRANCH  17  20
ATOM      7  N   UNL     1      21.059   7.147  21.715  0.00  0.00    -0.221 NA
ATOM     20  C   UNL     1      19.214   6.201  20.472  0.00  0.00    +0.041 A 
ATOM     23  C   UNL     1      19.944   5.037  20.259  0.00  0.00    +0.018 A 
ATOM     25  C   UNL     1      19.811   7.218  21.199  0.00  0.00    +0.126 A 
ATOM     26  C   UNL     1      21.231   4.927  20.773  0.00  0.00    +0.068 A 
ATOM     27  C   UNL     1      21.738   6.001  21.487  0.00  0.00    +0.215 A 
BRANCH  27   2
ATOM      2  O   UNL     1      23.005   5.918  22.005  0.00  0.00    -0.474 OA
BRANCH   2  28
ATOM     28  C   UNL     1      23.349   4.703  22.660  0.00  0.00    +0.258 C 
BRANCH  28  29
ATOM     29  C   UNL     1      23.080   4.848  24.146  0.00  0.00    +0.200 C 
BRANCH  29   3
ATOM      3  O   UNL     1      22.499   3.645  24.633  0.00  0.00    -0.380 OA
ATOM     30  C   UNL     1      22.576   2.603  23.670  0.00  0.00    +0.194 C 
ENDBRANCH  29   3
ENDBRANCH  28  29
ENDBRANCH   2  28
ENDBRANCH  27   2
ENDBRANCH  17  20
BRANCH  13   8
ATOM      4  N   UNL     1      13.899   7.692  18.486  0.00  0.00    -0.291 NA
ATOM      8  C   UNL     1      14.584   7.694  19.794  0.00  0.00    +0.146 C 
ATOM      9  C   UNL     1      13.611   6.972  20.745  0.00  0.00    +0.030 C 
ATOM     10  C   UNL     1      12.463   7.668  18.771  0.00  0.00    +0.085 C 
ATOM     11  C   UNL     1      12.386   6.659  19.899  0.00  0.00    +0.017 C 
BRANCH   4  12
ATOM     12  C   UNL     1      14.271   8.820  17.641  0.00  0.00    +0.085 C 
BRANCH  12  14
ATOM     14  C   UNL     1      13.199   9.906  17.706  0.00  0.00    +0.020 C 
BRANCH  14  15
ATOM     15  C   UNL     1      13.726  11.160  18.408  0.00  0.00    +0.036 C 
BRANCH  15  16
ATOM     16  C   UNL     1      13.630  11.042  19.908  0.00  0.00    -0.047 A 
ATOM     18  C   UNL     1      12.403  10.764  20.508  0.00  0.00    +0.003 A 
ATOM     19  C   UNL     1      14.769  11.212  20.694  0.00  0.00    +0.003 A 
ATOM     21  C   UNL     1      12.315  10.655  21.896  0.00  0.00    +0.000 A 
ATOM     22  C   UNL     1      14.682  11.102  22.082  0.00  0.00    +0.000 A 
ATOM     24  C   UNL     1      13.453  10.824  22.683  0.00  0.00    +0.000 A 
ENDBRANCH  15  16
ENDBRANCH  14  15
ENDBRANCH  12  14
ENDBRANCH   4  12
ENDBRANCH  13   8
TORSDOF 10
ENDMDL
