REMARK  Name = 86769007
REMARK  12 active torsions:
REMARK  status: ('A' for Active; 'I' for Inactive)
REMARK    1  A    between atoms: O_2  and  C_8
REMARK    2  A    between atoms: N_4  and  C_7
REMARK    3  A    between atoms: N_4  and  C_12
REMARK    4  A    between atoms: N_5  and  C_13
REMARK    5  A    between atoms: N_6  and  C_18
REMARK    6  A    between atoms: C_9  and  C_13
REMARK    7  A    between atoms: C_11  and  C_12
REMARK    8  A    between atoms: C_11  and  C_14
REMARK    9  A    between atoms: C_11  and  C_15
REMARK   10  A    between atoms: C_11  and  C_16
REMARK   11  A    between atoms: C_18  and  C_19
REMARK   12  A    between atoms: C_18  and  C_20
REMARK                            x       y       z     vdW  Elec       q    Type
REMARK                         _______ _______ _______ _____ _____    ______ ____
ROOT
ATOM      1  O   UNL     1       0.104   1.065  -0.535  0.00  0.00    -0.371 OA
ATOM      7  C   UNL     1      -1.871  -0.009   0.232  0.00  0.00    +0.111 C 
ATOM      8  C   UNL     1      -0.880  -1.063  -0.225  0.00  0.00    +0.164 C 
ATOM      9  C   UNL     1       0.427  -0.284  -0.161  0.00  0.00    +0.165 C 
ATOM     10  C   UNL     1      -1.322   1.235  -0.448  0.00  0.00    +0.181 C 
ENDROOT
BRANCH   8   2
ATOM      2  O   UNL     1      -0.860  -2.197   0.621  0.00  0.00    -0.388 OA
ATOM     22  H   UNL     1      -0.669  -1.899   1.527  0.00  0.00    +0.210 HD
ENDBRANCH   8   2
BRANCH   7   4
ATOM      4  N   UNL     1      -3.245  -0.299  -0.143  0.00  0.00    -0.308 NA
ATOM     21  H   UNL     1      -3.444  -1.278   0.058  0.00  0.00    +0.122 HD
BRANCH   4  12
ATOM     12  C   UNL     1      -4.180   0.544   0.593  0.00  0.00    +0.087 C 
BRANCH  12  11
ATOM     11  C   UNL     1      -5.664   0.339   0.196  0.00  0.00    -0.025 C 
ATOM     14  C   UNL     1      -5.873   0.559  -1.313  0.00  0.00    +0.012 C 
ATOM     15  C   UNL     1      -6.578   1.298   0.980  0.00  0.00    +0.012 C 
ATOM     16  C   UNL     1      -6.060  -1.109   0.539  0.00  0.00    +0.012 C 
ENDBRANCH  12  11
ENDBRANCH   4  12
ENDBRANCH   7   4
BRANCH   9  13
ATOM     13  C   UNL     1       1.498  -0.831  -1.088  0.00  0.00    +0.140 C 
BRANCH  13   5
ATOM      3  O   UNL     1       3.714  -1.286   0.704  0.00  0.00    -0.253 OA
ATOM      5  N   UNL     1       2.708  -0.065  -0.997  0.00  0.00    -0.297 N 
ATOM      6  N   UNL     1       4.793   0.548  -0.222  0.00  0.00    -0.297 N 
ATOM     17  C   UNL     1       3.738  -0.353  -0.098  0.00  0.00    +0.300 C 
ATOM     23  H   UNL     1       2.814   0.737  -1.610  0.00  0.00    +0.150 HD
ATOM     24  H   UNL     1       4.753   1.239  -0.965  0.00  0.00    +0.150 HD
BRANCH   6  18
ATOM     18  C   UNL     1       5.984   0.475   0.592  0.00  0.00    +0.068 C 
ATOM     19  C   UNL     1       7.019  -0.437  -0.056  0.00  0.00    +0.027 C 
ATOM     20  C   UNL     1       6.549   1.869   0.830  0.00  0.00    +0.027 C 
ENDBRANCH   6  18
ENDBRANCH  13   5
ENDBRANCH   9  13
TORSDOF 7
