REMARK  Name = 11913371
REMARK  8 active torsions:
REMARK  status: ('A' for Active; 'I' for Inactive)
REMARK    1  A    between atoms: O_5  and  C_25
REMARK    2  A    between atoms: N_7  and  C_14
REMARK    3  A    between atoms: N_8  and  C_17
REMARK    4  A    between atoms: C_11  and  C_18
REMARK    5  A    between atoms: C_11  and  C_22
REMARK    6  A    between atoms: C_18  and  C_24
REMARK    7  A    between atoms: C_22  and  C_25
REMARK    8  A    between atoms: C_27  and  C_30
REMARK                            x       y       z     vdW  Elec       q    Type
REMARK                         _______ _______ _______ _____ _____    ______ ____
ROOT
ATOM      2  O   UNL     1       0.441   1.670   2.062  0.00  0.00    -0.370 OA
ATOM      3  O   UNL     1      -0.807   3.715   0.063  0.00  0.00    -0.370 OA
ATOM     12  C   UNL     1      -1.031   2.316   0.309  0.00  0.00    +0.171 C 
ATOM     13  C   UNL     1       0.313   1.694   0.630  0.00  0.00    +0.171 C 
ATOM     14  C   UNL     1      -1.836   2.128   1.575  0.00  0.00    +0.130 C 
ATOM     17  C   UNL     1       1.317   2.650   0.030  0.00  0.00    +0.130 C 
ATOM     21  C   UNL     1      -0.765   2.178   2.651  0.00  0.00    +0.185 C 
ATOM     23  C   UNL     1       0.601   3.985   0.125  0.00  0.00    +0.185 C 
ENDROOT
BRANCH  17   8
ATOM      8  N   UNL     1       1.559   2.309  -1.354  0.00  0.00    -0.306 N 
ATOM      9  N   UNL     1       3.171   0.739  -0.784  0.00  0.00    -0.214 NA
ATOM     10  N   UNL     1       2.588   1.153  -3.085  0.00  0.00    -0.223 NA
ATOM     26  C   UNL     1       2.479   1.359  -1.759  0.00  0.00    +0.216 A 
ATOM     27  C   UNL     1       4.059  -0.181  -1.214  0.00  0.00    +0.076 A 
ATOM     28  C   UNL     1       3.495   0.221  -3.444  0.00  0.00    +0.116 A 
ATOM     29  C   UNL     1       4.266  -0.485  -2.544  0.00  0.00    +0.048 A 
ATOM     37  H   UNL     1       0.998   2.742  -2.079  0.00  0.00    +0.149 HD
BRANCH  27  30
ATOM      1  F   UNL     1       4.199  -2.939   2.745  0.00  0.00    -0.205 F 
ATOM     30  C   UNL     1       4.802  -0.849  -0.172  0.00  0.00    +0.003 A 
ATOM     31  C   UNL     1       4.128  -1.586   0.802  0.00  0.00    +0.048 A 
ATOM     32  C   UNL     1       6.193  -0.758  -0.139  0.00  0.00    +0.010 A 
ATOM     33  C   UNL     1       4.846  -2.232   1.809  0.00  0.00    +0.124 A 
ATOM     34  C   UNL     1       6.911  -1.404   0.868  0.00  0.00    +0.003 A 
ATOM     35  C   UNL     1       6.237  -2.141   1.842  0.00  0.00    +0.038 A 
ENDBRANCH  27  30
ENDBRANCH  17   8
BRANCH  14   7
ATOM      4  O   UNL     1      -4.557   1.602   0.743  0.00  0.00    -0.276 OA
ATOM      7  N   UNL     1      -2.519   0.858   1.575  0.00  0.00    -0.308 N 
ATOM     24  C   UNL     1      -3.834   0.700   1.155  0.00  0.00    +0.214 C 
ATOM     36  H   UNL     1      -1.992   0.042   1.871  0.00  0.00    +0.149 HD
BRANCH  24  18
ATOM     18  C   UNL     1      -4.287  -0.744   1.263  0.00  0.00    +0.103 C 
BRANCH  18  11
ATOM     11  C   UNL     1      -4.045  -1.534  -0.025  0.00  0.00    -0.011 C 
ATOM     15  C   UNL     1      -4.349  -3.027   0.162  0.00  0.00    +0.008 C 
ATOM     16  C   UNL     1      -2.556  -1.565  -0.398  0.00  0.00    +0.008 C 
ATOM     19  C   UNL     1      -3.547  -3.735  -0.927  0.00  0.00    +0.001 C 
ATOM     20  C   UNL     1      -2.395  -2.796  -1.286  0.00  0.00    +0.001 C 
BRANCH  11  22
ATOM     22  C   UNL     1      -4.891  -0.929  -1.157  0.00  0.00    +0.127 C 
BRANCH  22  25
ATOM      6  O   UNL     1      -7.055  -1.857  -0.524  0.00  0.00    -0.251 OA
ATOM     25  C   UNL     1      -6.347  -0.899  -0.793  0.00  0.00    +0.305 C 
BRANCH  25   5
ATOM      5  O   UNL     1      -6.787   0.386  -0.804  0.00  0.00    -0.481 OA
ATOM     38  H   UNL     1      -7.737   0.449  -0.569  0.00  0.00    +0.295 HD
ENDBRANCH  25   5
ENDBRANCH  22  25
ENDBRANCH  11  22
ENDBRANCH  18  11
ENDBRANCH  24  18
ENDBRANCH  14   7
TORSDOF 8
