MODEL 1
REMARK VINA RESULT:      -6.4      0.000      0.000
REMARK  Name = 11866103
REMARK  13 active torsions:
REMARK  status: ('A' for Active; 'I' for Inactive)
REMARK    1  A    between atoms: O_1  and  C_11
REMARK    2  A    between atoms: O_2  and  C_12
REMARK    3  A    between atoms: N_6  and  C_10
REMARK    4  A    between atoms: N_7  and  C_16
REMARK    5  A    between atoms: N_7  and  C_23
REMARK    6  A    between atoms: N_8  and  C_22
REMARK    7  A    between atoms: C_15  and  C_19
REMARK    8  A    between atoms: C_16  and  C_17
REMARK    9  A    between atoms: C_16  and  C_18
REMARK   10  A    between atoms: C_17  and  C_20
REMARK   11  A    between atoms: C_17  and  C_21
REMARK   12  A    between atoms: C_22  and  C_24
REMARK   13  A    between atoms: C_22  and  C_25
REMARK                            x       y       z     vdW  Elec       q    Type
REMARK                         _______ _______ _______ _____ _____    ______ ____
ROOT
ATOM     10  C   UNL     1      14.854   7.275  19.565  0.00  0.00    +0.127 C 
ATOM     11  C   UNL     1      13.609   7.634  20.398  0.00  0.00    +0.167 C 
ATOM     12  C   UNL     1      12.324   7.512  19.571  0.00  0.00    +0.149 C 
ATOM     13  C   UNL     1      12.375   8.368  18.293  0.00  0.00    +0.074 C 
ATOM     14  C   UNL     1      14.840   7.878  18.185  0.00  0.00    +0.006 C 
ATOM     15  C   UNL     1      13.724   8.372  17.631  0.00  0.00    +0.015 C 
ENDROOT
BRANCH  10   6
ATOM      3  O   UNL     1      17.404   5.954  19.406  0.00  0.00    -0.274 OA
ATOM      6  N   UNL     1      16.072   7.664  20.232  0.00  0.00    -0.305 N 
ATOM     18  C   UNL     1      17.262   6.964  20.096  0.00  0.00    +0.231 C 
ATOM     26  H   UNL     1      16.039   8.464  20.858  0.00  0.00    +0.149 HD
BRANCH  18  16
ATOM     16  C   UNL     1      18.398   7.575  20.914  0.00  0.00    +0.143 C 
BRANCH  16   7
ATOM      7  N   UNL     1      17.778   8.370  21.977  0.00  0.00    -0.309 NA
ATOM     23  C   UNL     1      18.169   9.766  21.867  0.00  0.00    +0.101 C 
ATOM     29  H   UNL     1      18.086   8.024  22.885  0.00  0.00    +0.122 HD
ENDBRANCH  16   7
BRANCH  16  17
ATOM     17  C   UNL     1      19.367   6.519  21.496  0.00  0.00    +0.009 C 
ATOM     20  C   UNL     1      20.599   6.324  20.607  0.00  0.00    +0.009 C 
ATOM     21  C   UNL     1      19.810   6.806  22.936  0.00  0.00    +0.009 C 
ENDBRANCH  16  17
ENDBRANCH  18  16
ENDBRANCH  10   6
BRANCH  15  19
ATOM      4  O   UNL     1      13.198   8.446  15.342  0.00  0.00    -0.271 OA
ATOM      8  N   UNL     1      14.685  10.017  16.212  0.00  0.00    -0.301 N 
ATOM     19  C   UNL     1      13.829   8.932  16.281  0.00  0.00    +0.240 C 
ATOM     30  H   UNL     1      15.160  10.332  17.054  0.00  0.00    +0.150 HD
BRANCH   8  22
ATOM     22  C   UNL     1      14.953  10.734  14.986  0.00  0.00    +0.156 C 
ATOM     24  C   UNL     1      16.267  11.495  15.072  0.00  0.00    +0.038 C 
BRANCH  22  25
ATOM      5  O   UNL     1      12.943  11.497  13.855  0.00  0.00    -0.274 OA
ATOM      9  N   UNL     1      13.760  12.744  15.601  0.00  0.00    -0.328 N 
ATOM     25  C   UNL     1      13.790  11.680  14.726  0.00  0.00    +0.231 C 
ATOM     31  H   UNL     1      13.028  13.445  15.544  0.00  0.00    +0.145 HD
ATOM     32  H   UNL     1      14.455  12.872  16.330  0.00  0.00    +0.145 HD
ENDBRANCH  22  25
ENDBRANCH   8  22
ENDBRANCH  15  19
BRANCH  11   1
ATOM      1  O   UNL     1      13.723   8.976  20.876  0.00  0.00    -0.387 OA
ATOM     27  H   UNL     1      14.442   9.403  20.380  0.00  0.00    +0.210 HD
ENDBRANCH  11   1
BRANCH  12   2
ATOM      2  O   UNL     1      12.082   6.148  19.235  0.00  0.00    -0.389 OA
ATOM     28  H   UNL     1      11.191   6.091  18.852  0.00  0.00    +0.210 HD
ENDBRANCH  12   2
TORSDOF 9
ENDMDL
MODEL 2
REMARK VINA RESULT:      -6.3     12.240     15.172
REMARK  Name = 11866103
REMARK  13 active torsions:
REMARK  status: ('A' for Active; 'I' for Inactive)
REMARK    1  A    between atoms: O_1  and  C_11
REMARK    2  A    between atoms: O_2  and  C_12
REMARK    3  A    between atoms: N_6  and  C_10
REMARK    4  A    between atoms: N_7  and  C_16
REMARK    5  A    between atoms: N_7  and  C_23
REMARK    6  A    between atoms: N_8  and  C_22
REMARK    7  A    between atoms: C_15  and  C_19
REMARK    8  A    between atoms: C_16  and  C_17
REMARK    9  A    between atoms: C_16  and  C_18
REMARK   10  A    between atoms: C_17  and  C_20
REMARK   11  A    between atoms: C_17  and  C_21
REMARK   12  A    between atoms: C_22  and  C_24
REMARK   13  A    between atoms: C_22  and  C_25
REMARK                            x       y       z     vdW  Elec       q    Type
REMARK                         _______ _______ _______ _____ _____    ______ ____
ROOT
ATOM     10  C   UNL     1      12.515   7.670   6.021  0.00  0.00    +0.127 C 
ATOM     11  C   UNL     1      13.721   7.516   6.969  0.00  0.00    +0.167 C 
ATOM     12  C   UNL     1      15.009   8.052   6.334  0.00  0.00    +0.149 C 
ATOM     13  C   UNL     1      15.307   7.387   4.979  0.00  0.00    +0.074 C 
ATOM     14  C   UNL     1      12.822   7.277   4.601  0.00  0.00    +0.006 C 
ATOM     15  C   UNL     1      14.078   7.145   4.149  0.00  0.00    +0.015 C 
ENDROOT
BRANCH  10   6
ATOM      3  O   UNL     1      10.433   8.585   7.781  0.00  0.00    -0.274 OA
ATOM      6  N   UNL     1      11.377   6.913   6.480  0.00  0.00    -0.305 N 
ATOM     18  C   UNL     1      10.417   7.439   7.332  0.00  0.00    +0.231 C 
ATOM     26  H   UNL     1      11.303   5.940   6.194  0.00  0.00    +0.149 HD
BRANCH  18  16
ATOM     16  C   UNL     1       9.322   6.429   7.675  0.00  0.00    +0.143 C 
BRANCH  16   7
ATOM      7  N   UNL     1       8.814   5.904   6.406  0.00  0.00    -0.309 NA
ATOM     23  C   UNL     1       8.073   6.927   5.687  0.00  0.00    +0.101 C 
ATOM     29  H   UNL     1       8.184   5.123   6.588  0.00  0.00    +0.122 HD
ENDBRANCH  16   7
BRANCH  16  17
ATOM     17  C   UNL     1       9.812   5.289   8.599  0.00  0.00    +0.009 C 
ATOM     20  C   UNL     1       8.944   5.161   9.855  0.00  0.00    +0.009 C 
ATOM     21  C   UNL     1       9.919   3.927   7.904  0.00  0.00    +0.009 C 
ENDBRANCH  16  17
ENDBRANCH  18  16
ENDBRANCH  10   6
BRANCH  15  19
ATOM      4  O   UNL     1      14.728   7.549   1.928  0.00  0.00    -0.271 OA
ATOM      8  N   UNL     1      13.845   5.464   2.486  0.00  0.00    -0.301 N 
ATOM     19  C   UNL     1      14.256   6.760   2.747  0.00  0.00    +0.240 C 
ATOM     30  H   UNL     1      13.465   4.900   3.242  0.00  0.00    +0.150 HD
BRANCH   8  22
ATOM     22  C   UNL     1      13.920   4.861   1.175  0.00  0.00    +0.156 C 
ATOM     24  C   UNL     1      12.694   4.008   0.893  0.00  0.00    +0.038 C 
BRANCH  22  25
ATOM      5  O   UNL     1      15.925   3.981   0.122  0.00  0.00    -0.274 OA
ATOM      9  N   UNL     1      15.461   3.366   2.286  0.00  0.00    -0.328 N 
ATOM     25  C   UNL     1      15.192   4.029   1.107  0.00  0.00    +0.231 C 
ATOM     31  H   UNL     1      16.287   2.784   2.379  0.00  0.00    +0.145 HD
ATOM     32  H   UNL     1      14.857   3.431   3.099  0.00  0.00    +0.145 HD
ENDBRANCH  22  25
ENDBRANCH   8  22
ENDBRANCH  15  19
BRANCH  11   1
ATOM      1  O   UNL     1      13.906   6.134   7.287  0.00  0.00    -0.387 OA
ATOM     27  H   UNL     1      13.357   5.617   6.673  0.00  0.00    +0.210 HD
ENDBRANCH  11   1
BRANCH  12   2
ATOM      2  O   UNL     1      14.926   9.467   6.175  0.00  0.00    -0.389 OA
ATOM     28  H   UNL     1      15.818   9.794   5.969  0.00  0.00    +0.210 HD
ENDBRANCH  12   2
TORSDOF 9
ENDMDL
MODEL 3
REMARK VINA RESULT:      -6.3      3.966      6.138
REMARK  Name = 11866103
REMARK  13 active torsions:
REMARK  status: ('A' for Active; 'I' for Inactive)
REMARK    1  A    between atoms: O_1  and  C_11
REMARK    2  A    between atoms: O_2  and  C_12
REMARK    3  A    between atoms: N_6  and  C_10
REMARK    4  A    between atoms: N_7  and  C_16
REMARK    5  A    between atoms: N_7  and  C_23
REMARK    6  A    between atoms: N_8  and  C_22
REMARK    7  A    between atoms: C_15  and  C_19
REMARK    8  A    between atoms: C_16  and  C_17
REMARK    9  A    between atoms: C_16  and  C_18
REMARK   10  A    between atoms: C_17  and  C_20
REMARK   11  A    between atoms: C_17  and  C_21
REMARK   12  A    between atoms: C_22  and  C_24
REMARK   13  A    between atoms: C_22  and  C_25
REMARK                            x       y       z     vdW  Elec       q    Type
REMARK                         _______ _______ _______ _____ _____    ______ ____
ROOT
ATOM     10  C   UNL     1      13.298   8.679  20.768  0.00  0.00    +0.127 C 
ATOM     11  C   UNL     1      12.362   7.457  20.821  0.00  0.00    +0.167 C 
ATOM     12  C   UNL     1      10.892   7.878  20.936  0.00  0.00    +0.149 C 
ATOM     13  C   UNL     1      10.645   8.791  22.148  0.00  0.00    +0.074 C 
ATOM     14  C   UNL     1      12.942   9.744  21.770  0.00  0.00    +0.006 C 
ATOM     15  C   UNL     1      11.753   9.778  22.388  0.00  0.00    +0.015 C 
ENDROOT
BRANCH  10   6
ATOM      3  O   UNL     1      15.543   9.501  19.169  0.00  0.00    -0.274 OA
ATOM      6  N   UNL     1      14.678   8.303  20.957  0.00  0.00    -0.305 N 
ATOM     18  C   UNL     1      15.700   8.750  20.132  0.00  0.00    +0.231 C 
ATOM     26  H   UNL     1      14.897   7.650  21.704  0.00  0.00    +0.149 HD
BRANCH  18  16
ATOM     16  C   UNL     1      17.065   8.197  20.539  0.00  0.00    +0.143 C 
BRANCH  16   7
ATOM      7  N   UNL     1      17.306   8.630  21.917  0.00  0.00    -0.309 NA
ATOM     23  C   UNL     1      18.169   9.800  21.944  0.00  0.00    +0.101 C 
ATOM     29  H   UNL     1      17.769   7.881  22.433  0.00  0.00    +0.122 HD
ENDBRANCH  16   7
BRANCH  16  17
ATOM     17  C   UNL     1      17.163   6.659  20.408  0.00  0.00    +0.009 C 
ATOM     20  C   UNL     1      16.535   6.157  19.104  0.00  0.00    +0.009 C 
ATOM     21  C   UNL     1      18.589   6.113  20.538  0.00  0.00    +0.009 C 
ENDBRANCH  16  17
ENDBRANCH  18  16
ENDBRANCH  10   6
BRANCH  15  19
ATOM      4  O   UNL     1      10.428  10.986  23.906  0.00  0.00    -0.271 OA
ATOM      8  N   UNL     1      12.618  11.683  23.514  0.00  0.00    -0.301 N 
ATOM     19  C   UNL     1      11.516  10.864  23.344  0.00  0.00    +0.240 C 
ATOM     30  H   UNL     1      13.469  11.489  22.991  0.00  0.00    +0.150 HD
BRANCH   8  22
ATOM     22  C   UNL     1      12.625  12.822  24.402  0.00  0.00    +0.156 C 
ATOM     24  C   UNL     1      13.389  13.988  23.794  0.00  0.00    +0.038 C 
BRANCH  22  25
ATOM      5  O   UNL     1      14.000  11.427  25.839  0.00  0.00    -0.274 OA
ATOM      9  N   UNL     1      12.916  13.226  26.768  0.00  0.00    -0.328 N 
ATOM     25  C   UNL     1      13.248  12.391  25.722  0.00  0.00    +0.231 C 
ATOM     31  H   UNL     1      13.275  13.058  27.702  0.00  0.00    +0.145 HD
ATOM     32  H   UNL     1      12.310  14.032  26.652  0.00  0.00    +0.145 HD
ENDBRANCH  22  25
ENDBRANCH   8  22
ENDBRANCH  15  19
BRANCH  11   1
ATOM      1  O   UNL     1      12.698   6.645  21.950  0.00  0.00    -0.387 OA
ATOM     27  H   UNL     1      13.555   6.226  21.764  0.00  0.00    +0.210 HD
ENDBRANCH  11   1
BRANCH  12   2
ATOM      2  O   UNL     1      10.473   8.529  19.739  0.00  0.00    -0.389 OA
ATOM     28  H   UNL     1      10.675   7.938  18.994  0.00  0.00    +0.210 HD
ENDBRANCH  12   2
TORSDOF 9
ENDMDL
MODEL 4
REMARK VINA RESULT:      -6.2      3.910      5.461
REMARK  Name = 11866103
REMARK  13 active torsions:
REMARK  status: ('A' for Active; 'I' for Inactive)
REMARK    1  A    between atoms: O_1  and  C_11
REMARK    2  A    between atoms: O_2  and  C_12
REMARK    3  A    between atoms: N_6  and  C_10
REMARK    4  A    between atoms: N_7  and  C_16
REMARK    5  A    between atoms: N_7  and  C_23
REMARK    6  A    between atoms: N_8  and  C_22
REMARK    7  A    between atoms: C_15  and  C_19
REMARK    8  A    between atoms: C_16  and  C_17
REMARK    9  A    between atoms: C_16  and  C_18
REMARK   10  A    between atoms: C_17  and  C_20
REMARK   11  A    between atoms: C_17  and  C_21
REMARK   12  A    between atoms: C_22  and  C_24
REMARK   13  A    between atoms: C_22  and  C_25
REMARK                            x       y       z     vdW  Elec       q    Type
REMARK                         _______ _______ _______ _____ _____    ______ ____
ROOT
ATOM     10  C   UNL     1      12.727   9.398  20.073  0.00  0.00    +0.127 C 
ATOM     11  C   UNL     1      11.878   8.115  20.155  0.00  0.00    +0.167 C 
ATOM     12  C   UNL     1      12.488   6.981  19.323  0.00  0.00    +0.149 C 
ATOM     13  C   UNL     1      12.696   7.388  17.854  0.00  0.00    +0.074 C 
ATOM     14  C   UNL     1      13.191   9.714  18.676  0.00  0.00    +0.006 C 
ATOM     15  C   UNL     1      13.164   8.807  17.689  0.00  0.00    +0.015 C 
ENDROOT
BRANCH  10   6
ATOM      3  O   UNL     1      12.956  10.492  22.723  0.00  0.00    -0.274 OA
ATOM      6  N   UNL     1      12.022  10.540  20.600  0.00  0.00    -0.305 N 
ATOM     18  C   UNL     1      12.196  10.999  21.898  0.00  0.00    +0.231 C 
ATOM     26  H   UNL     1      11.339  10.997  20.002  0.00  0.00    +0.149 HD
BRANCH  18  16
ATOM     16  C   UNL     1      11.324  12.214  22.211  0.00  0.00    +0.143 C 
BRANCH  16   7
ATOM      7  N   UNL     1      11.711  12.684  23.543  0.00  0.00    -0.309 NA
ATOM     23  C   UNL     1      10.630  12.478  24.493  0.00  0.00    +0.101 C 
ATOM     29  H   UNL     1      11.916  13.683  23.506  0.00  0.00    +0.122 HD
ENDBRANCH  16   7
BRANCH  16  17
ATOM     17  C   UNL     1      11.450  13.342  21.159  0.00  0.00    +0.009 C 
ATOM     20  C   UNL     1      10.346  14.391  21.315  0.00  0.00    +0.009 C 
ATOM     21  C   UNL     1      12.819  14.030  21.145  0.00  0.00    +0.009 C 
ENDBRANCH  16  17
ENDBRANCH  18  16
ENDBRANCH  10   6
BRANCH  15  19
ATOM      4  O   UNL     1      13.433   8.540  15.371  0.00  0.00    -0.271 OA
ATOM      8  N   UNL     1      14.326  10.431  16.401  0.00  0.00    -0.301 N 
ATOM     19  C   UNL     1      13.643   9.227  16.370  0.00  0.00    +0.240 C 
ATOM     30  H   UNL     1      14.444  10.913  17.288  0.00  0.00    +0.150 HD
BRANCH   8  22
ATOM     22  C   UNL     1      14.894  11.047  15.224  0.00  0.00    +0.156 C 
ATOM     24  C   UNL     1      16.133  11.856  15.574  0.00  0.00    +0.038 C 
BRANCH  22  25
ATOM      5  O   UNL     1      13.182  11.603  13.594  0.00  0.00    -0.274 OA
ATOM      9  N   UNL     1      13.635  13.109  15.268  0.00  0.00    -0.328 N 
ATOM     25  C   UNL     1      13.830  11.927  14.587  0.00  0.00    +0.231 C 
ATOM     31  H   UNL     1      12.943  13.783  14.954  0.00  0.00    +0.145 HD
ATOM     32  H   UNL     1      14.163  13.354  16.100  0.00  0.00    +0.145 HD
ENDBRANCH  22  25
ENDBRANCH   8  22
ENDBRANCH  15  19
BRANCH  11   1
ATOM      1  O   UNL     1      10.559   8.383  19.671  0.00  0.00    -0.387 OA
ATOM     27  H   UNL     1      10.570   8.254  18.708  0.00  0.00    +0.210 HD
ENDBRANCH  11   1
BRANCH  12   2
ATOM      2  O   UNL     1      13.725   6.563  19.895  0.00  0.00    -0.389 OA
ATOM     28  H   UNL     1      13.890   5.650  19.606  0.00  0.00    +0.210 HD
ENDBRANCH  12   2
TORSDOF 9
ENDMDL
MODEL 5
REMARK VINA RESULT:      -6.0      3.786      7.163
REMARK  Name = 11866103
REMARK  13 active torsions:
REMARK  status: ('A' for Active; 'I' for Inactive)
REMARK    1  A    between atoms: O_1  and  C_11
REMARK    2  A    between atoms: O_2  and  C_12
REMARK    3  A    between atoms: N_6  and  C_10
REMARK    4  A    between atoms: N_7  and  C_16
REMARK    5  A    between atoms: N_7  and  C_23
REMARK    6  A    between atoms: N_8  and  C_22
REMARK    7  A    between atoms: C_15  and  C_19
REMARK    8  A    between atoms: C_16  and  C_17
REMARK    9  A    between atoms: C_16  and  C_18
REMARK   10  A    between atoms: C_17  and  C_20
REMARK   11  A    between atoms: C_17  and  C_21
REMARK   12  A    between atoms: C_22  and  C_24
REMARK   13  A    between atoms: C_22  and  C_25
REMARK                            x       y       z     vdW  Elec       q    Type
REMARK                         _______ _______ _______ _____ _____    ______ ____
ROOT
ATOM     10  C   UNL     1      12.790   8.532  21.180  0.00  0.00    +0.127 C 
ATOM     11  C   UNL     1      12.647   8.635  19.649  0.00  0.00    +0.167 C 
ATOM     12  C   UNL     1      13.074   7.336  18.955  0.00  0.00    +0.149 C 
ATOM     13  C   UNL     1      14.507   6.924  19.330  0.00  0.00    +0.074 C 
ATOM     14  C   UNL     1      14.079   7.887  21.614  0.00  0.00    +0.006 C 
ATOM     15  C   UNL     1      14.843   7.176  20.772  0.00  0.00    +0.015 C 
ENDROOT
BRANCH  10   6
ATOM      3  O   UNL     1      10.489   9.586  22.546  0.00  0.00    -0.274 OA
ATOM      6  N   UNL     1      12.677   9.823  21.814  0.00  0.00    -0.305 N 
ATOM     18  C   UNL     1      11.521  10.249  22.452  0.00  0.00    +0.231 C 
ATOM     26  H   UNL     1      13.468  10.457  21.750  0.00  0.00    +0.149 HD
BRANCH  18  16
ATOM     16  C   UNL     1      11.658  11.657  23.031  0.00  0.00    +0.143 C 
BRANCH  16   7
ATOM      7  N   UNL     1      10.559  12.453  22.478  0.00  0.00    -0.309 NA
ATOM     23  C   UNL     1      11.054  13.384  21.478  0.00  0.00    +0.101 C 
ATOM     29  H   UNL     1      10.119  12.991  23.224  0.00  0.00    +0.122 HD
ENDBRANCH  16   7
BRANCH  16  17
ATOM     17  C   UNL     1      11.647  11.684  24.578  0.00  0.00    +0.009 C 
ATOM     20  C   UNL     1      13.048  11.913  25.153  0.00  0.00    +0.009 C 
ATOM     21  C   UNL     1      10.670  12.702  25.176  0.00  0.00    +0.009 C 
ENDBRANCH  16  17
ENDBRANCH  18  16
ENDBRANCH  10   6
BRANCH  15  19
ATOM      4  O   UNL     1      16.058   5.890  22.319  0.00  0.00    -0.271 OA
ATOM      8  N   UNL     1      17.196   6.920  20.563  0.00  0.00    -0.301 N 
ATOM     19  C   UNL     1      16.076   6.592  21.307  0.00  0.00    +0.240 C 
ATOM     30  H   UNL     1      17.094   7.513  19.744  0.00  0.00    +0.150 HD
BRANCH   8  22
ATOM     22  C   UNL     1      18.526   6.464  20.896  0.00  0.00    +0.156 C 
ATOM     24  C   UNL     1      19.513   7.620  20.916  0.00  0.00    +0.038 C 
BRANCH  22  25
ATOM      5  O   UNL     1      19.879   4.639  20.034  0.00  0.00    -0.274 OA
ATOM      9  N   UNL     1      18.113   5.389  18.771  0.00  0.00    -0.328 N 
ATOM     25  C   UNL     1      18.937   5.413  19.876  0.00  0.00    +0.231 C 
ATOM     31  H   UNL     1      18.270   4.725  18.019  0.00  0.00    +0.145 HD
ATOM     32  H   UNL     1      17.326   6.021  18.663  0.00  0.00    +0.145 HD
ENDBRANCH  22  25
ENDBRANCH   8  22
ENDBRANCH  15  19
BRANCH  11   1
ATOM      1  O   UNL     1      13.461   9.705  19.163  0.00  0.00    -0.387 OA
ATOM     27  H   UNL     1      13.045  10.043  18.352  0.00  0.00    +0.210 HD
ENDBRANCH  11   1
BRANCH  12   2
ATOM      2  O   UNL     1      12.164   6.286  19.275  0.00  0.00    -0.389 OA
ATOM     28  H   UNL     1      11.570   6.613  19.972  0.00  0.00    +0.210 HD
ENDBRANCH  12   2
TORSDOF 9
ENDMDL
MODEL 6
REMARK VINA RESULT:      -6.0      4.286      6.047
REMARK  Name = 11866103
REMARK  13 active torsions:
REMARK  status: ('A' for Active; 'I' for Inactive)
REMARK    1  A    between atoms: O_1  and  C_11
REMARK    2  A    between atoms: O_2  and  C_12
REMARK    3  A    between atoms: N_6  and  C_10
REMARK    4  A    between atoms: N_7  and  C_16
REMARK    5  A    between atoms: N_7  and  C_23
REMARK    6  A    between atoms: N_8  and  C_22
REMARK    7  A    between atoms: C_15  and  C_19
REMARK    8  A    between atoms: C_16  and  C_17
REMARK    9  A    between atoms: C_16  and  C_18
REMARK   10  A    between atoms: C_17  and  C_20
REMARK   11  A    between atoms: C_17  and  C_21
REMARK   12  A    between atoms: C_22  and  C_24
REMARK   13  A    between atoms: C_22  and  C_25
REMARK                            x       y       z     vdW  Elec       q    Type
REMARK                         _______ _______ _______ _____ _____    ______ ____
ROOT
ATOM     10  C   UNL     1      12.296   9.758  21.536  0.00  0.00    +0.127 C 
ATOM     11  C   UNL     1      11.601   8.581  22.248  0.00  0.00    +0.167 C 
ATOM     12  C   UNL     1      12.004   7.235  21.635  0.00  0.00    +0.149 C 
ATOM     13  C   UNL     1      11.728   7.181  20.122  0.00  0.00    +0.074 C 
ATOM     14  C   UNL     1      12.290   9.632  20.036  0.00  0.00    +0.006 C 
ATOM     15  C   UNL     1      12.026   8.473  19.415  0.00  0.00    +0.015 C 
ENDROOT
BRANCH  10   6
ATOM      3  O   UNL     1      13.518  11.839  23.100  0.00  0.00    -0.274 OA
ATOM      6  N   UNL     1      11.708  11.024  21.901  0.00  0.00    -0.305 N 
ATOM     18  C   UNL     1      12.375  11.972  22.662  0.00  0.00    +0.231 C 
ATOM     26  H   UNL     1      10.749  11.203  21.618  0.00  0.00    +0.149 HD
BRANCH  18  16
ATOM     16  C   UNL     1      11.530  13.218  22.918  0.00  0.00    +0.143 C 
BRANCH  16   7
ATOM      7  N   UNL     1      10.345  13.112  22.063  0.00  0.00    -0.309 NA
ATOM     23  C   UNL     1       9.878  14.431  21.667  0.00  0.00    +0.101 C 
ATOM     29  H   UNL     1       9.594  12.650  22.577  0.00  0.00    +0.122 HD
ENDBRANCH  16   7
BRANCH  16  17
ATOM     17  C   UNL     1      11.136  13.394  24.404  0.00  0.00    +0.009 C 
ATOM     20  C   UNL     1      10.916  12.047  25.098  0.00  0.00    +0.009 C 
ATOM     21  C   UNL     1      12.126  14.238  25.214  0.00  0.00    +0.009 C 
ENDBRANCH  16  17
ENDBRANCH  18  16
ENDBRANCH  10   6
BRANCH  15  19
ATOM      4  O   UNL     1      11.274   7.765  17.305  0.00  0.00    -0.271 OA
ATOM      8  N   UNL     1      13.013   9.314  17.424  0.00  0.00    -0.301 N 
ATOM     19  C   UNL     1      12.051   8.469  17.950  0.00  0.00    +0.240 C 
ATOM     30  H   UNL     1      13.605   9.848  18.054  0.00  0.00    +0.150 HD
BRANCH   8  22
ATOM     22  C   UNL     1      13.229   9.477  16.005  0.00  0.00    +0.156 C 
ATOM     24  C   UNL     1      14.272   8.495  15.494  0.00  0.00    +0.038 C 
BRANCH  22  25
ATOM      5  O   UNL     1      13.935  11.358  14.639  0.00  0.00    -0.274 OA
ATOM      9  N   UNL     1      13.669  11.680  16.897  0.00  0.00    -0.328 N 
ATOM     25  C   UNL     1      13.661  10.913  15.752  0.00  0.00    +0.231 C 
ATOM     31  H   UNL     1      13.927  12.661  16.866  0.00  0.00    +0.145 HD
ATOM     32  H   UNL     1      13.420  11.304  17.807  0.00  0.00    +0.145 HD
ENDBRANCH  22  25
ENDBRANCH   8  22
ENDBRANCH  15  19
BRANCH  11   1
ATOM      1  O   UNL     1      10.182   8.728  22.142  0.00  0.00    -0.387 OA
ATOM     27  H   UNL     1       9.854   9.024  23.008  0.00  0.00    +0.210 HD
ENDBRANCH  11   1
BRANCH  12   2
ATOM      2  O   UNL     1      13.382   6.973  21.889  0.00  0.00    -0.389 OA
ATOM     28  H   UNL     1      13.698   6.360  21.203  0.00  0.00    +0.210 HD
ENDBRANCH  12   2
TORSDOF 9
ENDMDL
MODEL 7
REMARK VINA RESULT:      -5.7      3.769      5.326
REMARK  Name = 11866103
REMARK  13 active torsions:
REMARK  status: ('A' for Active; 'I' for Inactive)
REMARK    1  A    between atoms: O_1  and  C_11
REMARK    2  A    between atoms: O_2  and  C_12
REMARK    3  A    between atoms: N_6  and  C_10
REMARK    4  A    between atoms: N_7  and  C_16
REMARK    5  A    between atoms: N_7  and  C_23
REMARK    6  A    between atoms: N_8  and  C_22
REMARK    7  A    between atoms: C_15  and  C_19
REMARK    8  A    between atoms: C_16  and  C_17
REMARK    9  A    between atoms: C_16  and  C_18
REMARK   10  A    between atoms: C_17  and  C_20
REMARK   11  A    between atoms: C_17  and  C_21
REMARK   12  A    between atoms: C_22  and  C_24
REMARK   13  A    between atoms: C_22  and  C_25
REMARK                            x       y       z     vdW  Elec       q    Type
REMARK                         _______ _______ _______ _____ _____    ______ ____
ROOT
ATOM     10  C   UNL     1      12.641   8.380  22.185  0.00  0.00    +0.127 C 
ATOM     11  C   UNL     1      11.282   7.695  21.949  0.00  0.00    +0.167 C 
ATOM     12  C   UNL     1      11.403   6.525  20.966  0.00  0.00    +0.149 C 
ATOM     13  C   UNL     1      12.022   6.957  19.626  0.00  0.00    +0.074 C 
ATOM     14  C   UNL     1      13.425   8.598  20.918  0.00  0.00    +0.006 C 
ATOM     15  C   UNL     1      13.131   7.960  19.776  0.00  0.00    +0.015 C 
ENDROOT
BRANCH  10   6
ATOM      3  O   UNL     1      11.972  10.910  20.990  0.00  0.00    -0.274 OA
ATOM      6  N   UNL     1      12.491   9.644  22.863  0.00  0.00    -0.305 N 
ATOM     18  C   UNL     1      12.165  10.819  22.202  0.00  0.00    +0.231 C 
ATOM     26  H   UNL     1      12.674   9.674  23.863  0.00  0.00    +0.149 HD
BRANCH  18  16
ATOM     16  C   UNL     1      12.078  12.017  23.146  0.00  0.00    +0.143 C 
BRANCH  16   7
ATOM      7  N   UNL     1      12.128  11.489  24.512  0.00  0.00    -0.309 NA
ATOM     23  C   UNL     1      11.019  12.001  25.300  0.00  0.00    +0.101 C 
ATOM     29  H   UNL     1      12.997  11.780  24.959  0.00  0.00    +0.122 HD
ENDBRANCH  16   7
BRANCH  16  17
ATOM     17  C   UNL     1      13.194  13.063  22.909  0.00  0.00    +0.009 C 
ATOM     20  C   UNL     1      12.654  14.495  22.966  0.00  0.00    +0.009 C 
ATOM     21  C   UNL     1      14.390  12.923  23.857  0.00  0.00    +0.009 C 
ENDBRANCH  16  17
ENDBRANCH  18  16
ENDBRANCH  10   6
BRANCH  15  19
ATOM      4  O   UNL     1      14.793   7.433  18.201  0.00  0.00    -0.271 OA
ATOM      8  N   UNL     1      13.706   9.491  18.052  0.00  0.00    -0.301 N 
ATOM     19  C   UNL     1      13.964   8.248  18.605  0.00  0.00    +0.240 C 
ATOM     30  H   UNL     1      12.999  10.086  18.473  0.00  0.00    +0.150 HD
BRANCH   8  22
ATOM     22  C   UNL     1      14.405   9.999  16.894  0.00  0.00    +0.156 C 
ATOM     24  C   UNL     1      14.556  11.510  16.964  0.00  0.00    +0.038 C 
BRANCH  22  25
ATOM      5  O   UNL     1      13.825   8.538  15.041  0.00  0.00    -0.274 OA
ATOM      9  N   UNL     1      12.647  10.491  15.309  0.00  0.00    -0.328 N 
ATOM     25  C   UNL     1      13.628   9.586  15.652  0.00  0.00    +0.231 C 
ATOM     31  H   UNL     1      12.047  10.330  14.506  0.00  0.00    +0.145 HD
ATOM     32  H   UNL     1      12.482  11.343  15.836  0.00  0.00    +0.145 HD
ENDBRANCH  22  25
ENDBRANCH   8  22
ENDBRANCH  15  19
BRANCH  11   1
ATOM      1  O   UNL     1      10.352   8.645  21.420  0.00  0.00    -0.387 OA
ATOM     27  H   UNL     1      10.658   8.888  20.530  0.00  0.00    +0.210 HD
ENDBRANCH  11   1
BRANCH  12   2
ATOM      2  O   UNL     1      12.176   5.476  21.545  0.00  0.00    -0.389 OA
ATOM     28  H   UNL     1      13.002   5.402  21.037  0.00  0.00    +0.210 HD
ENDBRANCH  12   2
TORSDOF 9
ENDMDL
MODEL 8
REMARK VINA RESULT:      -5.7     27.740     30.119
REMARK  Name = 11866103
REMARK  13 active torsions:
REMARK  status: ('A' for Active; 'I' for Inactive)
REMARK    1  A    between atoms: O_1  and  C_11
REMARK    2  A    between atoms: O_2  and  C_12
REMARK    3  A    between atoms: N_6  and  C_10
REMARK    4  A    between atoms: N_7  and  C_16
REMARK    5  A    between atoms: N_7  and  C_23
REMARK    6  A    between atoms: N_8  and  C_22
REMARK    7  A    between atoms: C_15  and  C_19
REMARK    8  A    between atoms: C_16  and  C_17
REMARK    9  A    between atoms: C_16  and  C_18
REMARK   10  A    between atoms: C_17  and  C_20
REMARK   11  A    between atoms: C_17  and  C_21
REMARK   12  A    between atoms: C_22  and  C_24
REMARK   13  A    between atoms: C_22  and  C_25
REMARK                            x       y       z     vdW  Elec       q    Type
REMARK                         _______ _______ _______ _____ _____    ______ ____
ROOT
ATOM     10  C   UNL     1      -7.654  -9.203  17.265  0.00  0.00    +0.127 C 
ATOM     11  C   UNL     1      -8.180 -10.358  18.139  0.00  0.00    +0.167 C 
ATOM     12  C   UNL     1      -7.063 -10.978  18.987  0.00  0.00    +0.149 C 
ATOM     13  C   UNL     1      -5.882 -11.457  18.126  0.00  0.00    +0.074 C 
ATOM     14  C   UNL     1      -6.345  -9.518  16.592  0.00  0.00    +0.006 C 
ATOM     15  C   UNL     1      -5.564 -10.536  16.982  0.00  0.00    +0.015 C 
ENDROOT
BRANCH  10   6
ATOM      3  O   UNL     1      -9.961  -7.529  17.645  0.00  0.00    -0.274 OA
ATOM      6  N   UNL     1      -8.613  -8.814  16.262  0.00  0.00    -0.305 N 
ATOM     18  C   UNL     1      -9.701  -7.998  16.537  0.00  0.00    +0.231 C 
ATOM     26  H   UNL     1      -8.503  -9.190  15.324  0.00  0.00    +0.149 HD
BRANCH  18  16
ATOM     16  C   UNL     1     -10.570  -7.746  15.306  0.00  0.00    +0.143 C 
BRANCH  16   7
ATOM      7  N   UNL     1     -11.070  -9.049  14.862  0.00  0.00    -0.309 NA
ATOM     23  C   UNL     1     -10.854  -9.222  13.435  0.00  0.00    +0.101 C 
ATOM     29  H   UNL     1     -12.073  -9.108  15.042  0.00  0.00    +0.122 HD
ENDBRANCH  16   7
BRANCH  16  17
ATOM     17  C   UNL     1     -11.732  -6.759  15.572  0.00  0.00    +0.009 C 
ATOM     20  C   UNL     1     -11.886  -5.741  14.438  0.00  0.00    +0.009 C 
ATOM     21  C   UNL     1     -13.078  -7.441  15.840  0.00  0.00    +0.009 C 
ENDBRANCH  16  17
ENDBRANCH  18  16
ENDBRANCH  10   6
BRANCH  15  19
ATOM      4  O   UNL     1      -3.247 -10.900  16.854  0.00  0.00    -0.271 OA
ATOM      8  N   UNL     1      -4.477 -10.745  14.880  0.00  0.00    -0.301 N 
ATOM     19  C   UNL     1      -4.310 -10.746  16.254  0.00  0.00    +0.240 C 
ATOM     30  H   UNL     1      -5.406 -10.604  14.491  0.00  0.00    +0.150 HD
BRANCH   8  22
ATOM     22  C   UNL     1      -3.385 -10.930  13.952  0.00  0.00    +0.156 C 
ATOM     24  C   UNL     1      -3.730 -10.372  12.581  0.00  0.00    +0.038 C 
BRANCH  22  25
ATOM      5  O   UNL     1      -3.732 -13.218  13.212  0.00  0.00    -0.274 OA
ATOM      9  N   UNL     1      -1.949 -12.768  14.589  0.00  0.00    -0.328 N 
ATOM     25  C   UNL     1      -3.075 -12.418  13.874  0.00  0.00    +0.231 C 
ATOM     31  H   UNL     1      -1.625 -13.729  14.610  0.00  0.00    +0.145 HD
ATOM     32  H   UNL     1      -1.404 -12.092  15.114  0.00  0.00    +0.145 HD
ENDBRANCH  22  25
ENDBRANCH   8  22
ENDBRANCH  15  19
BRANCH  11   1
ATOM      1  O   UNL     1      -8.741 -11.374  17.304  0.00  0.00    -0.387 OA
ATOM     27  H   UNL     1      -8.072 -11.605  16.637  0.00  0.00    +0.210 HD
ENDBRANCH  11   1
BRANCH  12   2
ATOM      2  O   UNL     1      -6.609 -10.041  19.961  0.00  0.00    -0.389 OA
ATOM     28  H   UNL     1      -6.953 -10.324  20.826  0.00  0.00    +0.210 HD
ENDBRANCH  12   2
TORSDOF 9
ENDMDL
MODEL 9
REMARK VINA RESULT:      -5.6      3.966      7.446
REMARK  Name = 11866103
REMARK  13 active torsions:
REMARK  status: ('A' for Active; 'I' for Inactive)
REMARK    1  A    between atoms: O_1  and  C_11
REMARK    2  A    between atoms: O_2  and  C_12
REMARK    3  A    between atoms: N_6  and  C_10
REMARK    4  A    between atoms: N_7  and  C_16
REMARK    5  A    between atoms: N_7  and  C_23
REMARK    6  A    between atoms: N_8  and  C_22
REMARK    7  A    between atoms: C_15  and  C_19
REMARK    8  A    between atoms: C_16  and  C_17
REMARK    9  A    between atoms: C_16  and  C_18
REMARK   10  A    between atoms: C_17  and  C_20
REMARK   11  A    between atoms: C_17  and  C_21
REMARK   12  A    between atoms: C_22  and  C_24
REMARK   13  A    between atoms: C_22  and  C_25
REMARK                            x       y       z     vdW  Elec       q    Type
REMARK                         _______ _______ _______ _____ _____    ______ ____
ROOT
ATOM     10  C   UNL     1      13.168   8.991  21.909  0.00  0.00    +0.127 C 
ATOM     11  C   UNL     1      12.472   8.384  20.675  0.00  0.00    +0.167 C 
ATOM     12  C   UNL     1      13.193   7.124  20.184  0.00  0.00    +0.149 C 
ATOM     13  C   UNL     1      14.678   7.388  19.882  0.00  0.00    +0.074 C 
ATOM     14  C   UNL     1      14.667   9.037  21.782  0.00  0.00    +0.006 C 
ATOM     15  C   UNL     1      15.331   8.320  20.864  0.00  0.00    +0.015 C 
ENDROOT
BRANCH  10   6
ATOM      3  O   UNL     1      10.907   9.683  23.546  0.00  0.00    -0.274 OA
ATOM      6  N   UNL     1      12.683  10.319  22.196  0.00  0.00    -0.305 N 
ATOM     18  C   UNL     1      11.578  10.559  23.000  0.00  0.00    +0.231 C 
ATOM     26  H   UNL     1      13.151  11.104  21.752  0.00  0.00    +0.149 HD
BRANCH  18  16
ATOM     16  C   UNL     1      11.266  12.048  23.136  0.00  0.00    +0.143 C 
BRANCH  16   7
ATOM      7  N   UNL     1      11.746  12.467  24.455  0.00  0.00    -0.309 NA
ATOM     23  C   UNL     1      10.649  12.969  25.265  0.00  0.00    +0.101 C 
ATOM     29  H   UNL     1      12.431  13.215  24.347  0.00  0.00    +0.122 HD
ENDBRANCH  16   7
BRANCH  16  17
ATOM     17  C   UNL     1      11.893  12.908  22.012  0.00  0.00    +0.009 C 
ATOM     20  C   UNL     1      10.838  13.738  21.274  0.00  0.00    +0.009 C 
ATOM     21  C   UNL     1      13.029  13.820  22.486  0.00  0.00    +0.009 C 
ENDBRANCH  16  17
ENDBRANCH  18  16
ENDBRANCH  10   6
BRANCH  15  19
ATOM      4  O   UNL     1      17.332   9.539  20.701  0.00  0.00    -0.271 OA
ATOM      8  N   UNL     1      17.437   7.226  20.970  0.00  0.00    -0.301 N 
ATOM     19  C   UNL     1      16.791   8.442  20.835  0.00  0.00    +0.240 C 
ATOM     30  H   UNL     1      16.886   6.377  21.072  0.00  0.00    +0.150 HD
BRANCH   8  22
ATOM     22  C   UNL     1      18.876   7.092  20.969  0.00  0.00    +0.156 C 
ATOM     24  C   UNL     1      19.305   5.800  20.292  0.00  0.00    +0.038 C 
BRANCH  22  25
ATOM      5  O   UNL     1      19.853   6.179  22.997  0.00  0.00    -0.274 OA
ATOM      9  N   UNL     1      19.227   8.389  22.978  0.00  0.00    -0.328 N 
ATOM     25  C   UNL     1      19.359   7.140  22.410  0.00  0.00    +0.231 C 
ATOM     31  H   UNL     1      19.523   8.561  23.933  0.00  0.00    +0.145 HD
ATOM     32  H   UNL     1      18.837   9.179  22.474  0.00  0.00    +0.145 HD
ENDBRANCH  22  25
ENDBRANCH   8  22
ENDBRANCH  15  19
BRANCH  11   1
ATOM      1  O   UNL     1      12.452   9.345  19.616  0.00  0.00    -0.387 OA
ATOM     27  H   UNL     1      11.627   9.213  19.118  0.00  0.00    +0.210 HD
ENDBRANCH  11   1
BRANCH  12   2
ATOM      2  O   UNL     1      13.069   6.080  21.148  0.00  0.00    -0.389 OA
ATOM     28  H   UNL     1      12.655   6.459  21.942  0.00  0.00    +0.210 HD
ENDBRANCH  12   2
TORSDOF 9
ENDMDL
MODEL 10
REMARK VINA RESULT:      -5.6      3.447      6.941
REMARK  Name = 11866103
REMARK  13 active torsions:
REMARK  status: ('A' for Active; 'I' for Inactive)
REMARK    1  A    between atoms: O_1  and  C_11
REMARK    2  A    between atoms: O_2  and  C_12
REMARK    3  A    between atoms: N_6  and  C_10
REMARK    4  A    between atoms: N_7  and  C_16
REMARK    5  A    between atoms: N_7  and  C_23
REMARK    6  A    between atoms: N_8  and  C_22
REMARK    7  A    between atoms: C_15  and  C_19
REMARK    8  A    between atoms: C_16  and  C_17
REMARK    9  A    between atoms: C_16  and  C_18
REMARK   10  A    between atoms: C_17  and  C_20
REMARK   11  A    between atoms: C_17  and  C_21
REMARK   12  A    between atoms: C_22  and  C_24
REMARK   13  A    between atoms: C_22  and  C_25
REMARK                            x       y       z     vdW  Elec       q    Type
REMARK                         _______ _______ _______ _____ _____    ______ ____
ROOT
ATOM     10  C   UNL     1      13.075   8.732  18.731  0.00  0.00    +0.127 C 
ATOM     11  C   UNL     1      13.890   7.541  19.273  0.00  0.00    +0.167 C 
ATOM     12  C   UNL     1      13.058   6.679  20.230  0.00  0.00    +0.149 C 
ATOM     13  C   UNL     1      12.477   7.502  21.394  0.00  0.00    +0.074 C 
ATOM     14  C   UNL     1      12.266   9.429  19.791  0.00  0.00    +0.006 C 
ATOM     15  C   UNL     1      12.012   8.870  20.983  0.00  0.00    +0.015 C 
ENDROOT
BRANCH  10   6
ATOM      3  O   UNL     1      12.882   9.618  16.002  0.00  0.00    -0.274 OA
ATOM      6  N   UNL     1      13.919   9.700  18.075  0.00  0.00    -0.305 N 
ATOM     18  C   UNL     1      13.751  10.068  16.748  0.00  0.00    +0.231 C 
ATOM     26  H   UNL     1      14.693  10.094  18.603  0.00  0.00    +0.149 HD
BRANCH  18  16
ATOM     16  C   UNL     1      14.781  11.101  16.292  0.00  0.00    +0.143 C 
BRANCH  16   7
ATOM      7  N   UNL     1      14.337  11.599  14.988  0.00  0.00    -0.309 NA
ATOM     23  C   UNL     1      15.401  11.480  14.005  0.00  0.00    +0.101 C 
ATOM     29  H   UNL     1      14.085  12.584  15.067  0.00  0.00    +0.122 HD
ENDBRANCH  16   7
BRANCH  16  17
ATOM     17  C   UNL     1      14.970  12.259  17.300  0.00  0.00    +0.009 C 
ATOM     20  C   UNL     1      16.445  12.635  17.466  0.00  0.00    +0.009 C 
ATOM     21  C   UNL     1      14.151  13.512  16.970  0.00  0.00    +0.009 C 
ENDBRANCH  16  17
ENDBRANCH  18  16
ENDBRANCH  10   6
BRANCH  15  19
ATOM      4  O   UNL     1      10.203   9.160  22.454  0.00  0.00    -0.271 OA
ATOM      8  N   UNL     1      11.712  10.913  22.159  0.00  0.00    -0.301 N 
ATOM     19  C   UNL     1      11.210   9.642  21.936  0.00  0.00    +0.240 C 
ATOM     30  H   UNL     1      12.553  11.209  21.672  0.00  0.00    +0.150 HD
BRANCH   8  22
ATOM     22  C   UNL     1      11.091  11.860  23.056  0.00  0.00    +0.156 C 
ATOM     24  C   UNL     1      11.229  13.282  22.534  0.00  0.00    +0.038 C 
BRANCH  22  25
ATOM      5  O   UNL     1      11.221  11.124  25.368  0.00  0.00    -0.274 OA
ATOM      9  N   UNL     1      12.997  12.279  24.482  0.00  0.00    -0.328 N 
ATOM     25  C   UNL     1      11.741  11.715  24.424  0.00  0.00    +0.231 C 
ATOM     31  H   UNL     1      13.546  12.242  25.335  0.00  0.00    +0.145 HD
ATOM     32  H   UNL     1      13.423  12.747  23.687  0.00  0.00    +0.145 HD
ENDBRANCH  22  25
ENDBRANCH   8  22
ENDBRANCH  15  19
BRANCH  11   1
ATOM      1  O   UNL     1      15.039   8.026  19.972  0.00  0.00    -0.387 OA
ATOM     27  H   UNL     1      15.363   7.304  20.537  0.00  0.00    +0.210 HD
ENDBRANCH  11   1
BRANCH  12   2
ATOM      2  O   UNL     1      12.007   6.030  19.519  0.00  0.00    -0.389 OA
ATOM     28  H   UNL     1      11.692   5.291  20.067  0.00  0.00    +0.210 HD
ENDBRANCH  12   2
TORSDOF 9
ENDMDL
