REMARK  Name = 51137122
REMARK  4 active torsions:
REMARK  status: ('A' for Active; 'I' for Inactive)
REMARK    1  A    between atoms: N_1  and  C_10
REMARK    2  A    between atoms: N_4  and  C_17
REMARK    3  A    between atoms: C_6  and  C_11
REMARK    4  A    between atoms: C_10  and  C_12
REMARK                            x       y       z     vdW  Elec       q    Type
REMARK                         _______ _______ _______ _____ _____    ______ ____
ROOT
ATOM      1  N   UNL     1      -0.555  -0.148  -0.114  0.00  0.00    -0.295 NA
ATOM      6  C   UNL     1       1.617  -0.598   0.647  0.00  0.00    +0.070 C 
ATOM      7  C   UNL     1       0.752  -0.569  -0.621  0.00  0.00    +0.096 C 
ATOM      8  C   UNL     1       0.926   0.383   1.611  0.00  0.00    +0.028 C 
ATOM      9  C   UNL     1      -0.264   0.929   0.833  0.00  0.00    +0.085 C 
ENDROOT
BRANCH   6  11
ATOM      2  N   UNL     1       4.051  -1.208   0.670  0.00  0.00    -0.342 N 
ATOM      3  N   UNL     1       3.566   0.800  -0.151  0.00  0.00    -0.232 NA
ATOM     11  C   UNL     1       3.073  -0.300   0.374  0.00  0.00    +0.113 A 
ATOM     13  C   UNL     1       5.255  -0.658   0.313  0.00  0.00    +0.066 A 
ATOM     14  C   UNL     1       4.926   0.595  -0.197  0.00  0.00    +0.089 A 
ATOM     18  C   UNL     1       6.564  -1.134   0.389  0.00  0.00    +0.028 A 
ATOM     19  C   UNL     1       5.950   1.436  -0.662  0.00  0.00    +0.030 A 
ATOM     22  C   UNL     1       7.572  -0.284  -0.078  0.00  0.00    +0.002 A 
ATOM     23  C   UNL     1       7.273   0.979  -0.595  0.00  0.00    +0.002 A 
ATOM     26  H   UNL     1       3.915  -2.123   1.079  0.00  0.00    +0.167 HD
ENDBRANCH   6  11
BRANCH   1  10
ATOM     10  C   UNL     1      -1.452   0.278  -1.178  0.00  0.00    +0.158 C 
BRANCH  10  12
ATOM      4  N   UNL     1      -3.619  -0.861  -0.599  0.00  0.00    -0.330 N 
ATOM      5  N   UNL     1      -3.593   1.355  -0.421  0.00  0.00    -0.231 NA
ATOM     12  C   UNL     1      -2.890   0.288  -0.730  0.00  0.00    +0.125 A 
ATOM     15  C   UNL     1      -4.877  -0.512  -0.178  0.00  0.00    +0.069 A 
ATOM     16  C   UNL     1      -4.835   0.875  -0.075  0.00  0.00    +0.089 A 
ATOM     17  C   UNL     1      -3.152  -2.204  -0.857  0.00  0.00    +0.150 C 
ATOM     20  C   UNL     1      -6.013  -1.269   0.113  0.00  0.00    +0.028 A 
ATOM     21  C   UNL     1      -5.986   1.566   0.342  0.00  0.00    +0.030 A 
ATOM     24  C   UNL     1      -7.149  -0.565   0.525  0.00  0.00    +0.002 A 
ATOM     25  C   UNL     1      -7.138   0.827   0.639  0.00  0.00    +0.002 A 
ENDBRANCH  10  12
ENDBRANCH   1  10
TORSDOF 3
