MODEL 1
REMARK VINA RESULT:      -7.6      0.000      0.000
REMARK  Name = 51137876
REMARK  4 active torsions:
REMARK  status: ('A' for Active; 'I' for Inactive)
REMARK    1  A    between atoms: N_3  and  C_8
REMARK    2  A    between atoms: C_9  and  C_17
REMARK    3  A    between atoms: C_18  and  C_21
REMARK    4  A    between atoms: C_22  and  C_26
REMARK                            x       y       z     vdW  Elec       q    Type
REMARK                         _______ _______ _______ _____ _____    ______ ____
ROOT
ATOM      5  N   UNL     1      -3.044 -11.602  16.912  0.00  0.00    -0.342 N 
ATOM      6  N   UNL     1      -4.530 -10.421  15.757  0.00  0.00    -0.231 NA
ATOM     17  C   UNL     1      -3.348 -10.991  15.727  0.00  0.00    +0.113 A 
ATOM     19  C   UNL     1      -4.102 -11.412  17.763  0.00  0.00    +0.067 A 
ATOM     20  C   UNL     1      -5.017 -10.672  17.019  0.00  0.00    +0.101 A 
ATOM     22  C   UNL     1      -6.237 -10.300  17.608  0.00  0.00    +0.064 A 
ATOM     23  C   UNL     1      -4.330 -11.812  19.080  0.00  0.00    +0.028 A 
ATOM     24  C   UNL     1      -6.488 -10.691  18.928  0.00  0.00    +0.015 A 
ATOM     25  C   UNL     1      -5.551 -11.433  19.651  0.00  0.00    +0.003 A 
ATOM     27  H   UNL     1      -2.193 -12.104  17.126  0.00  0.00    +0.167 HD
ENDROOT
BRANCH  22  26
ATOM      2  O   UNL     1      -8.057  -8.815  17.444  0.00  0.00    -0.270 OA
ATOM      7  N   UNL     1      -7.186  -9.603  15.474  0.00  0.00    -0.325 N 
ATOM     26  C   UNL     1      -7.219  -9.532  16.865  0.00  0.00    +0.244 C 
ATOM     28  H   UNL     1      -7.853  -9.074  14.921  0.00  0.00    +0.145 HD
ATOM     29  H   UNL     1      -6.522 -10.164  14.952  0.00  0.00    +0.145 HD
ENDBRANCH  22  26
BRANCH  17   9
ATOM      3  N   UNL     1      -2.285 -11.142  12.223  0.00  0.00    -0.299 NA
ATOM      9  C   UNL     1      -2.384 -11.014  14.562  0.00  0.00    +0.070 C 
ATOM     10  C   UNL     1      -2.976 -10.406  13.284  0.00  0.00    +0.096 C 
ATOM     11  C   UNL     1      -2.281 -12.535  12.671  0.00  0.00    +0.085 C 
ATOM     12  C   UNL     1      -1.909 -12.416  14.143  0.00  0.00    +0.028 C 
BRANCH   3   8
ATOM      1  O   UNL     1      -6.561  -8.317   8.825  0.00  0.00    -0.276 OA
ATOM      4  N   UNL     1      -5.184 -10.122   9.322  0.00  0.00    -0.302 N 
ATOM      8  C   UNL     1      -2.928 -10.978  10.921  0.00  0.00    +0.060 C 
ATOM     13  C   UNL     1      -4.231 -11.786  10.873  0.00  0.00    +0.038 C 
ATOM     14  C   UNL     1      -3.207  -9.494  10.654  0.00  0.00    +0.038 C 
ATOM     15  C   UNL     1      -4.971 -11.555   9.555  0.00  0.00    +0.109 C 
ATOM     16  C   UNL     1      -3.965  -9.310   9.341  0.00  0.00    +0.109 C 
ATOM     18  C   UNL     1      -6.414  -9.521   9.054  0.00  0.00    +0.212 C 
ATOM     21  C   UNL     1      -7.621 -10.425   9.054  0.00  0.00    +0.109 C 
ENDBRANCH   3   8
ENDBRANCH  17   9
TORSDOF 3
ENDMDL
MODEL 2
REMARK VINA RESULT:      -7.4      1.557      2.403
REMARK  Name = 51137876
REMARK  4 active torsions:
REMARK  status: ('A' for Active; 'I' for Inactive)
REMARK    1  A    between atoms: N_3  and  C_8
REMARK    2  A    between atoms: C_9  and  C_17
REMARK    3  A    between atoms: C_18  and  C_21
REMARK    4  A    between atoms: C_22  and  C_26
REMARK                            x       y       z     vdW  Elec       q    Type
REMARK                         _______ _______ _______ _____ _____    ______ ____
ROOT
ATOM      5  N   UNL     1      -4.647 -10.103  15.057  0.00  0.00    -0.342 N 
ATOM      6  N   UNL     1      -3.464 -11.613  16.179  0.00  0.00    -0.231 NA
ATOM     17  C   UNL     1      -3.581 -10.959  15.046  0.00  0.00    +0.113 A 
ATOM     19  C   UNL     1      -5.259 -10.213  16.280  0.00  0.00    +0.067 A 
ATOM     20  C   UNL     1      -4.502 -11.162  16.962  0.00  0.00    +0.101 A 
ATOM     22  C   UNL     1      -4.865 -11.515  18.272  0.00  0.00    +0.064 A 
ATOM     23  C   UNL     1      -6.375  -9.583  16.831  0.00  0.00    +0.028 A 
ATOM     24  C   UNL     1      -5.982 -10.896  18.845  0.00  0.00    +0.015 A 
ATOM     25  C   UNL     1      -6.723  -9.948  18.137  0.00  0.00    +0.003 A 
ATOM     27  H   UNL     1      -4.937  -9.497  14.302  0.00  0.00    +0.167 HD
ENDROOT
BRANCH  22  26
ATOM      2  O   UNL     1      -3.465 -12.185  20.044  0.00  0.00    -0.270 OA
ATOM      7  N   UNL     1      -4.111 -13.814  18.564  0.00  0.00    -0.325 N 
ATOM     26  C   UNL     1      -4.100 -12.497  19.019  0.00  0.00    +0.244 C 
ATOM     28  H   UNL     1      -3.593 -14.529  19.064  0.00  0.00    +0.145 HD
ATOM     29  H   UNL     1      -4.615 -14.124  17.741  0.00  0.00    +0.145 HD
ENDBRANCH  22  26
BRANCH  17   9
ATOM      3  N   UNL     1      -2.710 -11.099  11.489  0.00  0.00    -0.299 NA
ATOM      9  C   UNL     1      -2.686 -11.082  13.834  0.00  0.00    +0.070 C 
ATOM     10  C   UNL     1      -3.218 -10.315  12.617  0.00  0.00    +0.096 C 
ATOM     11  C   UNL     1      -2.927 -12.495  11.872  0.00  0.00    +0.085 C 
ATOM     12  C   UNL     1      -2.477 -12.520  13.328  0.00  0.00    +0.028 C 
BRANCH   3   8
ATOM      1  O   UNL     1      -7.138  -7.970   8.589  0.00  0.00    -0.276 OA
ATOM      4  N   UNL     1      -5.675  -9.764   8.790  0.00  0.00    -0.302 N 
ATOM      8  C   UNL     1      -3.370 -10.760  10.231  0.00  0.00    +0.060 C 
ATOM     13  C   UNL     1      -4.635 -11.609  10.055  0.00  0.00    +0.038 C 
ATOM     14  C   UNL     1      -3.719  -9.267  10.205  0.00  0.00    +0.038 C 
ATOM     15  C   UNL     1      -5.395 -11.205   8.791  0.00  0.00    +0.109 C 
ATOM     16  C   UNL     1      -4.495  -8.910   8.939  0.00  0.00    +0.109 C 
ATOM     18  C   UNL     1      -6.934  -9.186   8.623  0.00  0.00    +0.212 C 
ATOM     21  C   UNL     1      -8.098 -10.134   8.479  0.00  0.00    +0.109 C 
ENDBRANCH   3   8
ENDBRANCH  17   9
TORSDOF 3
ENDMDL
MODEL 3
REMARK VINA RESULT:      -7.4      2.837      4.784
REMARK  Name = 51137876
REMARK  4 active torsions:
REMARK  status: ('A' for Active; 'I' for Inactive)
REMARK    1  A    between atoms: N_3  and  C_8
REMARK    2  A    between atoms: C_9  and  C_17
REMARK    3  A    between atoms: C_18  and  C_21
REMARK    4  A    between atoms: C_22  and  C_26
REMARK                            x       y       z     vdW  Elec       q    Type
REMARK                         _______ _______ _______ _____ _____    ______ ____
ROOT
ATOM      5  N   UNL     1      -7.689  -8.880  16.341  0.00  0.00    -0.342 N 
ATOM      6  N   UNL     1      -8.175 -10.207  18.056  0.00  0.00    -0.231 NA
ATOM     17  C   UNL     1      -7.232  -9.810  17.233  0.00  0.00    +0.113 A 
ATOM     19  C   UNL     1      -9.017  -8.664  16.606  0.00  0.00    +0.067 A 
ATOM     20  C   UNL     1      -9.297  -9.504  17.680  0.00  0.00    +0.101 A 
ATOM     22  C   UNL     1     -10.598  -9.528  18.211  0.00  0.00    +0.064 A 
ATOM     23  C   UNL     1      -9.969  -7.832  16.016  0.00  0.00    +0.028 A 
ATOM     24  C   UNL     1     -11.569  -8.701  17.635  0.00  0.00    +0.015 A 
ATOM     25  C   UNL     1     -11.259  -7.869  16.557  0.00  0.00    +0.003 A 
ATOM     27  H   UNL     1      -7.149  -8.430  15.614  0.00  0.00    +0.167 HD
ENDROOT
BRANCH  22  26
ATOM      2  O   UNL     1     -11.779 -11.292  19.231  0.00  0.00    -0.270 OA
ATOM      7  N   UNL     1     -10.251 -10.184  20.533  0.00  0.00    -0.325 N 
ATOM     26  C   UNL     1     -10.929 -10.387  19.333  0.00  0.00    +0.244 C 
ATOM     28  H   UNL     1     -10.451 -10.769  21.337  0.00  0.00    +0.145 HD
ATOM     29  H   UNL     1      -9.546  -9.468  20.669  0.00  0.00    +0.145 HD
ENDBRANCH  22  26
BRANCH  17   9
ATOM      3  N   UNL     1      -4.150 -11.204  15.822  0.00  0.00    -0.299 NA
ATOM      9  C   UNL     1      -5.793 -10.275  17.214  0.00  0.00    +0.070 C 
ATOM     10  C   UNL     1      -5.132 -10.117  15.838  0.00  0.00    +0.096 C 
ATOM     11  C   UNL     1      -4.854 -12.357  16.385  0.00  0.00    +0.085 C 
ATOM     12  C   UNL     1      -5.588 -11.756  17.578  0.00  0.00    +0.028 C 
BRANCH   3   8
ATOM      1  O   UNL     1      -1.479  -9.032  10.727  0.00  0.00    -0.276 OA
ATOM      4  N   UNL     1      -2.851 -10.529  11.858  0.00  0.00    -0.302 N 
ATOM      8  C   UNL     1      -3.634 -11.469  14.482  0.00  0.00    +0.060 C 
ATOM     13  C   UNL     1      -4.674 -11.070  13.428  0.00  0.00    +0.038 C 
ATOM     14  C   UNL     1      -2.325 -10.701  14.260  0.00  0.00    +0.038 C 
ATOM     15  C   UNL     1      -4.120 -11.249  12.014  0.00  0.00    +0.109 C 
ATOM     16  C   UNL     1      -1.818 -10.889  12.832  0.00  0.00    +0.109 C 
ATOM     18  C   UNL     1      -2.568  -9.597  10.859  0.00  0.00    +0.212 C 
ATOM     21  C   UNL     1      -3.686  -9.279   9.897  0.00  0.00    +0.109 C 
ENDBRANCH   3   8
ENDBRANCH  17   9
TORSDOF 3
ENDMDL
MODEL 4
REMARK VINA RESULT:      -7.2      2.918      4.985
REMARK  Name = 51137876
REMARK  4 active torsions:
REMARK  status: ('A' for Active; 'I' for Inactive)
REMARK    1  A    between atoms: N_3  and  C_8
REMARK    2  A    between atoms: C_9  and  C_17
REMARK    3  A    between atoms: C_18  and  C_21
REMARK    4  A    between atoms: C_22  and  C_26
REMARK                            x       y       z     vdW  Elec       q    Type
REMARK                         _______ _______ _______ _____ _____    ______ ____
ROOT
ATOM      5  N   UNL     1      -8.425 -10.226  18.582  0.00  0.00    -0.342 N 
ATOM      6  N   UNL     1      -8.291  -8.891  16.811  0.00  0.00    -0.231 NA
ATOM     17  C   UNL     1      -7.615  -9.646  17.646  0.00  0.00    +0.113 A 
ATOM     19  C   UNL     1      -9.710  -9.818  18.334  0.00  0.00    +0.067 A 
ATOM     20  C   UNL     1      -9.601  -8.985  17.224  0.00  0.00    +0.101 A 
ATOM     22  C   UNL     1     -10.758  -8.385  16.700  0.00  0.00    +0.064 A 
ATOM     23  C   UNL     1     -10.922 -10.096  18.967  0.00  0.00    +0.028 A 
ATOM     24  C   UNL     1     -11.986  -8.651  17.318  0.00  0.00    +0.015 A 
ATOM     25  C   UNL     1     -12.065  -9.491  18.432  0.00  0.00    +0.003 A 
ATOM     27  H   UNL     1      -8.133 -10.846  19.325  0.00  0.00    +0.167 HD
ENDROOT
BRANCH  22  26
ATOM      2  O   UNL     1     -11.208  -7.831  14.456  0.00  0.00    -0.270 OA
ATOM      7  N   UNL     1     -10.032  -6.293  15.684  0.00  0.00    -0.325 N 
ATOM     26  C   UNL     1     -10.687  -7.513  15.542  0.00  0.00    +0.244 C 
ATOM     28  H   UNL     1      -9.968  -5.654  14.899  0.00  0.00    +0.145 HD
ATOM     29  H   UNL     1      -9.597  -5.981  16.546  0.00  0.00    +0.145 HD
ENDBRANCH  22  26
BRANCH  17   9
ATOM      3  N   UNL     1      -4.394 -10.824  16.354  0.00  0.00    -0.299 NA
ATOM      9  C   UNL     1      -6.123  -9.894  17.636  0.00  0.00    +0.070 C 
ATOM     10  C   UNL     1      -5.529  -9.908  16.221  0.00  0.00    +0.096 C 
ATOM     11  C   UNL     1      -4.900 -11.937  17.158  0.00  0.00    +0.085 C 
ATOM     12  C   UNL     1      -5.686 -11.233  18.256  0.00  0.00    +0.028 C 
BRANCH   3   8
ATOM      1  O   UNL     1      -1.167  -9.492  11.293  0.00  0.00    -0.276 OA
ATOM      4  N   UNL     1      -2.829 -10.648  12.432  0.00  0.00    -0.302 N 
ATOM      8  C   UNL     1      -3.877 -11.263  15.060  0.00  0.00    +0.060 C 
ATOM     13  C   UNL     1      -4.785 -10.757  13.932  0.00  0.00    +0.038 C 
ATOM     14  C   UNL     1      -2.444 -10.752  14.865  0.00  0.00    +0.038 C 
ATOM     15  C   UNL     1      -4.212 -11.123  12.562  0.00  0.00    +0.109 C 
ATOM     16  C   UNL     1      -1.919 -11.119  13.478  0.00  0.00    +0.109 C 
ATOM     18  C   UNL     1      -2.344  -9.847  11.399  0.00  0.00    +0.212 C 
ATOM     21  C   UNL     1      -3.345  -9.402  10.362  0.00  0.00    +0.109 C 
ENDBRANCH   3   8
ENDBRANCH  17   9
TORSDOF 3
ENDMDL
MODEL 5
REMARK VINA RESULT:      -7.0      5.464      7.904
REMARK  Name = 51137876
REMARK  4 active torsions:
REMARK  status: ('A' for Active; 'I' for Inactive)
REMARK    1  A    between atoms: N_3  and  C_8
REMARK    2  A    between atoms: C_9  and  C_17
REMARK    3  A    between atoms: C_18  and  C_21
REMARK    4  A    between atoms: C_22  and  C_26
REMARK                            x       y       z     vdW  Elec       q    Type
REMARK                         _______ _______ _______ _____ _____    ______ ____
ROOT
ATOM      5  N   UNL     1      -7.938  -9.254  15.987  0.00  0.00    -0.342 N 
ATOM      6  N   UNL     1      -8.516 -10.349  17.832  0.00  0.00    -0.231 NA
ATOM     17  C   UNL     1      -8.956  -9.658  16.805  0.00  0.00    +0.113 A 
ATOM     19  C   UNL     1      -6.763  -9.716  16.522  0.00  0.00    +0.067 A 
ATOM     20  C   UNL     1      -7.150 -10.396  17.673  0.00  0.00    +0.101 A 
ATOM     22  C   UNL     1      -6.167 -11.003  18.473  0.00  0.00    +0.064 A 
ATOM     23  C   UNL     1      -5.435  -9.600  16.110  0.00  0.00    +0.028 A 
ATOM     24  C   UNL     1      -4.828 -10.900  18.079  0.00  0.00    +0.015 A 
ATOM     25  C   UNL     1      -4.470 -10.211  16.919  0.00  0.00    +0.003 A 
ATOM     27  H   UNL     1      -8.031  -8.712  15.138  0.00  0.00    +0.167 HD
ENDROOT
BRANCH  22  26
ATOM      2  O   UNL     1      -6.156 -11.341  20.804  0.00  0.00    -0.270 OA
ATOM      7  N   UNL     1      -7.330 -12.857  19.546  0.00  0.00    -0.325 N 
ATOM     26  C   UNL     1      -6.530 -11.725  19.680  0.00  0.00    +0.244 C 
ATOM     28  H   UNL     1      -7.609 -13.384  20.367  0.00  0.00    +0.145 HD
ATOM     29  H   UNL     1      -7.667 -13.210  18.657  0.00  0.00    +0.145 HD
ENDBRANCH  22  26
BRANCH  17   9
ATOM      3  N   UNL     1     -11.738  -7.882  15.214  0.00  0.00    -0.299 NA
ATOM      9  C   UNL     1     -10.395  -9.312  16.498  0.00  0.00    +0.070 C 
ATOM     10  C   UNL     1     -10.591  -8.781  15.072  0.00  0.00    +0.096 C 
ATOM     11  C   UNL     1     -11.486  -7.142  16.451  0.00  0.00    +0.085 C 
ATOM     12  C   UNL     1     -11.008  -8.230  17.405  0.00  0.00    +0.028 C 
BRANCH   3   8
ATOM      1  O   UNL     1     -14.572  -3.037  12.702  0.00  0.00    -0.276 OA
ATOM      4  N   UNL     1     -13.469  -5.078  12.567  0.00  0.00    -0.302 N 
ATOM      8  C   UNL     1     -11.900  -6.998  14.062  0.00  0.00    +0.060 C 
ATOM     13  C   UNL     1     -13.120  -7.426  13.237  0.00  0.00    +0.038 C 
ATOM     14  C   UNL     1     -12.052  -5.545  14.530  0.00  0.00    +0.038 C 
ATOM     15  C   UNL     1     -13.367  -6.459  12.079  0.00  0.00    +0.109 C 
ATOM     16  C   UNL     1     -12.318  -4.617  13.346  0.00  0.00    +0.109 C 
ATOM     18  C   UNL     1     -14.527  -4.207  12.311  0.00  0.00    +0.212 C 
ATOM     21  C   UNL     1     -15.676  -4.759  11.503  0.00  0.00    +0.109 C 
ENDBRANCH   3   8
ENDBRANCH  17   9
TORSDOF 3
ENDMDL
MODEL 6
REMARK VINA RESULT:      -6.7     23.627     26.218
REMARK  Name = 51137876
REMARK  4 active torsions:
REMARK  status: ('A' for Active; 'I' for Inactive)
REMARK    1  A    between atoms: N_3  and  C_8
REMARK    2  A    between atoms: C_9  and  C_17
REMARK    3  A    between atoms: C_18  and  C_21
REMARK    4  A    between atoms: C_22  and  C_26
REMARK                            x       y       z     vdW  Elec       q    Type
REMARK                         _______ _______ _______ _____ _____    ______ ____
ROOT
ATOM      5  N   UNL     1       9.730   6.173   3.614  0.00  0.00    -0.342 N 
ATOM      6  N   UNL     1      10.601   4.810   5.137  0.00  0.00    -0.231 NA
ATOM     17  C   UNL     1      10.506   5.074   3.854  0.00  0.00    +0.113 A 
ATOM     19  C   UNL     1       9.295   6.651   4.823  0.00  0.00    +0.067 A 
ATOM     20  C   UNL     1       9.852   5.783   5.759  0.00  0.00    +0.101 A 
ATOM     22  C   UNL     1       9.598   5.993   7.125  0.00  0.00    +0.064 A 
ATOM     23  C   UNL     1       8.487   7.734   5.169  0.00  0.00    +0.028 A 
ATOM     24  C   UNL     1       8.790   7.074   7.495  0.00  0.00    +0.015 A 
ATOM     25  C   UNL     1       8.245   7.928   6.534  0.00  0.00    +0.003 A 
ATOM     27  H   UNL     1       9.513   6.567   2.708  0.00  0.00    +0.167 HD
ENDROOT
BRANCH  22  26
ATOM      2  O   UNL     1      10.576   5.552   9.221  0.00  0.00    -0.270 OA
ATOM      7  N   UNL     1      10.214   3.750   7.850  0.00  0.00    -0.325 N 
ATOM     26  C   UNL     1      10.163   5.113   8.131  0.00  0.00    +0.244 C 
ATOM     28  H   UNL     1      10.596   3.102   8.532  0.00  0.00    +0.145 HD
ATOM     29  H   UNL     1       9.886   3.338   6.983  0.00  0.00    +0.145 HD
ENDBRANCH  22  26
BRANCH  17   9
ATOM      3  N   UNL     1      12.355   4.572   0.730  0.00  0.00    -0.299 NA
ATOM      9  C   UNL     1      11.148   4.303   2.722  0.00  0.00    +0.070 C 
ATOM     10  C   UNL     1      12.364   5.022   2.124  0.00  0.00    +0.096 C 
ATOM     11  C   UNL     1      10.951   4.631   0.323  0.00  0.00    +0.085 C 
ATOM     12  C   UNL     1      10.226   4.031   1.521  0.00  0.00    +0.028 C 
BRANCH   3   8
ATOM      1  O   UNL     1      17.976   5.635  -1.526  0.00  0.00    -0.276 OA
ATOM      4  N   UNL     1      15.851   6.319  -0.878  0.00  0.00    -0.302 N 
ATOM      8  C   UNL     1      13.216   5.385  -0.124  0.00  0.00    +0.060 C 
ATOM     13  C   UNL     1      13.976   6.415   0.722  0.00  0.00    +0.038 C 
ATOM     14  C   UNL     1      14.199   4.489  -0.888  0.00  0.00    +0.038 C 
ATOM     15  C   UNL     1      14.955   7.215  -0.138  0.00  0.00    +0.109 C 
ATOM     16  C   UNL     1      15.172   5.328  -1.715  0.00  0.00    +0.109 C 
ATOM     18  C   UNL     1      17.245   6.378  -0.865  0.00  0.00    +0.212 C 
ATOM     21  C   UNL     1      17.868   7.425   0.024  0.00  0.00    +0.109 C 
ENDBRANCH   3   8
ENDBRANCH  17   9
TORSDOF 3
ENDMDL
MODEL 7
REMARK VINA RESULT:      -6.7      2.057      2.523
REMARK  Name = 51137876
REMARK  4 active torsions:
REMARK  status: ('A' for Active; 'I' for Inactive)
REMARK    1  A    between atoms: N_3  and  C_8
REMARK    2  A    between atoms: C_9  and  C_17
REMARK    3  A    between atoms: C_18  and  C_21
REMARK    4  A    between atoms: C_22  and  C_26
REMARK                            x       y       z     vdW  Elec       q    Type
REMARK                         _______ _______ _______ _____ _____    ______ ____
ROOT
ATOM      5  N   UNL     1      -3.189 -11.389  16.504  0.00  0.00    -0.342 N 
ATOM      6  N   UNL     1      -5.055 -10.427  15.778  0.00  0.00    -0.231 NA
ATOM     17  C   UNL     1      -3.840 -10.804  15.454  0.00  0.00    +0.113 A 
ATOM     19  C   UNL     1      -4.042 -11.391  17.577  0.00  0.00    +0.067 A 
ATOM     20  C   UNL     1      -5.200 -10.785  17.099  0.00  0.00    +0.101 A 
ATOM     22  C   UNL     1      -6.297 -10.625  17.963  0.00  0.00    +0.064 A 
ATOM     23  C   UNL     1      -3.904 -11.856  18.885  0.00  0.00    +0.028 A 
ATOM     24  C   UNL     1      -6.181 -11.084  19.281  0.00  0.00    +0.015 A 
ATOM     25  C   UNL     1      -5.006 -11.688  19.732  0.00  0.00    +0.003 A 
ATOM     27  H   UNL     1      -2.247 -11.757  16.495  0.00  0.00    +0.167 HD
ENDROOT
BRANCH  22  26
ATOM      2  O   UNL     1      -8.637 -10.369  17.921  0.00  0.00    -0.270 OA
ATOM      7  N   UNL     1      -7.420  -8.956  16.587  0.00  0.00    -0.325 N 
ATOM     26  C   UNL     1      -7.524 -10.001  17.503  0.00  0.00    +0.244 C 
ATOM     28  H   UNL     1      -8.255  -8.491  16.248  0.00  0.00    +0.145 HD
ATOM     29  H   UNL     1      -6.540  -8.611  16.220  0.00  0.00    +0.145 HD
ENDBRANCH  22  26
BRANCH  17   9
ATOM      3  N   UNL     1      -3.352 -11.256  11.850  0.00  0.00    -0.299 NA
ATOM      9  C   UNL     1      -3.172 -10.644  14.107  0.00  0.00    +0.070 C 
ATOM     10  C   UNL     1      -4.164 -10.705  12.938  0.00  0.00    +0.096 C 
ATOM     11  C   UNL     1      -2.579 -12.334  12.467  0.00  0.00    +0.085 C 
ATOM     12  C   UNL     1      -2.115 -11.712  13.778  0.00  0.00    +0.028 C 
BRANCH   3   8
ATOM      1  O   UNL     1      -3.654 -14.378   6.562  0.00  0.00    -0.276 OA
ATOM      4  N   UNL     1      -4.373 -12.716   8.018  0.00  0.00    -0.302 N 
ATOM      8  C   UNL     1      -4.164 -11.725  10.730  0.00  0.00    +0.060 C 
ATOM     13  C   UNL     1      -3.976 -10.800   9.521  0.00  0.00    +0.038 C 
ATOM     14  C   UNL     1      -3.782 -13.165  10.369  0.00  0.00    +0.038 C 
ATOM     15  C   UNL     1      -4.742 -11.325   8.306  0.00  0.00    +0.109 C 
ATOM     16  C   UNL     1      -4.552 -13.642   9.139  0.00  0.00    +0.109 C 
ATOM     18  C   UNL     1      -3.923 -13.195   6.788  0.00  0.00    +0.212 C 
ATOM     21  C   UNL     1      -3.762 -12.178   5.685  0.00  0.00    +0.109 C 
ENDBRANCH   3   8
ENDBRANCH  17   9
TORSDOF 3
ENDMDL
MODEL 8
REMARK VINA RESULT:      -6.6      3.088      4.773
REMARK  Name = 51137876
REMARK  4 active torsions:
REMARK  status: ('A' for Active; 'I' for Inactive)
REMARK    1  A    between atoms: N_3  and  C_8
REMARK    2  A    between atoms: C_9  and  C_17
REMARK    3  A    between atoms: C_18  and  C_21
REMARK    4  A    between atoms: C_22  and  C_26
REMARK                            x       y       z     vdW  Elec       q    Type
REMARK                         _______ _______ _______ _____ _____    ______ ____
ROOT
ATOM      5  N   UNL     1      -3.444 -10.309  12.321  0.00  0.00    -0.342 N 
ATOM      6  N   UNL     1      -5.352 -10.135  13.445  0.00  0.00    -0.231 NA
ATOM     17  C   UNL     1      -4.790 -10.078  12.260  0.00  0.00    +0.113 A 
ATOM     19  C   UNL     1      -3.116 -10.530  13.634  0.00  0.00    +0.067 A 
ATOM     20  C   UNL     1      -4.324 -10.416  14.316  0.00  0.00    +0.101 A 
ATOM     22  C   UNL     1      -4.343 -10.590  15.710  0.00  0.00    +0.064 A 
ATOM     23  C   UNL     1      -1.904 -10.811  14.265  0.00  0.00    +0.028 A 
ATOM     24  C   UNL     1      -3.138 -10.872  16.364  0.00  0.00    +0.015 A 
ATOM     25  C   UNL     1      -1.941 -10.980  15.654  0.00  0.00    +0.003 A 
ATOM     27  H   UNL     1      -2.801 -10.317  11.540  0.00  0.00    +0.167 HD
ENDROOT
BRANCH  22  26
ATOM      2  O   UNL     1      -5.931 -11.360  17.269  0.00  0.00    -0.270 OA
ATOM      7  N   UNL     1      -6.370  -9.351  16.255  0.00  0.00    -0.325 N 
ATOM     26  C   UNL     1      -5.583 -10.482  16.458  0.00  0.00    +0.244 C 
ATOM     28  H   UNL     1      -7.240  -9.238  16.765  0.00  0.00    +0.145 HD
ATOM     29  H   UNL     1      -6.132  -8.603  15.613  0.00  0.00    +0.145 HD
ENDBRANCH  22  26
BRANCH  17   9
ATOM      3  N   UNL     1      -5.638 -10.538   8.724  0.00  0.00    -0.299 NA
ATOM      9  C   UNL     1      -5.480  -9.798  10.944  0.00  0.00    +0.070 C 
ATOM     10  C   UNL     1      -5.678 -11.059  10.092  0.00  0.00    +0.096 C 
ATOM     11  C   UNL     1      -4.531  -9.580   8.718  0.00  0.00    +0.085 C 
ATOM     12  C   UNL     1      -4.736  -8.817  10.021  0.00  0.00    +0.028 C 
BRANCH   3   8
ATOM      1  O   UNL     1      -1.815 -13.810   5.191  0.00  0.00    -0.276 OA
ATOM      4  N   UNL     1      -3.885 -12.866   5.664  0.00  0.00    -0.302 N 
ATOM      8  C   UNL     1      -5.464 -11.593   7.730  0.00  0.00    +0.060 C 
ATOM     13  C   UNL     1      -5.330 -10.981   6.330  0.00  0.00    +0.038 C 
ATOM     14  C   UNL     1      -4.228 -12.436   8.068  0.00  0.00    +0.038 C 
ATOM     15  C   UNL     1      -5.052 -12.061   5.284  0.00  0.00    +0.109 C 
ATOM     16  C   UNL     1      -3.973 -13.487   6.988  0.00  0.00    +0.109 C 
ATOM     18  C   UNL     1      -2.767 -13.098   4.862  0.00  0.00    +0.212 C 
ATOM     21  C   UNL     1      -2.751 -12.422   3.514  0.00  0.00    +0.109 C 
ENDBRANCH   3   8
ENDBRANCH  17   9
TORSDOF 3
ENDMDL
MODEL 9
REMARK VINA RESULT:      -6.5      4.575      7.510
REMARK  Name = 51137876
REMARK  4 active torsions:
REMARK  status: ('A' for Active; 'I' for Inactive)
REMARK    1  A    between atoms: N_3  and  C_8
REMARK    2  A    between atoms: C_9  and  C_17
REMARK    3  A    between atoms: C_18  and  C_21
REMARK    4  A    between atoms: C_22  and  C_26
REMARK                            x       y       z     vdW  Elec       q    Type
REMARK                         _______ _______ _______ _____ _____    ______ ____
ROOT
ATOM      5  N   UNL     1      -7.460  -9.660  14.076  0.00  0.00    -0.342 N 
ATOM      6  N   UNL     1      -6.448 -10.310  15.944  0.00  0.00    -0.231 NA
ATOM     17  C   UNL     1      -7.577  -9.893  15.418  0.00  0.00    +0.113 A 
ATOM     19  C   UNL     1      -6.169  -9.946  13.712  0.00  0.00    +0.067 A 
ATOM     20  C   UNL     1      -5.557 -10.350  14.896  0.00  0.00    +0.101 A 
ATOM     22  C   UNL     1      -4.202 -10.721  14.874  0.00  0.00    +0.064 A 
ATOM     23  C   UNL     1      -5.504  -9.888  12.486  0.00  0.00    +0.028 A 
ATOM     24  C   UNL     1      -3.515 -10.671  13.656  0.00  0.00    +0.015 A 
ATOM     25  C   UNL     1      -4.156 -10.262  12.484  0.00  0.00    +0.003 A 
ATOM     27  H   UNL     1      -8.192  -9.335  13.458  0.00  0.00    +0.167 HD
ENDROOT
BRANCH  22  26
ATOM      2  O   UNL     1      -2.414 -10.696  16.407  0.00  0.00    -0.270 OA
ATOM      7  N   UNL     1      -4.176 -12.080  16.897  0.00  0.00    -0.325 N 
ATOM     26  C   UNL     1      -3.529 -11.151  16.086  0.00  0.00    +0.244 C 
ATOM     28  H   UNL     1      -3.739 -12.399  17.756  0.00  0.00    +0.145 HD
ATOM     29  H   UNL     1      -5.086 -12.477  16.688  0.00  0.00    +0.145 HD
ENDBRANCH  22  26
BRANCH  17   9
ATOM      3  N   UNL     1     -10.923  -8.521  16.008  0.00  0.00    -0.299 NA
ATOM      9  C   UNL     1      -8.886  -9.674  16.142  0.00  0.00    +0.070 C 
ATOM     10  C   UNL     1     -10.051  -9.369  15.192  0.00  0.00    +0.096 C 
ATOM     11  C   UNL     1     -10.019  -7.596  16.691  0.00  0.00    +0.085 C 
ATOM     12  C   UNL     1      -8.883  -8.506  17.143  0.00  0.00    +0.028 C 
BRANCH   3   8
ATOM      1  O   UNL     1     -12.312  -5.467  10.855  0.00  0.00    -0.276 OA
ATOM      4  N   UNL     1     -12.622  -5.965  13.103  0.00  0.00    -0.302 N 
ATOM      8  C   UNL     1     -11.930  -7.826  15.210  0.00  0.00    +0.060 C 
ATOM     13  C   UNL     1     -11.799  -6.310  15.403  0.00  0.00    +0.038 C 
ATOM     14  C   UNL     1     -11.775  -8.194  13.729  0.00  0.00    +0.038 C 
ATOM     15  C   UNL     1     -12.780  -5.556  14.504  0.00  0.00    +0.109 C 
ATOM     16  C   UNL     1     -12.757  -7.404  12.866  0.00  0.00    +0.109 C 
ATOM     18  C   UNL     1     -12.404  -5.102  12.030  0.00  0.00    +0.212 C 
ATOM     21  C   UNL     1     -12.275  -3.635  12.358  0.00  0.00    +0.109 C 
ENDBRANCH   3   8
ENDBRANCH  17   9
TORSDOF 3
ENDMDL
MODEL 10
REMARK VINA RESULT:      -6.5     23.360     26.680
REMARK  Name = 51137876
REMARK  4 active torsions:
REMARK  status: ('A' for Active; 'I' for Inactive)
REMARK    1  A    between atoms: N_3  and  C_8
REMARK    2  A    between atoms: C_9  and  C_17
REMARK    3  A    between atoms: C_18  and  C_21
REMARK    4  A    between atoms: C_22  and  C_26
REMARK                            x       y       z     vdW  Elec       q    Type
REMARK                         _______ _______ _______ _____ _____    ______ ____
ROOT
ATOM      5  N   UNL     1      13.370   4.006  -1.231  0.00  0.00    -0.342 N 
ATOM      6  N   UNL     1      11.283   3.247  -1.163  0.00  0.00    -0.231 NA
ATOM     17  C   UNL     1      12.310   3.646  -0.448  0.00  0.00    +0.113 A 
ATOM     19  C   UNL     1      13.003   3.829  -2.540  0.00  0.00    +0.067 A 
ATOM     20  C   UNL     1      11.696   3.354  -2.472  0.00  0.00    +0.101 A 
ATOM     22  C   UNL     1      11.009   3.063  -3.662  0.00  0.00    +0.064 A 
ATOM     23  C   UNL     1      13.680   4.036  -3.742  0.00  0.00    +0.028 A 
ATOM     24  C   UNL     1      11.669   3.264  -4.880  0.00  0.00    +0.015 A 
ATOM     25  C   UNL     1      12.981   3.741  -4.918  0.00  0.00    +0.003 A 
ATOM     27  H   UNL     1      14.266   4.345  -0.908  0.00  0.00    +0.167 HD
ENDROOT
BRANCH  22  26
ATOM      2  O   UNL     1       9.366   1.454  -3.155  0.00  0.00    -0.270 OA
ATOM      7  N   UNL     1       8.642   3.393  -4.144  0.00  0.00    -0.325 N 
ATOM     26  C   UNL     1       9.644   2.569  -3.634  0.00  0.00    +0.244 C 
ATOM     28  H   UNL     1       7.676   3.085  -4.135  0.00  0.00    +0.145 HD
ATOM     29  H   UNL     1       8.811   4.311  -4.538  0.00  0.00    +0.145 HD
ENDBRANCH  22  26
BRANCH  17   9
ATOM      3  N   UNL     1      11.305   4.621   2.939  0.00  0.00    -0.299 NA
ATOM      9  C   UNL     1      12.385   3.725   1.061  0.00  0.00    +0.070 C 
ATOM     10  C   UNL     1      11.007   3.864   1.721  0.00  0.00    +0.096 C 
ATOM     11  C   UNL     1      12.239   5.665   2.515  0.00  0.00    +0.085 C 
ATOM     12  C   UNL     1      13.200   4.910   1.606  0.00  0.00    +0.028 C 
BRANCH   3   8
ATOM      1  O   UNL     1       8.697   9.172   6.148  0.00  0.00    -0.276 OA
ATOM      4  N   UNL     1       8.851   6.956   5.466  0.00  0.00    -0.302 N 
ATOM      8  C   UNL     1      10.103   5.170   3.562  0.00  0.00    +0.060 C 
ATOM     13  C   UNL     1      10.106   4.871   5.066  0.00  0.00    +0.038 C 
ATOM     14  C   UNL     1      10.027   6.683   3.317  0.00  0.00    +0.038 C 
ATOM     15  C   UNL     1       8.905   5.518   5.757  0.00  0.00    +0.109 C 
ATOM     16  C   UNL     1       8.828   7.292   4.041  0.00  0.00    +0.109 C 
ATOM     18  C   UNL     1       8.780   7.971   6.420  0.00  0.00    +0.212 C 
ATOM     21  C   UNL     1       8.811   7.542   7.866  0.00  0.00    +0.109 C 
ENDBRANCH   3   8
ENDBRANCH  17   9
TORSDOF 3
ENDMDL
