MODEL 1
REMARK VINA RESULT:      -7.4      0.000      0.000
REMARK  Name = 28963221
REMARK  3 active torsions:
REMARK  status: ('A' for Active; 'I' for Inactive)
REMARK    1  A    between atoms: N_8  and  C_11
REMARK    2  A    between atoms: C_19  and  C_24
REMARK    3  A    between atoms: C_22  and  C_25
REMARK                            x       y       z     vdW  Elec       q    Type
REMARK                         _______ _______ _______ _____ _____    ______ ____
ROOT
ATOM      4  O   UNL     1       8.655   7.287   8.464  0.00  0.00    -0.273 OA
ATOM      5  O   UNL     1       9.173   8.510   3.421  0.00  0.00    -0.270 OA
ATOM      7  N   UNL     1       9.630   8.701   5.689  0.00  0.00    -0.286 N 
ATOM      9  N   UNL     1       9.134   5.954   6.670  0.00  0.00    -0.283 N 
ATOM     10  C   UNL     1      10.262   8.127   6.871  0.00  0.00    +0.164 C 
ATOM     11  C   UNL     1       9.762  10.314   8.119  0.00  0.00    +0.077 C 
ATOM     12  C   UNL     1      10.734   9.154   7.907  0.00  0.00    +0.054 C 
ATOM     13  C   UNL     1       9.418  10.939   6.771  0.00  0.00    +0.041 C 
ATOM     14  C   UNL     1       8.802   9.900   5.848  0.00  0.00    +0.111 C 
ATOM     15  C   UNL     1       9.264   7.117   7.407  0.00  0.00    +0.238 C 
ATOM     16  C   UNL     1       9.602   8.025   4.468  0.00  0.00    +0.249 C 
ATOM     17  C   UNL     1      10.046   6.606   4.429  0.00  0.00    +0.059 A 
ATOM     18  C   UNL     1       9.711   5.658   5.413  0.00  0.00    +0.046 A 
ATOM     20  C   UNL     1      10.655   6.182   3.236  0.00  0.00    +0.023 A 
ATOM     21  C   UNL     1       9.934   4.297   5.149  0.00  0.00    +0.024 A 
ATOM     22  C   UNL     1      10.916   4.830   3.012  0.00  0.00    -0.014 A 
ATOM     23  C   UNL     1      10.543   3.887   3.962  0.00  0.00    +0.010 A 
ATOM     35  H   UNL     1       8.648   5.189   7.132  0.00  0.00    +0.155 HD
ENDROOT
BRANCH  22  25
ATOM      2  F   UNL     1       9.518   4.704   0.578  0.00  0.00    -0.205 F 
ATOM      3  F   UNL     1      13.367   3.203  -1.725  0.00  0.00    -0.205 F 
ATOM     25  C   UNL     1      11.548   4.408   1.782  0.00  0.00    +0.018 A 
ATOM     27  C   UNL     1      10.815   4.361   0.596  0.00  0.00    +0.134 A 
ATOM     28  C   UNL     1      12.896   4.049   1.782  0.00  0.00    +0.014 A 
ATOM     31  C   UNL     1      11.429   3.953  -0.589  0.00  0.00    +0.077 A 
ATOM     32  C   UNL     1      13.511   3.642   0.599  0.00  0.00    +0.039 A 
ATOM     33  C   UNL     1      12.777   3.594  -0.588  0.00  0.00    +0.126 A 
ENDBRANCH  22  25
BRANCH  11   8
ATOM      6  O   UNL     1       8.669  11.188  10.626  0.00  0.00    -0.270 OA
ATOM      8  N   UNL     1      10.329  11.299   9.010  0.00  0.00    -0.308 N 
ATOM     19  C   UNL     1       9.723  11.656  10.206  0.00  0.00    +0.251 C 
ATOM     34  H   UNL     1      11.171  11.773   8.705  0.00  0.00    +0.149 HD
BRANCH  19  24
ATOM      1  S   UNL     1      11.024  12.309  12.550  0.00  0.00    -0.092 S 
ATOM     24  C   UNL     1      10.418  12.703  10.997  0.00  0.00    +0.074 A 
ATOM     26  C   UNL     1      10.668  14.016  10.663  0.00  0.00    +0.021 A 
ATOM     29  C   UNL     1      11.366  14.708  11.694  0.00  0.00    +0.008 A 
ATOM     30  C   UNL     1      11.623  13.897  12.778  0.00  0.00    +0.046 A 
ENDBRANCH  19  24
ENDBRANCH  11   8
TORSDOF 3
ENDMDL
MODEL 2
REMARK VINA RESULT:      -7.3      2.453      3.662
REMARK  Name = 28963221
REMARK  3 active torsions:
REMARK  status: ('A' for Active; 'I' for Inactive)
REMARK    1  A    between atoms: N_8  and  C_11
REMARK    2  A    between atoms: C_19  and  C_24
REMARK    3  A    between atoms: C_22  and  C_25
REMARK                            x       y       z     vdW  Elec       q    Type
REMARK                         _______ _______ _______ _____ _____    ______ ____
ROOT
ATOM      4  O   UNL     1      13.417   8.162   6.005  0.00  0.00    -0.273 OA
ATOM      5  O   UNL     1      10.405   4.284   4.249  0.00  0.00    -0.270 OA
ATOM      7  N   UNL     1      10.820   6.396   5.118  0.00  0.00    -0.286 N 
ATOM      9  N   UNL     1      13.501   7.015   4.030  0.00  0.00    -0.283 N 
ATOM     10  C   UNL     1      11.319   7.747   4.888  0.00  0.00    +0.164 C 
ATOM     11  C   UNL     1      10.413   8.404   7.198  0.00  0.00    +0.077 C 
ATOM     12  C   UNL     1      10.659   8.828   5.751  0.00  0.00    +0.054 C 
ATOM     13  C   UNL     1       9.656   7.081   7.215  0.00  0.00    +0.041 C 
ATOM     14  C   UNL     1      10.446   6.009   6.480  0.00  0.00    +0.111 C 
ATOM     15  C   UNL     1      12.824   7.651   5.054  0.00  0.00    +0.238 C 
ATOM     16  C   UNL     1      10.903   5.405   4.139  0.00  0.00    +0.249 C 
ATOM     17  C   UNL     1      11.700   5.679   2.913  0.00  0.00    +0.059 A 
ATOM     18  C   UNL     1      12.949   6.327   2.925  0.00  0.00    +0.046 A 
ATOM     20  C   UNL     1      11.247   5.065   1.733  0.00  0.00    +0.023 A 
ATOM     21  C   UNL     1      13.745   6.286   1.769  0.00  0.00    +0.024 A 
ATOM     22  C   UNL     1      12.031   5.079   0.579  0.00  0.00    -0.014 A 
ATOM     23  C   UNL     1      13.285   5.678   0.601  0.00  0.00    +0.010 A 
ATOM     35  H   UNL     1      14.511   7.143   4.019  0.00  0.00    +0.155 HD
ENDROOT
BRANCH  22  25
ATOM      2  F   UNL     1      13.120   2.678  -0.392  0.00  0.00    -0.205 F 
ATOM      3  F   UNL     1      10.167   2.659  -4.086  0.00  0.00    -0.205 F 
ATOM     25  C   UNL     1      11.550   4.449  -0.631  0.00  0.00    +0.018 A 
ATOM     27  C   UNL     1      12.120   3.256  -1.075  0.00  0.00    +0.134 A 
ATOM     28  C   UNL     1      10.511   5.037  -1.354  0.00  0.00    +0.014 A 
ATOM     31  C   UNL     1      11.654   2.652  -2.243  0.00  0.00    +0.077 A 
ATOM     32  C   UNL     1      10.044   4.432  -2.520  0.00  0.00    +0.039 A 
ATOM     33  C   UNL     1      10.615   3.240  -2.966  0.00  0.00    +0.126 A 
ENDBRANCH  22  25
BRANCH  11   8
ATOM      6  O   UNL     1      11.527  10.590   8.690  0.00  0.00    -0.270 OA
ATOM      8  N   UNL     1       9.680   9.423   7.912  0.00  0.00    -0.308 N 
ATOM     19  C   UNL     1      10.311  10.444   8.607  0.00  0.00    +0.251 C 
ATOM     34  H   UNL     1       8.670   9.338   7.938  0.00  0.00    +0.149 HD
BRANCH  19  24
ATOM      1  S   UNL     1       8.764  12.723   8.444  0.00  0.00    -0.092 S 
ATOM     24  C   UNL     1       9.416  11.398   9.311  0.00  0.00    +0.074 A 
ATOM     26  C   UNL     1       9.003  11.386  10.625  0.00  0.00    +0.021 A 
ATOM     29  C   UNL     1       8.140  12.479  10.925  0.00  0.00    +0.008 A 
ATOM     30  C   UNL     1       7.926  13.285   9.828  0.00  0.00    +0.046 A 
ENDBRANCH  19  24
ENDBRANCH  11   8
TORSDOF 3
ENDMDL
MODEL 3
REMARK VINA RESULT:      -7.3     16.119     20.222
REMARK  Name = 28963221
REMARK  3 active torsions:
REMARK  status: ('A' for Active; 'I' for Inactive)
REMARK    1  A    between atoms: N_8  and  C_11
REMARK    2  A    between atoms: C_19  and  C_24
REMARK    3  A    between atoms: C_22  and  C_25
REMARK                            x       y       z     vdW  Elec       q    Type
REMARK                         _______ _______ _______ _____ _____    ______ ____
ROOT
ATOM      4  O   UNL     1      22.278   7.797  21.897  0.00  0.00    -0.273 OA
ATOM      5  O   UNL     1      18.348   5.468  19.382  0.00  0.00    -0.270 OA
ATOM      7  N   UNL     1      19.989   5.645  21.015  0.00  0.00    -0.286 N 
ATOM      9  N   UNL     1      20.186   8.571  21.403  0.00  0.00    -0.283 N 
ATOM     10  C   UNL     1      20.435   6.279  22.249  0.00  0.00    +0.164 C 
ATOM     11  C   UNL     1      22.365   4.587  22.343  0.00  0.00    +0.077 C 
ATOM     12  C   UNL     1      21.339   5.404  23.127  0.00  0.00    +0.054 C 
ATOM     13  C   UNL     1      21.653   3.801  21.247  0.00  0.00    +0.041 C 
ATOM     14  C   UNL     1      20.910   4.744  20.315  0.00  0.00    +0.111 C 
ATOM     15  C   UNL     1      21.067   7.590  21.820  0.00  0.00    +0.238 C 
ATOM     16  C   UNL     1      18.818   6.039  20.367  0.00  0.00    +0.249 C 
ATOM     17  C   UNL     1      18.122   7.267  20.838  0.00  0.00    +0.059 A 
ATOM     18  C   UNL     1      18.791   8.451  21.200  0.00  0.00    +0.046 A 
ATOM     20  C   UNL     1      16.723   7.273  20.706  0.00  0.00    +0.023 A 
ATOM     21  C   UNL     1      18.046   9.631  21.356  0.00  0.00    +0.024 A 
ATOM     22  C   UNL     1      15.994   8.443  20.916  0.00  0.00    -0.014 A 
ATOM     23  C   UNL     1      16.657   9.625  21.228  0.00  0.00    +0.010 A 
ATOM     35  H   UNL     1      20.570   9.511  21.332  0.00  0.00    +0.155 HD
ENDROOT
BRANCH  22  25
ATOM      2  F   UNL     1      14.719   8.693  18.426  0.00  0.00    -0.205 F 
ATOM      3  F   UNL     1      10.440   8.403  20.420  0.00  0.00    -0.205 F 
ATOM     25  C   UNL     1      14.554   8.434  20.784  0.00  0.00    +0.018 A 
ATOM     27  C   UNL     1      13.964   8.560  19.526  0.00  0.00    +0.134 A 
ATOM     28  C   UNL     1      13.754   8.296  21.919  0.00  0.00    +0.014 A 
ATOM     31  C   UNL     1      12.574   8.550  19.403  0.00  0.00    +0.077 A 
ATOM     32  C   UNL     1      12.365   8.285  21.796  0.00  0.00    +0.039 A 
ATOM     33  C   UNL     1      11.774   8.413  20.538  0.00  0.00    +0.126 A 
ENDBRANCH  22  25
BRANCH  11   8
ATOM      6  O   UNL     1      24.985   3.501  21.896  0.00  0.00    -0.270 OA
ATOM      8  N   UNL     1      23.091   3.700  23.220  0.00  0.00    -0.308 N 
ATOM     19  C   UNL     1      24.359   3.226  22.917  0.00  0.00    +0.251 C 
ATOM     34  H   UNL     1      22.616   3.382  24.058  0.00  0.00    +0.149 HD
BRANCH  19  24
ATOM      1  S   UNL     1      26.149   2.898  24.990  0.00  0.00    -0.092 S 
ATOM     24  C   UNL     1      24.961   2.301  23.911  0.00  0.00    +0.074 A 
ATOM     26  C   UNL     1      24.701   0.965  24.115  0.00  0.00    +0.021 A 
ATOM     29  C   UNL     1      25.487   0.422  25.172  0.00  0.00    +0.008 A 
ATOM     30  C   UNL     1      26.318   1.365  25.735  0.00  0.00    +0.046 A 
ENDBRANCH  19  24
ENDBRANCH  11   8
TORSDOF 3
ENDMDL
MODEL 4
REMARK VINA RESULT:      -7.1      5.986     10.872
REMARK  Name = 28963221
REMARK  3 active torsions:
REMARK  status: ('A' for Active; 'I' for Inactive)
REMARK    1  A    between atoms: N_8  and  C_11
REMARK    2  A    between atoms: C_19  and  C_24
REMARK    3  A    between atoms: C_22  and  C_25
REMARK                            x       y       z     vdW  Elec       q    Type
REMARK                         _______ _______ _______ _____ _____    ______ ____
ROOT
ATOM      4  O   UNL     1      11.168   6.888  -0.920  0.00  0.00    -0.273 OA
ATOM      5  O   UNL     1      11.312   3.091   2.651  0.00  0.00    -0.270 OA
ATOM      7  N   UNL     1      12.236   4.662   1.213  0.00  0.00    -0.286 N 
ATOM      9  N   UNL     1      10.138   6.745   1.114  0.00  0.00    -0.283 N 
ATOM     10  C   UNL     1      12.491   6.068   0.924  0.00  0.00    +0.164 C 
ATOM     11  C   UNL     1      14.008   5.327  -1.011  0.00  0.00    +0.077 C 
ATOM     12  C   UNL     1      13.765   6.334   0.113  0.00  0.00    +0.054 C 
ATOM     13  C   UNL     1      13.943   3.913  -0.445  0.00  0.00    +0.041 C 
ATOM     14  C   UNL     1      12.590   3.662   0.202  0.00  0.00    +0.111 C 
ATOM     15  C   UNL     1      11.220   6.578   0.270  0.00  0.00    +0.238 C 
ATOM     16  C   UNL     1      11.469   4.264   2.308  0.00  0.00    +0.249 C 
ATOM     17  C   UNL     1      10.729   5.302   3.075  0.00  0.00    +0.059 A 
ATOM     18  C   UNL     1      10.035   6.367   2.473  0.00  0.00    +0.046 A 
ATOM     20  C   UNL     1      10.568   5.056   4.450  0.00  0.00    +0.023 A 
ATOM     21  C   UNL     1       9.143   7.122   3.252  0.00  0.00    +0.024 A 
ATOM     22  C   UNL     1       9.717   5.850   5.219  0.00  0.00    -0.014 A 
ATOM     23  C   UNL     1       8.994   6.873   4.617  0.00  0.00    +0.010 A 
ATOM     35  H   UNL     1       9.364   7.292   0.741  0.00  0.00    +0.155 HD
ENDROOT
BRANCH  22  25
ATOM      2  F   UNL     1       9.976   3.271   6.303  0.00  0.00    -0.205 F 
ATOM      3  F   UNL     1       9.132   4.864  10.675  0.00  0.00    -0.205 F 
ATOM     25  C   UNL     1       9.566   5.590   6.633  0.00  0.00    +0.018 A 
ATOM     27  C   UNL     1       9.704   4.293   7.127  0.00  0.00    +0.134 A 
ATOM     28  C   UNL     1       9.282   6.642   7.505  0.00  0.00    +0.014 A 
ATOM     31  C   UNL     1       9.557   4.047   8.493  0.00  0.00    +0.077 A 
ATOM     32  C   UNL     1       9.136   6.397   8.870  0.00  0.00    +0.039 A 
ATOM     33  C   UNL     1       9.273   5.099   9.364  0.00  0.00    +0.126 A 
ENDBRANCH  22  25
BRANCH  11   8
ATOM      6  O   UNL     1      14.702   4.740  -3.734  0.00  0.00    -0.270 OA
ATOM      8  N   UNL     1      15.282   5.567  -1.646  0.00  0.00    -0.308 N 
ATOM     19  C   UNL     1      15.523   5.248  -2.975  0.00  0.00    +0.251 C 
ATOM     34  H   UNL     1      16.029   5.932  -1.067  0.00  0.00    +0.149 HD
BRANCH  19  24
ATOM      1  S   UNL     1      17.287   7.126  -3.960  0.00  0.00    -0.092 S 
ATOM     24  C   UNL     1      16.893   5.533  -3.472  0.00  0.00    +0.074 A 
ATOM     26  C   UNL     1      17.959   4.672  -3.610  0.00  0.00    +0.021 A 
ATOM     29  C   UNL     1      19.114   5.327  -4.123  0.00  0.00    +0.008 A 
ATOM     30  C   UNL     1      18.888   6.665  -4.358  0.00  0.00    +0.046 A 
ENDBRANCH  19  24
ENDBRANCH  11   8
TORSDOF 3
ENDMDL
MODEL 5
REMARK VINA RESULT:      -7.0     27.751     30.669
REMARK  Name = 28963221
REMARK  3 active torsions:
REMARK  status: ('A' for Active; 'I' for Inactive)
REMARK    1  A    between atoms: N_8  and  C_11
REMARK    2  A    between atoms: C_19  and  C_24
REMARK    3  A    between atoms: C_22  and  C_25
REMARK                            x       y       z     vdW  Elec       q    Type
REMARK                         _______ _______ _______ _____ _____    ______ ____
ROOT
ATOM      4  O   UNL     1      -5.515 -14.124  16.606  0.00  0.00    -0.273 OA
ATOM      5  O   UNL     1      -7.268 -10.684  20.111  0.00  0.00    -0.270 OA
ATOM      7  N   UNL     1      -6.556 -11.369  18.010  0.00  0.00    -0.286 N 
ATOM      9  N   UNL     1      -7.345 -14.220  17.971  0.00  0.00    -0.283 N 
ATOM     10  C   UNL     1      -6.847 -12.122  16.796  0.00  0.00    +0.164 C 
ATOM     11  C   UNL     1      -4.744 -11.098  15.737  0.00  0.00    +0.077 C 
ATOM     12  C   UNL     1      -6.182 -11.573  15.528  0.00  0.00    +0.054 C 
ATOM     13  C   UNL     1      -4.699 -10.121  16.907  0.00  0.00    +0.041 C 
ATOM     14  C   UNL     1      -5.222 -10.784  18.171  0.00  0.00    +0.111 C 
ATOM     15  C   UNL     1      -6.481 -13.559  17.119  0.00  0.00    +0.238 C 
ATOM     16  C   UNL     1      -7.419 -11.382  19.108  0.00  0.00    +0.249 C 
ATOM     17  C   UNL     1      -8.552 -12.344  19.112  0.00  0.00    +0.059 A 
ATOM     18  C   UNL     1      -8.442 -13.679  18.681  0.00  0.00    +0.046 A 
ATOM     20  C   UNL     1      -9.718 -11.923  19.775  0.00  0.00    +0.023 A 
ATOM     21  C   UNL     1      -9.478 -14.578  18.985  0.00  0.00    +0.024 A 
ATOM     22  C   UNL     1     -10.758 -12.818  20.022  0.00  0.00    -0.014 A 
ATOM     23  C   UNL     1     -10.632 -14.148  19.640  0.00  0.00    +0.010 A 
ATOM     35  H   UNL     1      -7.239 -15.232  18.013  0.00  0.00    +0.155 HD
ENDROOT
BRANCH  22  25
ATOM      2  F   UNL     1     -12.232 -10.594  19.142  0.00  0.00    -0.205 F 
ATOM      3  F   UNL     1     -15.369 -11.099  22.645  0.00  0.00    -0.205 F 
ATOM     25  C   UNL     1     -11.954 -12.369  20.700  0.00  0.00    +0.018 A 
ATOM     27  C   UNL     1     -12.655 -11.260  20.227  0.00  0.00    +0.134 A 
ATOM     28  C   UNL     1     -12.408 -13.050  21.830  0.00  0.00    +0.014 A 
ATOM     31  C   UNL     1     -13.808 -10.830  20.884  0.00  0.00    +0.077 A 
ATOM     32  C   UNL     1     -13.562 -12.622  22.486  0.00  0.00    +0.039 A 
ATOM     33  C   UNL     1     -14.262 -11.511  22.014  0.00  0.00    +0.126 A 
ENDBRANCH  22  25
BRANCH  11   8
ATOM      6  O   UNL     1      -3.399 -12.424  13.574  0.00  0.00    -0.270 OA
ATOM      8  N   UNL     1      -4.229 -10.484  14.536  0.00  0.00    -0.308 N 
ATOM     19  C   UNL     1      -3.592 -11.212  13.542  0.00  0.00    +0.251 C 
ATOM     34  H   UNL     1      -4.300  -9.475  14.463  0.00  0.00    +0.149 HD
BRANCH  19  24
ATOM      1  S   UNL     1      -4.200  -9.965  11.157  0.00  0.00    -0.092 S 
ATOM     24  C   UNL     1      -3.096 -10.428  12.382  0.00  0.00    +0.074 A 
ATOM     26  C   UNL     1      -1.818  -9.989  12.118  0.00  0.00    +0.021 A 
ATOM     29  C   UNL     1      -1.742  -9.263  10.895  0.00  0.00    +0.008 A 
ATOM     30  C   UNL     1      -2.967  -9.175  10.270  0.00  0.00    +0.046 A 
ENDBRANCH  19  24
ENDBRANCH  11   8
TORSDOF 3
ENDMDL
MODEL 6
REMARK VINA RESULT:      -7.0     27.479     30.481
REMARK  Name = 28963221
REMARK  3 active torsions:
REMARK  status: ('A' for Active; 'I' for Inactive)
REMARK    1  A    between atoms: N_8  and  C_11
REMARK    2  A    between atoms: C_19  and  C_24
REMARK    3  A    between atoms: C_22  and  C_25
REMARK                            x       y       z     vdW  Elec       q    Type
REMARK                         _______ _______ _______ _____ _____    ______ ____
ROOT
ATOM      4  O   UNL     1     -14.648  10.129  27.774  0.00  0.00    -0.273 OA
ATOM      5  O   UNL     1     -12.030  13.245  24.514  0.00  0.00    -0.270 OA
ATOM      7  N   UNL     1     -12.271  11.864  26.364  0.00  0.00    -0.286 N 
ATOM      9  N   UNL     1     -14.417  10.018  25.503  0.00  0.00    -0.283 N 
ATOM     10  C   UNL     1     -12.441  10.510  26.876  0.00  0.00    +0.164 C 
ATOM     11  C   UNL     1     -12.069  11.430  29.244  0.00  0.00    +0.077 C 
ATOM     12  C   UNL     1     -11.846  10.274  28.270  0.00  0.00    +0.054 C 
ATOM     13  C   UNL     1     -11.594  12.730  28.603  0.00  0.00    +0.041 C 
ATOM     14  C   UNL     1     -12.343  12.985  27.305  0.00  0.00    +0.111 C 
ATOM     15  C   UNL     1     -13.929  10.229  26.780  0.00  0.00    +0.238 C 
ATOM     16  C   UNL     1     -12.271  12.138  24.995  0.00  0.00    +0.249 C 
ATOM     17  C   UNL     1     -12.657  11.054  24.052  0.00  0.00    +0.059 A 
ATOM     18  C   UNL     1     -13.727  10.169  24.278  0.00  0.00    +0.046 A 
ATOM     20  C   UNL     1     -12.029  11.077  22.795  0.00  0.00    +0.023 A 
ATOM     21  C   UNL     1     -14.187   9.374  23.215  0.00  0.00    +0.024 A 
ATOM     22  C   UNL     1     -12.466  10.243  21.766  0.00  0.00    -0.014 A 
ATOM     23  C   UNL     1     -13.554   9.402  21.972  0.00  0.00    +0.010 A 
ATOM     35  H   UNL     1     -15.348   9.611  25.446  0.00  0.00    +0.155 HD
ENDROOT
BRANCH  22  25
ATOM      2  F   UNL     1     -11.190   7.986  20.685  0.00  0.00    -0.205 F 
ATOM      3  F   UNL     1      -9.930  10.375  16.802  0.00  0.00    -0.205 F 
ATOM     25  C   UNL     1     -11.807  10.274  20.479  0.00  0.00    +0.018 A 
ATOM     27  C   UNL     1     -11.187   9.128  19.981  0.00  0.00    +0.134 A 
ATOM     28  C   UNL     1     -11.794  11.454  19.734  0.00  0.00    +0.014 A 
ATOM     31  C   UNL     1     -10.552   9.162  18.739  0.00  0.00    +0.077 A 
ATOM     32  C   UNL     1     -11.161  11.487  18.493  0.00  0.00    +0.039 A 
ATOM     33  C   UNL     1     -10.539  10.342  17.995  0.00  0.00    +0.126 A 
ENDBRANCH  22  25
BRANCH  11   8
ATOM      6  O   UNL     1     -13.007   9.848  31.449  0.00  0.00    -0.270 OA
ATOM      8  N   UNL     1     -11.378  11.191  30.489  0.00  0.00    -0.308 N 
ATOM     19  C   UNL     1     -11.915  10.407  31.500  0.00  0.00    +0.251 C 
ATOM     34  H   UNL     1     -10.493  11.666  30.629  0.00  0.00    +0.149 HD
BRANCH  19  24
ATOM      1  S   UNL     1     -11.831  10.511  34.256  0.00  0.00    -0.092 S 
ATOM     24  C   UNL     1     -11.091  10.279  32.729  0.00  0.00    +0.074 A 
ATOM     26  C   UNL     1      -9.750   9.987  32.843  0.00  0.00    +0.021 A 
ATOM     29  C   UNL     1      -9.324   9.952  34.202  0.00  0.00    +0.008 A 
ATOM     30  C   UNL     1     -10.355  10.220  35.075  0.00  0.00    +0.046 A 
ENDBRANCH  19  24
ENDBRANCH  11   8
TORSDOF 3
ENDMDL
MODEL 7
REMARK VINA RESULT:      -7.0     39.328     41.486
REMARK  Name = 28963221
REMARK  3 active torsions:
REMARK  status: ('A' for Active; 'I' for Inactive)
REMARK    1  A    between atoms: N_8  and  C_11
REMARK    2  A    between atoms: C_19  and  C_24
REMARK    3  A    between atoms: C_22  and  C_25
REMARK                            x       y       z     vdW  Elec       q    Type
REMARK                         _______ _______ _______ _____ _____    ______ ____
ROOT
ATOM      4  O   UNL     1      -8.763 -10.882  37.333  0.00  0.00    -0.273 OA
ATOM      5  O   UNL     1      -4.733 -10.765  40.641  0.00  0.00    -0.270 OA
ATOM      7  N   UNL     1      -5.793 -11.253  38.634  0.00  0.00    -0.286 N 
ATOM      9  N   UNL     1      -7.840  -9.123  38.463  0.00  0.00    -0.283 N 
ATOM     10  C   UNL     1      -6.354 -10.754  37.384  0.00  0.00    +0.164 C 
ATOM     11  C   UNL     1      -6.604 -13.187  36.603  0.00  0.00    +0.077 C 
ATOM     12  C   UNL     1      -6.288 -11.744  36.214  0.00  0.00    +0.054 C 
ATOM     13  C   UNL     1      -5.728 -13.596  37.782  0.00  0.00    +0.041 C 
ATOM     14  C   UNL     1      -5.964 -12.670  38.964  0.00  0.00    +0.111 C 
ATOM     15  C   UNL     1      -7.757 -10.293  37.731  0.00  0.00    +0.238 C 
ATOM     16  C   UNL     1      -5.307 -10.390  39.618  0.00  0.00    +0.249 C 
ATOM     17  C   UNL     1      -5.554  -8.931  39.471  0.00  0.00    +0.059 A 
ATOM     18  C   UNL     1      -6.779  -8.388  39.040  0.00  0.00    +0.046 A 
ATOM     20  C   UNL     1      -4.563  -8.081  39.992  0.00  0.00    +0.023 A 
ATOM     21  C   UNL     1      -7.006  -7.012  39.204  0.00  0.00    +0.024 A 
ATOM     22  C   UNL     1      -4.787  -6.709  40.099  0.00  0.00    -0.014 A 
ATOM     23  C   UNL     1      -6.013  -6.177  39.718  0.00  0.00    +0.010 A 
ATOM     35  H   UNL     1      -8.760  -8.690  38.504  0.00  0.00    +0.155 HD
ENDROOT
BRANCH  22  25
ATOM      2  F   UNL     1      -2.635  -5.809  38.534  0.00  0.00    -0.205 F 
ATOM      3  F   UNL     1      -0.819  -3.380  42.164  0.00  0.00    -0.205 F 
ATOM     25  C   UNL     1      -3.756  -5.846  40.631  0.00  0.00    +0.018 A 
ATOM     27  C   UNL     1      -2.706  -5.423  39.817  0.00  0.00    +0.134 A 
ATOM     28  C   UNL     1      -3.815  -5.435  41.963  0.00  0.00    +0.014 A 
ATOM     31  C   UNL     1      -1.713  -4.590  40.335  0.00  0.00    +0.077 A 
ATOM     32  C   UNL     1      -2.824  -4.602  42.481  0.00  0.00    +0.039 A 
ATOM     33  C   UNL     1      -1.772  -4.179  41.667  0.00  0.00    +0.126 A 
ENDBRANCH  22  25
BRANCH  11   8
ATOM      6  O   UNL     1      -8.503 -13.803  34.539  0.00  0.00    -0.270 OA
ATOM      8  N   UNL     1      -6.402 -14.075  35.482  0.00  0.00    -0.308 N 
ATOM     19  C   UNL     1      -7.384 -14.309  34.532  0.00  0.00    +0.251 C 
ATOM     34  H   UNL     1      -5.521 -14.575  35.438  0.00  0.00    +0.149 HD
BRANCH  19  24
ATOM      1  S   UNL     1      -5.504 -16.046  33.502  0.00  0.00    -0.092 S 
ATOM     24  C   UNL     1      -7.029 -15.269  33.455  0.00  0.00    +0.074 A 
ATOM     26  C   UNL     1      -7.773 -15.655  32.362  0.00  0.00    +0.021 A 
ATOM     29  C   UNL     1      -7.083 -16.602  31.553  0.00  0.00    +0.008 A 
ATOM     30  C   UNL     1      -5.837 -16.904  32.058  0.00  0.00    +0.046 A 
ENDBRANCH  19  24
ENDBRANCH  11   8
TORSDOF 3
ENDMDL
MODEL 8
REMARK VINA RESULT:      -6.8     23.443     25.857
REMARK  Name = 28963221
REMARK  3 active torsions:
REMARK  status: ('A' for Active; 'I' for Inactive)
REMARK    1  A    between atoms: N_8  and  C_11
REMARK    2  A    between atoms: C_19  and  C_24
REMARK    3  A    between atoms: C_22  and  C_25
REMARK                            x       y       z     vdW  Elec       q    Type
REMARK                         _______ _______ _______ _____ _____    ______ ____
ROOT
ATOM      4  O   UNL     1      -7.878 -10.627   3.496  0.00  0.00    -0.273 OA
ATOM      5  O   UNL     1     -11.672  -7.240   4.648  0.00  0.00    -0.270 OA
ATOM      7  N   UNL     1      -9.535  -8.134   4.796  0.00  0.00    -0.286 N 
ATOM      9  N   UNL     1      -9.161  -9.333   2.117  0.00  0.00    -0.283 N 
ATOM     10  C   UNL     1      -8.237  -8.335   4.163  0.00  0.00    +0.164 C 
ATOM     11  C   UNL     1      -7.367  -9.264   6.393  0.00  0.00    +0.077 C 
ATOM     12  C   UNL     1      -7.059  -8.447   5.138  0.00  0.00    +0.054 C 
ATOM     13  C   UNL     1      -8.637  -8.728   7.046  0.00  0.00    +0.041 C 
ATOM     14  C   UNL     1      -9.803  -8.799   6.074  0.00  0.00    +0.111 C 
ATOM     15  C   UNL     1      -8.415  -9.544   3.262  0.00  0.00    +0.238 C 
ATOM     16  C   UNL     1     -10.594  -7.523   4.123  0.00  0.00    +0.249 C 
ATOM     17  C   UNL     1     -10.456  -7.259   2.666  0.00  0.00    +0.059 A 
ATOM     18  C   UNL     1      -9.887  -8.173   1.760  0.00  0.00    +0.046 A 
ATOM     20  C   UNL     1     -11.120  -6.121   2.179  0.00  0.00    +0.023 A 
ATOM     21  C   UNL     1     -10.057  -7.957   0.382  0.00  0.00    +0.024 A 
ATOM     22  C   UNL     1     -11.234  -5.896   0.807  0.00  0.00    -0.014 A 
ATOM     23  C   UNL     1     -10.714  -6.822  -0.090  0.00  0.00    +0.010 A 
ATOM     35  H   UNL     1      -9.097 -10.059   1.406  0.00  0.00    +0.155 HD
ENDROOT
BRANCH  22  25
ATOM      2  F   UNL     1      -9.950  -3.407   0.596  0.00  0.00    -0.205 F 
ATOM      3  F   UNL     1     -13.872  -1.359  -1.075  0.00  0.00    -0.205 F 
ATOM     25  C   UNL     1     -11.915  -4.717   0.320  0.00  0.00    +0.018 A 
ATOM     27  C   UNL     1     -11.237  -3.502   0.231  0.00  0.00    +0.134 A 
ATOM     28  C   UNL     1     -13.254  -4.799  -0.064  0.00  0.00    +0.014 A 
ATOM     31  C   UNL     1     -11.898  -2.366  -0.239  0.00  0.00    +0.077 A 
ATOM     32  C   UNL     1     -13.914  -3.665  -0.535  0.00  0.00    +0.039 A 
ATOM     33  C   UNL     1     -13.237  -2.448  -0.622  0.00  0.00    +0.126 A 
ENDBRANCH  22  25
BRANCH  11   8
ATOM      6  O   UNL     1      -6.558 -11.344   8.199  0.00  0.00    -0.270 OA
ATOM      8  N   UNL     1      -6.258  -9.220   7.316  0.00  0.00    -0.308 N 
ATOM     19  C   UNL     1      -5.944 -10.281   8.153  0.00  0.00    +0.251 C 
ATOM     34  H   UNL     1      -5.737  -8.353   7.377  0.00  0.00    +0.149 HD
BRANCH  19  24
ATOM      1  S   UNL     1      -4.243 -11.372  10.032  0.00  0.00    -0.092 S 
ATOM     24  C   UNL     1      -4.789 -10.070   9.063  0.00  0.00    +0.074 A 
ATOM     26  C   UNL     1      -4.045  -8.928   9.263  0.00  0.00    +0.021 A 
ATOM     29  C   UNL     1      -3.012  -9.125  10.225  0.00  0.00    +0.008 A 
ATOM     30  C   UNL     1      -3.007 -10.409  10.723  0.00  0.00    +0.046 A 
ENDBRANCH  19  24
ENDBRANCH  11   8
TORSDOF 3
ENDMDL
MODEL 9
REMARK VINA RESULT:      -6.8      7.584     10.514
REMARK  Name = 28963221
REMARK  3 active torsions:
REMARK  status: ('A' for Active; 'I' for Inactive)
REMARK    1  A    between atoms: N_8  and  C_11
REMARK    2  A    between atoms: C_19  and  C_24
REMARK    3  A    between atoms: C_22  and  C_25
REMARK                            x       y       z     vdW  Elec       q    Type
REMARK                         _______ _______ _______ _____ _____    ______ ____
ROOT
ATOM      4  O   UNL     1       6.348  10.857  -0.596  0.00  0.00    -0.273 OA
ATOM      5  O   UNL     1       5.869  10.494   4.584  0.00  0.00    -0.270 OA
ATOM      7  N   UNL     1       5.154  10.281   2.386  0.00  0.00    -0.286 N 
ATOM      9  N   UNL     1       7.691   9.820   0.935  0.00  0.00    -0.283 N 
ATOM     10  C   UNL     1       5.255   9.562   1.122  0.00  0.00    +0.164 C 
ATOM     11  C   UNL     1       3.227  10.891   0.278  0.00  0.00    +0.077 C 
ATOM     12  C   UNL     1       3.971   9.557   0.284  0.00  0.00    +0.054 C 
ATOM     13  C   UNL     1       3.002  11.351   1.715  0.00  0.00    +0.041 C 
ATOM     14  C   UNL     1       4.331  11.492   2.440  0.00  0.00    +0.111 C 
ATOM     15  C   UNL     1       6.456  10.162   0.415  0.00  0.00    +0.238 C 
ATOM     16  C   UNL     1       5.985   9.987   3.468  0.00  0.00    +0.249 C 
ATOM     17  C   UNL     1       7.130   9.062   3.256  0.00  0.00    +0.059 A 
ATOM     18  C   UNL     1       7.959   9.096   2.120  0.00  0.00    +0.046 A 
ATOM     20  C   UNL     1       7.493   8.267   4.357  0.00  0.00    +0.023 A 
ATOM     21  C   UNL     1       9.169   8.383   2.141  0.00  0.00    +0.024 A 
ATOM     22  C   UNL     1       8.674   7.525   4.339  0.00  0.00    -0.014 A 
ATOM     23  C   UNL     1       9.518   7.594   3.237  0.00  0.00    +0.010 A 
ATOM     35  H   UNL     1       8.493  10.026   0.344  0.00  0.00    +0.155 HD
ENDROOT
BRANCH  22  25
ATOM      2  F   UNL     1       8.648   8.520   6.966  0.00  0.00    -0.205 F 
ATOM      3  F   UNL     1      10.057   4.357   8.715  0.00  0.00    -0.205 F 
ATOM     25  C   UNL     1       9.032   6.706   5.476  0.00  0.00    +0.018 A 
ATOM     27  C   UNL     1       9.005   7.243   6.764  0.00  0.00    +0.134 A 
ATOM     28  C   UNL     1       9.405   5.376   5.283  0.00  0.00    +0.014 A 
ATOM     31  C   UNL     1       9.352   6.449   7.858  0.00  0.00    +0.077 A 
ATOM     32  C   UNL     1       9.751   4.583   6.377  0.00  0.00    +0.039 A 
ATOM     33  C   UNL     1       9.725   5.119   7.665  0.00  0.00    +0.126 A 
ENDBRANCH  22  25
BRANCH  11   8
ATOM      6  O   UNL     1       2.794  11.282  -2.533  0.00  0.00    -0.270 OA
ATOM      8  N   UNL     1       1.971  10.774  -0.424  0.00  0.00    -0.308 N 
ATOM     19  C   UNL     1       1.862  10.982  -1.792  0.00  0.00    +0.251 C 
ATOM     34  H   UNL     1       1.144  10.585   0.130  0.00  0.00    +0.149 HD
BRANCH  19  24
ATOM      1  S   UNL     1       0.171  11.503  -3.909  0.00  0.00    -0.092 S 
ATOM     24  C   UNL     1       0.496  10.850  -2.360  0.00  0.00    +0.074 A 
ATOM     26  C   UNL     1      -0.615  10.250  -1.809  0.00  0.00    +0.021 A 
ATOM     29  C   UNL     1      -1.748  10.328  -2.669  0.00  0.00    +0.008 A 
ATOM     30  C   UNL     1      -1.459  10.984  -3.845  0.00  0.00    +0.046 A 
ENDBRANCH  19  24
ENDBRANCH  11   8
TORSDOF 3
ENDMDL
MODEL 10
REMARK VINA RESULT:      -6.8     14.468     16.187
REMARK  Name = 28963221
REMARK  3 active torsions:
REMARK  status: ('A' for Active; 'I' for Inactive)
REMARK    1  A    between atoms: N_8  and  C_11
REMARK    2  A    between atoms: C_19  and  C_24
REMARK    3  A    between atoms: C_22  and  C_25
REMARK                            x       y       z     vdW  Elec       q    Type
REMARK                         _______ _______ _______ _____ _____    ______ ____
ROOT
ATOM      4  O   UNL     1      -2.651  11.574   3.790  0.00  0.00    -0.273 OA
ATOM      5  O   UNL     1      -3.983   6.723   5.161  0.00  0.00    -0.270 OA
ATOM      7  N   UNL     1      -3.289   8.903   5.552  0.00  0.00    -0.286 N 
ATOM      9  N   UNL     1      -4.540  10.380   3.314  0.00  0.00    -0.283 N 
ATOM     10  C   UNL     1      -3.638  10.318   5.598  0.00  0.00    +0.164 C 
ATOM     11  C   UNL     1      -1.341  10.783   6.647  0.00  0.00    +0.077 C 
ATOM     12  C   UNL     1      -2.825  11.145   6.601  0.00  0.00    +0.054 C 
ATOM     13  C   UNL     1      -1.194   9.279   6.854  0.00  0.00    +0.041 C 
ATOM     14  C   UNL     1      -1.886   8.520   5.733  0.00  0.00    +0.111 C 
ATOM     15  C   UNL     1      -3.534  10.802   4.163  0.00  0.00    +0.238 C 
ATOM     16  C   UNL     1      -4.196   7.935   5.120  0.00  0.00    +0.249 C 
ATOM     17  C   UNL     1      -5.474   8.381   4.503  0.00  0.00    +0.059 A 
ATOM     18  C   UNL     1      -5.566   9.446   3.587  0.00  0.00    +0.046 A 
ATOM     20  C   UNL     1      -6.585   7.547   4.711  0.00  0.00    +0.023 A 
ATOM     21  C   UNL     1      -6.752   9.607   2.851  0.00  0.00    +0.024 A 
ATOM     22  C   UNL     1      -7.772   7.755   4.009  0.00  0.00    -0.014 A 
ATOM     23  C   UNL     1      -7.850   8.776   3.069  0.00  0.00    +0.010 A 
ATOM     35  H   UNL     1      -4.606  10.872   2.426  0.00  0.00    +0.155 HD
ENDROOT
BRANCH  22  25
ATOM      2  F   UNL     1     -10.112   8.667   5.268  0.00  0.00    -0.205 F 
ATOM      3  F   UNL     1     -12.152   4.417   4.885  0.00  0.00    -0.205 F 
ATOM     25  C   UNL     1      -8.910   6.892   4.238  0.00  0.00    +0.018 A 
ATOM     27  C   UNL     1     -10.052   7.388   4.867  0.00  0.00    +0.134 A 
ATOM     28  C   UNL     1      -8.864   5.559   3.827  0.00  0.00    +0.014 A 
ATOM     31  C   UNL     1     -11.147   6.552   5.086  0.00  0.00    +0.077 A 
ATOM     32  C   UNL     1      -9.959   4.724   4.045  0.00  0.00    +0.039 A 
ATOM     33  C   UNL     1     -11.101   5.220   4.675  0.00  0.00    +0.126 A 
ENDBRANCH  22  25
BRANCH  11   8
ATOM      6  O   UNL     1       1.205  12.097   6.461  0.00  0.00    -0.270 OA
ATOM      8  N   UNL     1      -0.669  11.512   7.696  0.00  0.00    -0.308 N 
ATOM     19  C   UNL     1       0.566  12.117   7.509  0.00  0.00    +0.251 C 
ATOM     34  H   UNL     1      -1.108  11.524   8.610  0.00  0.00    +0.149 HD
BRANCH  19  24
ATOM      1  S   UNL     1       2.836  12.965   8.828  0.00  0.00    -0.092 S 
ATOM     24  C   UNL     1       1.136  12.807   8.695  0.00  0.00    +0.074 A 
ATOM     26  C   UNL     1       0.478  13.372   9.764  0.00  0.00    +0.021 A 
ATOM     29  C   UNL     1       1.381  13.943  10.707  0.00  0.00    +0.008 A 
ATOM     30  C   UNL     1       2.695  13.792  10.321  0.00  0.00    +0.046 A 
ENDBRANCH  19  24
ENDBRANCH  11   8
TORSDOF 3
ENDMDL
