MODEL 1
REMARK VINA RESULT:      -7.6      0.000      0.000
REMARK  Name = 45360967
REMARK  9 active torsions:
REMARK  status: ('A' for Active; 'I' for Inactive)
REMARK    1  A    between atoms: N_3  and  C_16
REMARK    2  A    between atoms: N_4  and  C_18
REMARK    3  A    between atoms: N_6  and  C_24
REMARK    4  A    between atoms: N_8  and  C_27
REMARK    5  A    between atoms: C_13  and  C_17
REMARK    6  A    between atoms: C_16  and  C_19
REMARK    7  A    between atoms: C_17  and  C_20
REMARK    8  A    between atoms: C_20  and  C_21
REMARK    9  A    between atoms: C_27  and  C_30
REMARK                            x       y       z     vdW  Elec       q    Type
REMARK                         _______ _______ _______ _____ _____    ______ ____
ROOT
ATOM      1  O   UNL     1      -7.692  -9.408  15.724  0.00  0.00    -0.274 OA
ATOM      3  N   UNL     1      -8.681 -10.987  17.679  0.00  0.00    -0.283 NA
ATOM      4  N   UNL     1      -5.579 -12.550  16.526  0.00  0.00    -0.296 NA
ATOM      5  N   UNL     1      -5.504  -9.673  16.337  0.00  0.00    -0.312 N 
ATOM      9  C   UNL     1      -6.635 -12.284  17.528  0.00  0.00    +0.084 C 
ATOM     10  C   UNL     1      -7.214 -10.843  17.630  0.00  0.00    +0.161 C 
ATOM     11  C   UNL     1      -7.908 -13.129  17.334  0.00  0.00    +0.036 C 
ATOM     12  C   UNL     1      -8.962 -12.356  18.098  0.00  0.00    +0.087 C 
ATOM     13  C   UNL     1      -4.311 -11.804  16.753  0.00  0.00    +0.074 C 
ATOM     14  C   UNL     1      -6.858  -9.921  16.468  0.00  0.00    +0.232 C 
ATOM     15  C   UNL     1      -4.491 -10.324  17.145  0.00  0.00    +0.123 C 
ATOM     18  C   UNL     1      -5.309 -13.995  16.421  0.00  0.00    +0.105 C 
ATOM     36  H   UNL     1      -5.201  -9.048  15.596  0.00  0.00    +0.149 HD
ENDROOT
BRANCH   3  16
ATOM     16  C   UNL     1      -9.330 -10.006  18.537  0.00  0.00    +0.159 C 
BRANCH  16  19
ATOM      6  N   UNL     1     -11.492  -9.383  17.422  0.00  0.00    -0.330 N 
ATOM      7  N   UNL     1      -9.859  -7.878  17.317  0.00  0.00    -0.231 NA
ATOM     19  C   UNL     1     -10.205  -9.068  17.757  0.00  0.00    +0.125 A 
ATOM     22  C   UNL     1     -12.012  -8.326  16.720  0.00  0.00    +0.069 A 
ATOM     23  C   UNL     1     -10.974  -7.400  16.668  0.00  0.00    +0.089 A 
ATOM     24  C   UNL     1     -12.186 -10.608  17.749  0.00  0.00    +0.150 C 
ATOM     25  C   UNL     1     -13.263  -8.107  16.143  0.00  0.00    +0.028 A 
ATOM     26  C   UNL     1     -11.178  -6.178  16.005  0.00  0.00    +0.030 A 
ATOM     28  C   UNL     1     -13.450  -6.885  15.488  0.00  0.00    +0.002 A 
ATOM     29  C   UNL     1     -12.427  -5.937  15.419  0.00  0.00    +0.002 A 
ENDBRANCH  16  19
ENDBRANCH   3  16
BRANCH  13  17
ATOM     17  C   UNL     1      -3.426 -11.846  15.489  0.00  0.00    +0.029 C 
BRANCH  17  20
ATOM     20  C   UNL     1      -2.162 -11.031  15.693  0.00  0.00    +0.097 C 
BRANCH  20  21
ATOM      2  O   UNL     1      -1.006  -9.347  14.391  0.00  0.00    -0.276 OA
ATOM      8  N   UNL     1      -2.249 -10.970  13.291  0.00  0.00    -0.311 N 
ATOM     21  C   UNL     1      -1.729 -10.341  14.412  0.00  0.00    +0.213 C 
ATOM     37  H   UNL     1      -2.839 -11.788  13.414  0.00  0.00    +0.149 HD
BRANCH   8  27
ATOM     27  C   UNL     1      -1.982 -10.502  11.951  0.00  0.00    +0.139 C 
BRANCH  27  30
ATOM     30  C   UNL     1      -3.205  -9.917  11.305  0.00  0.00    -0.030 A 
ATOM     31  C   UNL     1      -4.442 -10.012  11.942  0.00  0.00    +0.005 A 
ATOM     32  C   UNL     1      -3.103  -9.278  10.069  0.00  0.00    +0.005 A 
ATOM     33  C   UNL     1      -5.579  -9.467  11.342  0.00  0.00    +0.000 A 
ATOM     34  C   UNL     1      -4.240  -8.735   9.470  0.00  0.00    +0.000 A 
ATOM     35  C   UNL     1      -5.477  -8.830  10.106  0.00  0.00    +0.000 A 
ENDBRANCH  27  30
ENDBRANCH   8  27
ENDBRANCH  20  21
ENDBRANCH  17  20
ENDBRANCH  13  17
TORSDOF 7
ENDMDL
MODEL 2
REMARK VINA RESULT:      -7.3      2.652      3.481
REMARK  Name = 45360967
REMARK  9 active torsions:
REMARK  status: ('A' for Active; 'I' for Inactive)
REMARK    1  A    between atoms: N_3  and  C_16
REMARK    2  A    between atoms: N_4  and  C_18
REMARK    3  A    between atoms: N_6  and  C_24
REMARK    4  A    between atoms: N_8  and  C_27
REMARK    5  A    between atoms: C_13  and  C_17
REMARK    6  A    between atoms: C_16  and  C_19
REMARK    7  A    between atoms: C_17  and  C_20
REMARK    8  A    between atoms: C_20  and  C_21
REMARK    9  A    between atoms: C_27  and  C_30
REMARK                            x       y       z     vdW  Elec       q    Type
REMARK                         _______ _______ _______ _____ _____    ______ ____
ROOT
ATOM      1  O   UNL     1      -6.345 -10.004  20.027  0.00  0.00    -0.274 OA
ATOM      3  N   UNL     1      -8.480 -11.005  18.711  0.00  0.00    -0.283 NA
ATOM      4  N   UNL     1      -5.883 -10.401  16.205  0.00  0.00    -0.296 NA
ATOM      5  N   UNL     1      -4.792 -11.124  18.776  0.00  0.00    -0.312 N 
ATOM      9  C   UNL     1      -7.092 -11.079  16.721  0.00  0.00    +0.084 C 
ATOM     10  C   UNL     1      -7.153 -11.437  18.234  0.00  0.00    +0.161 C 
ATOM     11  C   UNL     1      -8.390 -10.271  16.530  0.00  0.00    +0.036 C 
ATOM     12  C   UNL     1      -9.339 -10.887  17.537  0.00  0.00    +0.087 C 
ATOM     13  C   UNL     1      -4.635 -11.207  16.305  0.00  0.00    +0.074 C 
ATOM     14  C   UNL     1      -6.088 -10.768  19.099  0.00  0.00    +0.232 C 
ATOM     15  C   UNL     1      -4.452 -11.957  17.639  0.00  0.00    +0.123 C 
ATOM     18  C   UNL     1      -6.088  -9.947  14.818  0.00  0.00    +0.105 C 
ATOM     36  H   UNL     1      -4.036 -10.731  19.328  0.00  0.00    +0.149 HD
ENDROOT
BRANCH   3  16
ATOM     16  C   UNL     1      -9.048 -11.890  19.720  0.00  0.00    +0.159 C 
BRANCH  16  19
ATOM      6  N   UNL     1     -11.426 -12.492  20.255  0.00  0.00    -0.330 N 
ATOM      7  N   UNL     1     -10.959 -10.321  20.145  0.00  0.00    -0.231 NA
ATOM     19  C   UNL     1     -10.472 -11.538  20.039  0.00  0.00    +0.125 A 
ATOM     22  C   UNL     1     -12.609 -11.849  20.519  0.00  0.00    +0.069 A 
ATOM     23  C   UNL     1     -12.291 -10.495  20.446  0.00  0.00    +0.089 A 
ATOM     24  C   UNL     1     -11.230 -13.923  20.214  0.00  0.00    +0.150 C 
ATOM     25  C   UNL     1     -13.889 -12.320  20.808  0.00  0.00    +0.028 A 
ATOM     26  C   UNL     1     -13.299  -9.542  20.670  0.00  0.00    +0.030 A 
ATOM     28  C   UNL     1     -14.880 -11.358  21.030  0.00  0.00    +0.002 A 
ATOM     29  C   UNL     1     -14.592  -9.993  20.962  0.00  0.00    +0.002 A 
ENDBRANCH  16  19
ENDBRANCH   3  16
BRANCH  13  17
ATOM     17  C   UNL     1      -3.395 -10.309  16.104  0.00  0.00    +0.029 C 
BRANCH  17  20
ATOM     20  C   UNL     1      -2.137 -11.150  15.993  0.00  0.00    +0.097 C 
BRANCH  20  21
ATOM      2  O   UNL     1      -1.544 -12.706  14.234  0.00  0.00    -0.276 OA
ATOM      8  N   UNL     1      -2.026 -10.504  13.679  0.00  0.00    -0.311 N 
ATOM     21  C   UNL     1      -1.865 -11.565  14.558  0.00  0.00    +0.213 C 
ATOM     37  H   UNL     1      -2.296  -9.595  14.048  0.00  0.00    +0.149 HD
BRANCH   8  27
ATOM     27  C   UNL     1      -1.824 -10.643  12.257  0.00  0.00    +0.139 C 
BRANCH  27  30
ATOM     30  C   UNL     1      -3.001 -10.143  11.470  0.00  0.00    -0.030 A 
ATOM     31  C   UNL     1      -2.799  -9.352  10.339  0.00  0.00    +0.005 A 
ATOM     32  C   UNL     1      -4.297 -10.470  11.870  0.00  0.00    +0.005 A 
ATOM     33  C   UNL     1      -3.892  -8.888   9.608  0.00  0.00    +0.000 A 
ATOM     34  C   UNL     1      -5.390 -10.005  11.139  0.00  0.00    +0.000 A 
ATOM     35  C   UNL     1      -5.188  -9.213  10.008  0.00  0.00    +0.000 A 
ENDBRANCH  27  30
ENDBRANCH   8  27
ENDBRANCH  20  21
ENDBRANCH  17  20
ENDBRANCH  13  17
TORSDOF 7
ENDMDL
MODEL 3
REMARK VINA RESULT:      -7.1      2.506      7.401
REMARK  Name = 45360967
REMARK  9 active torsions:
REMARK  status: ('A' for Active; 'I' for Inactive)
REMARK    1  A    between atoms: N_3  and  C_16
REMARK    2  A    between atoms: N_4  and  C_18
REMARK    3  A    between atoms: N_6  and  C_24
REMARK    4  A    between atoms: N_8  and  C_27
REMARK    5  A    between atoms: C_13  and  C_17
REMARK    6  A    between atoms: C_16  and  C_19
REMARK    7  A    between atoms: C_17  and  C_20
REMARK    8  A    between atoms: C_20  and  C_21
REMARK    9  A    between atoms: C_27  and  C_30
REMARK                            x       y       z     vdW  Elec       q    Type
REMARK                         _______ _______ _______ _____ _____    ______ ____
ROOT
ATOM      1  O   UNL     1      -6.230  -9.603  13.556  0.00  0.00    -0.274 OA
ATOM      3  N   UNL     1      -4.190 -10.646  12.126  0.00  0.00    -0.283 NA
ATOM      4  N   UNL     1      -3.231 -10.866  15.651  0.00  0.00    -0.296 NA
ATOM      5  N   UNL     1      -6.078 -11.119  15.262  0.00  0.00    -0.312 N 
ATOM      9  C   UNL     1      -3.174 -11.290  14.234  0.00  0.00    +0.084 C 
ATOM     10  C   UNL     1      -4.495 -11.303  13.411  0.00  0.00    +0.161 C 
ATOM     11  C   UNL     1      -2.258 -10.416  13.357  0.00  0.00    +0.036 C 
ATOM     12  C   UNL     1      -2.743 -10.700  11.951  0.00  0.00    +0.087 C 
ATOM     13  C   UNL     1      -4.045 -11.753  16.527  0.00  0.00    +0.074 C 
ATOM     14  C   UNL     1      -5.667 -10.573  14.060  0.00  0.00    +0.232 C 
ATOM     15  C   UNL     1      -5.386 -12.209  15.922  0.00  0.00    +0.123 C 
ATOM     18  C   UNL     1      -1.874 -10.707  16.204  0.00  0.00    +0.105 C 
ATOM     36  H   UNL     1      -6.869 -10.694  15.736  0.00  0.00    +0.149 HD
ENDROOT
BRANCH   3  16
ATOM     16  C   UNL     1      -4.902 -11.228  10.996  0.00  0.00    +0.159 C 
BRANCH  16  19
ATOM      6  N   UNL     1      -5.684  -9.260   9.647  0.00  0.00    -0.330 N 
ATOM      7  N   UNL     1      -7.256 -10.400  10.729  0.00  0.00    -0.231 NA
ATOM     19  C   UNL     1      -5.969 -10.311  10.472  0.00  0.00    +0.125 A 
ATOM     22  C   UNL     1      -6.865  -8.628   9.350  0.00  0.00    +0.069 A 
ATOM     23  C   UNL     1      -7.831  -9.359  10.037  0.00  0.00    +0.089 A 
ATOM     24  C   UNL     1      -4.375  -8.879   9.168  0.00  0.00    +0.150 C 
ATOM     25  C   UNL     1      -7.162  -7.515   8.564  0.00  0.00    +0.028 A 
ATOM     26  C   UNL     1      -9.177  -8.969   9.946  0.00  0.00    +0.030 A 
ATOM     28  C   UNL     1      -8.508  -7.141   8.484  0.00  0.00    +0.002 A 
ATOM     29  C   UNL     1      -9.499  -7.855   9.163  0.00  0.00    +0.002 A 
ENDBRANCH  16  19
ENDBRANCH   3  16
BRANCH  13  17
ATOM     17  C   UNL     1      -4.355 -11.050  17.866  0.00  0.00    +0.029 C 
BRANCH  17  20
ATOM     20  C   UNL     1      -4.801 -12.058  18.910  0.00  0.00    +0.097 C 
BRANCH  20  21
ATOM      2  O   UNL     1      -6.094 -11.025  20.678  0.00  0.00    -0.276 OA
ATOM      8  N   UNL     1      -7.203 -11.971  18.871  0.00  0.00    -0.311 N 
ATOM     21  C   UNL     1      -6.079 -11.619  19.602  0.00  0.00    +0.213 C 
ATOM     37  H   UNL     1      -7.084 -12.462  17.989  0.00  0.00    +0.149 HD
BRANCH   8  27
ATOM     27  C   UNL     1      -8.541 -11.664  19.319  0.00  0.00    +0.139 C 
BRANCH  27  30
ATOM     30  C   UNL     1      -9.127 -10.495  18.581  0.00  0.00    -0.030 A 
ATOM     31  C   UNL     1     -10.462 -10.143  18.780  0.00  0.00    +0.005 A 
ATOM     32  C   UNL     1      -8.336  -9.762  17.695  0.00  0.00    +0.005 A 
ATOM     33  C   UNL     1     -11.006  -9.056  18.094  0.00  0.00    +0.000 A 
ATOM     34  C   UNL     1      -8.882  -8.677  17.009  0.00  0.00    +0.000 A 
ATOM     35  C   UNL     1     -10.216  -8.324  17.208  0.00  0.00    +0.000 A 
ENDBRANCH  27  30
ENDBRANCH   8  27
ENDBRANCH  20  21
ENDBRANCH  17  20
ENDBRANCH  13  17
TORSDOF 7
ENDMDL
MODEL 4
REMARK VINA RESULT:      -7.1      4.742      7.577
REMARK  Name = 45360967
REMARK  9 active torsions:
REMARK  status: ('A' for Active; 'I' for Inactive)
REMARK    1  A    between atoms: N_3  and  C_16
REMARK    2  A    between atoms: N_4  and  C_18
REMARK    3  A    between atoms: N_6  and  C_24
REMARK    4  A    between atoms: N_8  and  C_27
REMARK    5  A    between atoms: C_13  and  C_17
REMARK    6  A    between atoms: C_16  and  C_19
REMARK    7  A    between atoms: C_17  and  C_20
REMARK    8  A    between atoms: C_20  and  C_21
REMARK    9  A    between atoms: C_27  and  C_30
REMARK                            x       y       z     vdW  Elec       q    Type
REMARK                         _______ _______ _______ _____ _____    ______ ____
ROOT
ATOM      1  O   UNL     1      -6.108 -10.060   7.013  0.00  0.00    -0.274 OA
ATOM      3  N   UNL     1      -8.050  -8.683   8.289  0.00  0.00    -0.283 NA
ATOM      4  N   UNL     1      -5.786  -9.953  10.869  0.00  0.00    -0.296 NA
ATOM      5  N   UNL     1      -4.424  -9.363   8.395  0.00  0.00    -0.312 N 
ATOM      9  C   UNL     1      -6.792  -9.006  10.340  0.00  0.00    +0.084 C 
ATOM     10  C   UNL     1      -6.690  -8.572   8.848  0.00  0.00    +0.161 C 
ATOM     11  C   UNL     1      -8.241  -9.521  10.425  0.00  0.00    +0.036 C 
ATOM     12  C   UNL     1      -8.978  -8.668   9.414  0.00  0.00    +0.087 C 
ATOM     13  C   UNL     1      -4.391  -9.433  10.871  0.00  0.00    +0.074 C 
ATOM     14  C   UNL     1      -5.746  -9.414   7.994  0.00  0.00    +0.232 C 
ATOM     15  C   UNL     1      -3.978  -8.678   9.592  0.00  0.00    +0.123 C 
ATOM     18  C   UNL     1      -6.160 -10.416  12.216  0.00  0.00    +0.105 C 
ATOM     36  H   UNL     1      -3.740  -9.884   7.855  0.00  0.00    +0.149 HD
ENDROOT
BRANCH   3  16
ATOM     16  C   UNL     1      -8.358  -7.651   7.309  0.00  0.00    +0.159 C 
BRANCH  16  19
ATOM      6  N   UNL     1     -10.742  -6.929   7.629  0.00  0.00    -0.330 N 
ATOM      7  N   UNL     1      -9.183  -5.572   8.446  0.00  0.00    -0.231 NA
ATOM     19  C   UNL     1      -9.407  -6.698   7.806  0.00  0.00    +0.125 A 
ATOM     22  C   UNL     1     -11.426  -5.883   8.193  0.00  0.00    +0.069 A 
ATOM     23  C   UNL     1     -10.431  -5.049   8.696  0.00  0.00    +0.089 A 
ATOM     24  C   UNL     1     -11.332  -8.071   6.968  0.00  0.00    +0.150 C 
ATOM     25  C   UNL     1     -12.788  -5.602   8.303  0.00  0.00    +0.028 A 
ATOM     26  C   UNL     1     -10.798  -3.861   9.350  0.00  0.00    +0.030 A 
ATOM     28  C   UNL     1     -13.136  -4.416   8.957  0.00  0.00    +0.002 A 
ATOM     29  C   UNL     1     -12.160  -3.559   9.472  0.00  0.00    +0.002 A 
ENDBRANCH  16  19
ENDBRANCH   3  16
BRANCH  13  17
ATOM     17  C   UNL     1      -3.385 -10.586  11.075  0.00  0.00    +0.029 C 
BRANCH  17  20
ATOM     20  C   UNL     1      -2.235 -10.144  11.961  0.00  0.00    +0.097 C 
BRANCH  20  21
ATOM      2  O   UNL     1      -1.659 -12.180  13.139  0.00  0.00    -0.276 OA
ATOM      8  N   UNL     1      -2.524 -10.388  14.336  0.00  0.00    -0.311 N 
ATOM     21  C   UNL     1      -2.098 -11.033  13.184  0.00  0.00    +0.213 C 
ATOM     37  H   UNL     1      -2.871  -9.435  14.267  0.00  0.00    +0.149 HD
BRANCH   8  27
ATOM     27  C   UNL     1      -2.494 -11.025  15.631  0.00  0.00    +0.139 C 
BRANCH  27  30
ATOM     30  C   UNL     1      -3.790 -10.858  16.370  0.00  0.00    -0.030 A 
ATOM     31  C   UNL     1      -3.933 -11.381  17.655  0.00  0.00    +0.005 A 
ATOM     32  C   UNL     1      -4.852 -10.179  15.771  0.00  0.00    +0.005 A 
ATOM     33  C   UNL     1      -5.138 -11.226  18.341  0.00  0.00    +0.000 A 
ATOM     34  C   UNL     1      -6.056 -10.026  16.457  0.00  0.00    +0.000 A 
ATOM     35  C   UNL     1      -6.200 -10.549  17.742  0.00  0.00    +0.000 A 
ENDBRANCH  27  30
ENDBRANCH   8  27
ENDBRANCH  20  21
ENDBRANCH  17  20
ENDBRANCH  13  17
TORSDOF 7
ENDMDL
MODEL 5
REMARK VINA RESULT:      -6.9      1.476      2.270
REMARK  Name = 45360967
REMARK  9 active torsions:
REMARK  status: ('A' for Active; 'I' for Inactive)
REMARK    1  A    between atoms: N_3  and  C_16
REMARK    2  A    between atoms: N_4  and  C_18
REMARK    3  A    between atoms: N_6  and  C_24
REMARK    4  A    between atoms: N_8  and  C_27
REMARK    5  A    between atoms: C_13  and  C_17
REMARK    6  A    between atoms: C_16  and  C_19
REMARK    7  A    between atoms: C_17  and  C_20
REMARK    8  A    between atoms: C_20  and  C_21
REMARK    9  A    between atoms: C_27  and  C_30
REMARK                            x       y       z     vdW  Elec       q    Type
REMARK                         _______ _______ _______ _____ _____    ______ ____
ROOT
ATOM      1  O   UNL     1      -8.695 -10.643  15.415  0.00  0.00    -0.274 OA
ATOM      3  N   UNL     1      -9.238 -10.357  18.046  0.00  0.00    -0.283 NA
ATOM      4  N   UNL     1      -5.767 -11.492  17.801  0.00  0.00    -0.296 NA
ATOM      5  N   UNL     1      -6.555  -9.850  15.563  0.00  0.00    -0.312 N 
ATOM      9  C   UNL     1      -6.892 -10.808  18.476  0.00  0.00    +0.084 C 
ATOM     10  C   UNL     1      -7.882  -9.975  17.610  0.00  0.00    +0.161 C 
ATOM     11  C   UNL     1      -7.843 -11.760  19.225  0.00  0.00    +0.036 C 
ATOM     12  C   UNL     1      -9.110 -10.944  19.375  0.00  0.00    +0.087 C 
ATOM     13  C   UNL     1      -4.793 -10.576  17.146  0.00  0.00    +0.074 C 
ATOM     14  C   UNL     1      -7.775 -10.208  16.105  0.00  0.00    +0.232 C 
ATOM     15  C   UNL     1      -5.425  -9.412  16.358  0.00  0.00    +0.123 C 
ATOM     18  C   UNL     1      -5.071 -12.398  18.731  0.00  0.00    +0.105 C 
ATOM     36  H   UNL     1      -6.425  -9.959  14.562  0.00  0.00    +0.149 HD
ENDROOT
BRANCH   3  16
ATOM     16  C   UNL     1     -10.185  -9.251  18.023  0.00  0.00    +0.159 C 
BRANCH  16  19
ATOM      6  N   UNL     1     -11.196  -8.466  15.862  0.00  0.00    -0.330 N 
ATOM      7  N   UNL     1     -12.063 -10.314  16.742  0.00  0.00    -0.231 NA
ATOM     19  C   UNL     1     -11.160  -9.369  16.887  0.00  0.00    +0.125 A 
ATOM     22  C   UNL     1     -12.187  -8.853  14.997  0.00  0.00    +0.069 A 
ATOM     23  C   UNL     1     -12.713 -10.009  15.568  0.00  0.00    +0.089 A 
ATOM     24  C   UNL     1     -10.343  -7.308  15.712  0.00  0.00    +0.150 C 
ATOM     25  C   UNL     1     -12.654  -8.309  13.801  0.00  0.00    +0.028 A 
ATOM     26  C   UNL     1     -13.768 -10.674  14.921  0.00  0.00    +0.030 A 
ATOM     28  C   UNL     1     -13.705  -8.984  13.169  0.00  0.00    +0.002 A 
ATOM     29  C   UNL     1     -14.253 -10.145  13.719  0.00  0.00    +0.002 A 
ENDBRANCH  16  19
ENDBRANCH   3  16
BRANCH  13  17
ATOM     17  C   UNL     1      -3.888 -11.359  16.170  0.00  0.00    +0.029 C 
BRANCH  17  20
ATOM     20  C   UNL     1      -2.448 -10.893  16.283  0.00  0.00    +0.097 C 
BRANCH  20  21
ATOM      2  O   UNL     1      -1.042  -9.589  14.804  0.00  0.00    -0.276 OA
ATOM      8  N   UNL     1      -2.458 -11.188  13.896  0.00  0.00    -0.311 N 
ATOM     21  C   UNL     1      -1.891 -10.467  14.936  0.00  0.00    +0.213 C 
ATOM     37  H   UNL     1      -3.156 -11.897  14.111  0.00  0.00    +0.149 HD
BRANCH   8  27
ATOM     27  C   UNL     1      -2.093 -10.969  12.517  0.00  0.00    +0.139 C 
BRANCH  27  30
ATOM     30  C   UNL     1      -3.161 -10.229  11.764  0.00  0.00    -0.030 A 
ATOM     31  C   UNL     1      -2.856  -9.602  10.556  0.00  0.00    +0.005 A 
ATOM     32  C   UNL     1      -4.459 -10.169  12.273  0.00  0.00    +0.005 A 
ATOM     33  C   UNL     1      -3.849  -8.915   9.856  0.00  0.00    +0.000 A 
ATOM     34  C   UNL     1      -5.451  -9.481  11.573  0.00  0.00    +0.000 A 
ATOM     35  C   UNL     1      -5.146  -8.854  10.365  0.00  0.00    +0.000 A 
ENDBRANCH  27  30
ENDBRANCH   8  27
ENDBRANCH  20  21
ENDBRANCH  17  20
ENDBRANCH  13  17
TORSDOF 7
ENDMDL
MODEL 6
REMARK VINA RESULT:      -6.9     24.925     28.298
REMARK  Name = 45360967
REMARK  9 active torsions:
REMARK  status: ('A' for Active; 'I' for Inactive)
REMARK    1  A    between atoms: N_3  and  C_16
REMARK    2  A    between atoms: N_4  and  C_18
REMARK    3  A    between atoms: N_6  and  C_24
REMARK    4  A    between atoms: N_8  and  C_27
REMARK    5  A    between atoms: C_13  and  C_17
REMARK    6  A    between atoms: C_16  and  C_19
REMARK    7  A    between atoms: C_17  and  C_20
REMARK    8  A    between atoms: C_20  and  C_21
REMARK    9  A    between atoms: C_27  and  C_30
REMARK                            x       y       z     vdW  Elec       q    Type
REMARK                         _______ _______ _______ _____ _____    ______ ____
ROOT
ATOM      1  O   UNL     1       9.459   4.569   0.927  0.00  0.00    -0.274 OA
ATOM      3  N   UNL     1      12.131   4.833   1.216  0.00  0.00    -0.283 NA
ATOM      4  N   UNL     1      11.577   3.131  -1.976  0.00  0.00    -0.296 NA
ATOM      5  N   UNL     1       9.457   4.976  -1.324  0.00  0.00    -0.312 N 
ATOM      9  C   UNL     1      12.359   3.968  -1.041  0.00  0.00    +0.084 C 
ATOM     10  C   UNL     1      11.599   4.994  -0.150  0.00  0.00    +0.161 C 
ATOM     11  C   UNL     1      13.154   3.163   0.004  0.00  0.00    +0.036 C 
ATOM     12  C   UNL     1      13.429   4.177   1.095  0.00  0.00    +0.087 C 
ATOM     13  C   UNL     1      10.873   3.892  -3.044  0.00  0.00    +0.074 C 
ATOM     14  C   UNL     1      10.085   4.810  -0.103  0.00  0.00    +0.232 C 
ATOM     15  C   UNL     1      10.172   5.180  -2.569  0.00  0.00    +0.123 C 
ATOM     18  C   UNL     1      12.421   2.080  -2.571  0.00  0.00    +0.105 C 
ATOM     36  H   UNL     1       8.446   4.889  -1.358  0.00  0.00    +0.149 HD
ENDROOT
BRANCH   3  16
ATOM     16  C   UNL     1      12.216   6.085   1.955  0.00  0.00    +0.159 C 
BRANCH  16  19
ATOM      6  N   UNL     1      12.135   6.729   4.380  0.00  0.00    -0.330 N 
ATOM      7  N   UNL     1      10.756   5.105   3.745  0.00  0.00    -0.231 NA
ATOM     19  C   UNL     1      11.683   5.951   3.352  0.00  0.00    +0.125 A 
ATOM     22  C   UNL     1      11.454   6.363   5.513  0.00  0.00    +0.069 A 
ATOM     23  C   UNL     1      10.599   5.348   5.090  0.00  0.00    +0.089 A 
ATOM     24  C   UNL     1      13.147   7.757   4.295  0.00  0.00    +0.150 C 
ATOM     25  C   UNL     1      11.509   6.817   6.830  0.00  0.00    +0.028 A 
ATOM     26  C   UNL     1       9.744   4.739   6.024  0.00  0.00    +0.030 A 
ATOM     28  C   UNL     1      10.650   6.201   7.747  0.00  0.00    +0.002 A 
ATOM     29  C   UNL     1       9.783   5.180   7.352  0.00  0.00    +0.002 A 
ENDBRANCH  16  19
ENDBRANCH   3  16
BRANCH  13  17
ATOM     17  C   UNL     1       9.806   3.008  -3.724  0.00  0.00    +0.029 C 
BRANCH  17  20
ATOM     20  C   UNL     1      10.030   2.954  -5.224  0.00  0.00    +0.097 C 
BRANCH  20  21
ATOM      2  O   UNL     1       9.788   4.667  -6.918  0.00  0.00    -0.276 OA
ATOM      8  N   UNL     1       8.105   4.389  -5.344  0.00  0.00    -0.311 N 
ATOM     21  C   UNL     1       9.323   4.092  -5.937  0.00  0.00    +0.213 C 
ATOM     37  H   UNL     1       7.808   3.853  -4.532  0.00  0.00    +0.149 HD
BRANCH   8  27
ATOM     27  C   UNL     1       7.242   5.436  -5.838  0.00  0.00    +0.139 C 
BRANCH  27  30
ATOM     30  C   UNL     1       6.368   6.002  -4.756  0.00  0.00    -0.030 A 
ATOM     31  C   UNL     1       4.995   5.759  -4.770  0.00  0.00    +0.005 A 
ATOM     32  C   UNL     1       6.931   6.769  -3.736  0.00  0.00    +0.005 A 
ATOM     33  C   UNL     1       4.184   6.285  -3.764  0.00  0.00    +0.000 A 
ATOM     34  C   UNL     1       6.119   7.295  -2.731  0.00  0.00    +0.000 A 
ATOM     35  C   UNL     1       4.746   7.054  -2.745  0.00  0.00    +0.000 A 
ENDBRANCH  27  30
ENDBRANCH   8  27
ENDBRANCH  20  21
ENDBRANCH  17  20
ENDBRANCH  13  17
TORSDOF 7
ENDMDL
MODEL 7
REMARK VINA RESULT:      -6.9     26.084     31.337
REMARK  Name = 45360967
REMARK  9 active torsions:
REMARK  status: ('A' for Active; 'I' for Inactive)
REMARK    1  A    between atoms: N_3  and  C_16
REMARK    2  A    between atoms: N_4  and  C_18
REMARK    3  A    between atoms: N_6  and  C_24
REMARK    4  A    between atoms: N_8  and  C_27
REMARK    5  A    between atoms: C_13  and  C_17
REMARK    6  A    between atoms: C_16  and  C_19
REMARK    7  A    between atoms: C_17  and  C_20
REMARK    8  A    between atoms: C_20  and  C_21
REMARK    9  A    between atoms: C_27  and  C_30
REMARK                            x       y       z     vdW  Elec       q    Type
REMARK                         _______ _______ _______ _____ _____    ______ ____
ROOT
ATOM      1  O   UNL     1      15.688   7.045   4.340  0.00  0.00    -0.274 OA
ATOM      3  N   UNL     1      16.669   9.256   5.541  0.00  0.00    -0.283 NA
ATOM      4  N   UNL     1      13.032   9.364   5.936  0.00  0.00    -0.296 NA
ATOM      5  N   UNL     1      14.061   6.669   5.904  0.00  0.00    -0.312 N 
ATOM      9  C   UNL     1      14.417   9.704   6.330  0.00  0.00    +0.084 C 
ATOM     10  C   UNL     1      15.516   8.609   6.196  0.00  0.00    +0.161 C 
ATOM     11  C   UNL     1      15.027  10.870   5.529  0.00  0.00    +0.036 C 
ATOM     12  C   UNL     1      16.517  10.694   5.731  0.00  0.00    +0.087 C 
ATOM     13  C   UNL     1      12.402   8.297   6.760  0.00  0.00    +0.074 C 
ATOM     14  C   UNL     1      15.114   7.390   5.371  0.00  0.00    +0.232 C 
ATOM     15  C   UNL     1      13.313   7.093   7.071  0.00  0.00    +0.123 C 
ATOM     18  C   UNL     1      12.182  10.568   5.922  0.00  0.00    +0.105 C 
ATOM     36  H   UNL     1      13.758   5.832   5.415  0.00  0.00    +0.149 HD
ENDROOT
BRANCH   3  16
ATOM     16  C   UNL     1      17.955   8.771   6.024  0.00  0.00    +0.159 C 
BRANCH  16  19
ATOM      6  N   UNL     1      20.138   7.927   5.117  0.00  0.00    -0.330 N 
ATOM      7  N   UNL     1      18.585   8.453   3.617  0.00  0.00    -0.231 NA
ATOM     19  C   UNL     1      18.872   8.390   4.898  0.00  0.00    +0.125 A 
ATOM     22  C   UNL     1      20.708   7.672   3.895  0.00  0.00    +0.069 A 
ATOM     23  C   UNL     1      19.718   8.008   2.975  0.00  0.00    +0.089 A 
ATOM     24  C   UNL     1      20.770   7.736   6.403  0.00  0.00    +0.150 C 
ATOM     25  C   UNL     1      21.964   7.191   3.527  0.00  0.00    +0.028 A 
ATOM     26  C   UNL     1      19.981   7.863   1.603  0.00  0.00    +0.030 A 
ATOM     28  C   UNL     1      22.209   7.052   2.156  0.00  0.00    +0.002 A 
ATOM     29  C   UNL     1      21.235   7.382   1.210  0.00  0.00    +0.002 A 
ENDBRANCH  16  19
ENDBRANCH   3  16
BRANCH  13  17
ATOM     17  C   UNL     1      11.136   7.753   6.063  0.00  0.00    +0.029 C 
BRANCH  17  20
ATOM     20  C   UNL     1      10.695   6.446   6.695  0.00  0.00    +0.097 C 
BRANCH  20  21
ATOM      2  O   UNL     1       9.625   4.434   5.875  0.00  0.00    -0.276 OA
ATOM      8  N   UNL     1      10.905   5.708   4.416  0.00  0.00    -0.311 N 
ATOM     21  C   UNL     1      10.335   5.410   5.645  0.00  0.00    +0.213 C 
ATOM     37  H   UNL     1      11.479   6.542   4.328  0.00  0.00    +0.149 HD
BRANCH   8  27
ATOM     27  C   UNL     1      10.712   4.873   3.255  0.00  0.00    +0.139 C 
BRANCH  27  30
ATOM     30  C   UNL     1      11.986   4.677   2.484  0.00  0.00    -0.030 A 
ATOM     31  C   UNL     1      12.266   3.442   1.903  0.00  0.00    +0.005 A 
ATOM     32  C   UNL     1      12.888   5.733   2.350  0.00  0.00    +0.005 A 
ATOM     33  C   UNL     1      13.450   3.261   1.186  0.00  0.00    +0.000 A 
ATOM     34  C   UNL     1      14.071   5.551   1.634  0.00  0.00    +0.000 A 
ATOM     35  C   UNL     1      14.353   4.315   1.053  0.00  0.00    +0.000 A 
ENDBRANCH  27  30
ENDBRANCH   8  27
ENDBRANCH  20  21
ENDBRANCH  17  20
ENDBRANCH  13  17
TORSDOF 7
ENDMDL
MODEL 8
REMARK VINA RESULT:      -6.9      4.457      8.380
REMARK  Name = 45360967
REMARK  9 active torsions:
REMARK  status: ('A' for Active; 'I' for Inactive)
REMARK    1  A    between atoms: N_3  and  C_16
REMARK    2  A    between atoms: N_4  and  C_18
REMARK    3  A    between atoms: N_6  and  C_24
REMARK    4  A    between atoms: N_8  and  C_27
REMARK    5  A    between atoms: C_13  and  C_17
REMARK    6  A    between atoms: C_16  and  C_19
REMARK    7  A    between atoms: C_17  and  C_20
REMARK    8  A    between atoms: C_20  and  C_21
REMARK    9  A    between atoms: C_27  and  C_30
REMARK                            x       y       z     vdW  Elec       q    Type
REMARK                         _______ _______ _______ _____ _____    ______ ____
ROOT
ATOM      1  O   UNL     1      -6.359 -10.304  11.475  0.00  0.00    -0.274 OA
ATOM      3  N   UNL     1      -3.975 -11.437  12.049  0.00  0.00    -0.283 NA
ATOM      4  N   UNL     1      -4.803 -12.400   8.617  0.00  0.00    -0.296 NA
ATOM      5  N   UNL     1      -5.824  -9.793   9.311  0.00  0.00    -0.312 N 
ATOM      9  C   UNL     1      -3.861 -12.136   9.727  0.00  0.00    +0.084 C 
ATOM     10  C   UNL     1      -4.149 -10.934  10.673  0.00  0.00    +0.161 C 
ATOM     11  C   UNL     1      -3.727 -13.303  10.724  0.00  0.00    +0.036 C 
ATOM     12  C   UNL     1      -3.160 -12.644  11.963  0.00  0.00    +0.087 C 
ATOM     13  C   UNL     1      -4.877 -11.315   7.601  0.00  0.00    +0.074 C 
ATOM     14  C   UNL     1      -5.548 -10.337  10.551  0.00  0.00    +0.232 C 
ATOM     15  C   UNL     1      -4.923  -9.887   8.179  0.00  0.00    +0.123 C 
ATOM     18  C   UNL     1      -4.499 -13.687   7.968  0.00  0.00    +0.105 C 
ATOM     36  H   UNL     1      -6.731  -9.359   9.169  0.00  0.00    +0.149 HD
ENDROOT
BRANCH   3  16
ATOM     16  C   UNL     1      -3.402 -10.451  12.957  0.00  0.00    +0.159 C 
BRANCH  16  19
ATOM      6  N   UNL     1      -3.234 -11.015  15.397  0.00  0.00    -0.330 N 
ATOM      7  N   UNL     1      -5.201 -10.255  14.695  0.00  0.00    -0.231 NA
ATOM     19  C   UNL     1      -3.973 -10.563  14.341  0.00  0.00    +0.125 A 
ATOM     22  C   UNL     1      -4.037 -10.996  16.509  0.00  0.00    +0.069 A 
ATOM     23  C   UNL     1      -5.259 -10.518  16.044  0.00  0.00    +0.089 A 
ATOM     24  C   UNL     1      -1.852 -11.437  15.357  0.00  0.00    +0.150 C 
ATOM     25  C   UNL     1      -3.808 -11.346  17.839  0.00  0.00    +0.028 A 
ATOM     26  C   UNL     1      -6.326 -10.374  16.947  0.00  0.00    +0.030 A 
ATOM     28  C   UNL     1      -4.880 -11.196  18.725  0.00  0.00    +0.002 A 
ATOM     29  C   UNL     1      -6.119 -10.719  18.288  0.00  0.00    +0.002 A 
ENDBRANCH  16  19
ENDBRANCH   3  16
BRANCH  13  17
ATOM     17  C   UNL     1      -6.124 -11.495   6.709  0.00  0.00    +0.029 C 
BRANCH  17  20
ATOM     20  C   UNL     1      -6.010 -10.652   5.452  0.00  0.00    +0.097 C 
BRANCH  20  21
ATOM      2  O   UNL     1      -8.340 -10.632   4.792  0.00  0.00    -0.276 OA
ATOM      8  N   UNL     1      -7.252  -8.615   5.155  0.00  0.00    -0.311 N 
ATOM     21  C   UNL     1      -7.332  -9.998   5.095  0.00  0.00    +0.213 C 
ATOM     37  H   UNL     1      -6.369  -8.183   5.417  0.00  0.00    +0.149 HD
BRANCH   8  27
ATOM     27  C   UNL     1      -8.379  -7.763   4.859  0.00  0.00    +0.139 C 
BRANCH  27  30
ATOM     30  C   UNL     1      -8.978  -7.170   6.101  0.00  0.00    -0.030 A 
ATOM     31  C   UNL     1     -10.352  -6.944   6.173  0.00  0.00    +0.005 A 
ATOM     32  C   UNL     1      -8.160  -6.847   7.184  0.00  0.00    +0.005 A 
ATOM     33  C   UNL     1     -10.909  -6.394   7.328  0.00  0.00    +0.000 A 
ATOM     34  C   UNL     1      -8.717  -6.296   8.338  0.00  0.00    +0.000 A 
ATOM     35  C   UNL     1     -10.091  -6.069   8.411  0.00  0.00    +0.000 A 
ENDBRANCH  27  30
ENDBRANCH   8  27
ENDBRANCH  20  21
ENDBRANCH  17  20
ENDBRANCH  13  17
TORSDOF 7
ENDMDL
MODEL 9
REMARK VINA RESULT:      -6.8      3.997      7.715
REMARK  Name = 45360967
REMARK  9 active torsions:
REMARK  status: ('A' for Active; 'I' for Inactive)
REMARK    1  A    between atoms: N_3  and  C_16
REMARK    2  A    between atoms: N_4  and  C_18
REMARK    3  A    between atoms: N_6  and  C_24
REMARK    4  A    between atoms: N_8  and  C_27
REMARK    5  A    between atoms: C_13  and  C_17
REMARK    6  A    between atoms: C_16  and  C_19
REMARK    7  A    between atoms: C_17  and  C_20
REMARK    8  A    between atoms: C_20  and  C_21
REMARK    9  A    between atoms: C_27  and  C_30
REMARK                            x       y       z     vdW  Elec       q    Type
REMARK                         _______ _______ _______ _____ _____    ______ ____
ROOT
ATOM      1  O   UNL     1      -6.273  -8.778  12.132  0.00  0.00    -0.274 OA
ATOM      3  N   UNL     1      -4.887 -10.960  12.913  0.00  0.00    -0.283 NA
ATOM      4  N   UNL     1      -5.439 -11.294   9.311  0.00  0.00    -0.296 NA
ATOM      5  N   UNL     1      -5.174  -8.543  10.139  0.00  0.00    -0.312 N 
ATOM      9  C   UNL     1      -4.707 -11.562  10.569  0.00  0.00    +0.084 C 
ATOM     10  C   UNL     1      -4.542 -10.401  11.593  0.00  0.00    +0.161 C 
ATOM     11  C   UNL     1      -5.339 -12.667  11.436  0.00  0.00    +0.036 C 
ATOM     12  C   UNL     1      -4.760 -12.409  12.811  0.00  0.00    +0.087 C 
ATOM     13  C   UNL     1      -4.791 -10.289   8.424  0.00  0.00    +0.074 C 
ATOM     14  C   UNL     1      -5.428  -9.185  11.337  0.00  0.00    +0.232 C 
ATOM     15  C   UNL     1      -4.243  -9.043   9.146  0.00  0.00    +0.123 C 
ATOM     18  C   UNL     1      -5.685 -12.544   8.572  0.00  0.00    +0.105 C 
ATOM     36  H   UNL     1      -5.714  -7.712   9.918  0.00  0.00    +0.149 HD
ENDROOT
BRANCH   3  16
ATOM     16  C   UNL     1      -4.084 -10.414  14.000  0.00  0.00    +0.159 C 
BRANCH  16  19
ATOM      6  N   UNL     1      -4.146 -10.829  16.475  0.00  0.00    -0.330 N 
ATOM      7  N   UNL     1      -6.073 -10.266  15.521  0.00  0.00    -0.231 NA
ATOM     19  C   UNL     1      -4.794 -10.495  15.320  0.00  0.00    +0.125 A 
ATOM     22  C   UNL     1      -5.066 -10.814  17.491  0.00  0.00    +0.069 A 
ATOM     23  C   UNL     1      -6.261 -10.459  16.871  0.00  0.00    +0.089 A 
ATOM     24  C   UNL     1      -2.741 -11.141  16.608  0.00  0.00    +0.150 C 
ATOM     25  C   UNL     1      -4.960 -11.071  18.858  0.00  0.00    +0.028 A 
ATOM     26  C   UNL     1      -7.429 -10.352  17.644  0.00  0.00    +0.030 A 
ATOM     28  C   UNL     1      -6.132 -10.958  19.614  0.00  0.00    +0.002 A 
ATOM     29  C   UNL     1      -7.346 -10.606  19.019  0.00  0.00    +0.002 A 
ENDBRANCH  16  19
ENDBRANCH   3  16
BRANCH  13  17
ATOM     17  C   UNL     1      -5.783  -9.802   7.346  0.00  0.00    +0.029 C 
BRANCH  17  20
ATOM     20  C   UNL     1      -7.128  -9.469   7.966  0.00  0.00    +0.097 C 
BRANCH  20  21
ATOM      2  O   UNL     1      -8.051  -8.190   6.129  0.00  0.00    -0.276 OA
ATOM      8  N   UNL     1      -7.945  -7.224   8.236  0.00  0.00    -0.311 N 
ATOM     21  C   UNL     1      -7.755  -8.247   7.320  0.00  0.00    +0.213 C 
ATOM     37  H   UNL     1      -7.666  -7.370   9.203  0.00  0.00    +0.149 HD
BRANCH   8  27
ATOM     27  C   UNL     1      -8.527  -5.955   7.866  0.00  0.00    +0.139 C 
BRANCH  27  30
ATOM     30  C   UNL     1      -9.760  -5.647   8.666  0.00  0.00    -0.030 A 
ATOM     31  C   UNL     1     -10.116  -4.323   8.916  0.00  0.00    +0.005 A 
ATOM     32  C   UNL     1     -10.551  -6.687   9.156  0.00  0.00    +0.005 A 
ATOM     33  C   UNL     1     -11.262  -4.037   9.658  0.00  0.00    +0.000 A 
ATOM     34  C   UNL     1     -11.696  -6.401   9.899  0.00  0.00    +0.000 A 
ATOM     35  C   UNL     1     -12.052  -5.076  10.150  0.00  0.00    +0.000 A 
ENDBRANCH  27  30
ENDBRANCH   8  27
ENDBRANCH  20  21
ENDBRANCH  17  20
ENDBRANCH  13  17
TORSDOF 7
ENDMDL
MODEL 10
REMARK VINA RESULT:      -6.7      3.367      5.718
REMARK  Name = 45360967
REMARK  9 active torsions:
REMARK  status: ('A' for Active; 'I' for Inactive)
REMARK    1  A    between atoms: N_3  and  C_16
REMARK    2  A    between atoms: N_4  and  C_18
REMARK    3  A    between atoms: N_6  and  C_24
REMARK    4  A    between atoms: N_8  and  C_27
REMARK    5  A    between atoms: C_13  and  C_17
REMARK    6  A    between atoms: C_16  and  C_19
REMARK    7  A    between atoms: C_17  and  C_20
REMARK    8  A    between atoms: C_20  and  C_21
REMARK    9  A    between atoms: C_27  and  C_30
REMARK                            x       y       z     vdW  Elec       q    Type
REMARK                         _______ _______ _______ _____ _____    ______ ____
ROOT
ATOM      1  O   UNL     1     -10.489  -5.954  15.489  0.00  0.00    -0.274 OA
ATOM      3  N   UNL     1     -11.954  -7.722  14.066  0.00  0.00    -0.283 NA
ATOM      4  N   UNL     1      -8.978  -9.508  15.225  0.00  0.00    -0.296 NA
ATOM      5  N   UNL     1      -9.832  -7.466  17.075  0.00  0.00    -0.312 N 
ATOM      9  C   UNL     1     -10.382  -9.434  14.764  0.00  0.00    +0.084 C 
ATOM     10  C   UNL     1     -11.263  -8.250  15.258  0.00  0.00    +0.161 C 
ATOM     11  C   UNL     1     -10.533  -9.330  13.235  0.00  0.00    +0.036 C 
ATOM     12  C   UNL     1     -11.929  -8.773  13.056  0.00  0.00    +0.087 C 
ATOM     13  C   UNL     1      -8.821  -9.695  16.694  0.00  0.00    +0.074 C 
ATOM     14  C   UNL     1     -10.497  -7.107  15.918  0.00  0.00    +0.232 C 
ATOM     15  C   UNL     1      -9.755  -8.830  17.562  0.00  0.00    +0.123 C 
ATOM     18  C   UNL     1      -8.242 -10.555  14.495  0.00  0.00    +0.105 C 
ATOM     36  H   UNL     1      -9.321  -6.746  17.577  0.00  0.00    +0.149 HD
ENDROOT
BRANCH   3  16
ATOM     16  C   UNL     1     -13.307  -7.257  14.342  0.00  0.00    +0.159 C 
BRANCH  16  19
ATOM      6  N   UNL     1     -14.877  -6.394  12.583  0.00  0.00    -0.330 N 
ATOM      7  N   UNL     1     -13.165  -5.077  13.108  0.00  0.00    -0.231 NA
ATOM     19  C   UNL     1     -13.760  -6.224  13.351  0.00  0.00    +0.125 A 
ATOM     22  C   UNL     1     -15.014  -5.283  11.791  0.00  0.00    +0.069 A 
ATOM     23  C   UNL     1     -13.933  -4.476  12.137  0.00  0.00    +0.089 A 
ATOM     24  C   UNL     1     -15.761  -7.538  12.599  0.00  0.00    +0.150 C 
ATOM     25  C   UNL     1     -15.960  -4.924  10.831  0.00  0.00    +0.028 A 
ATOM     26  C   UNL     1     -13.772  -3.235  11.498  0.00  0.00    +0.030 A 
ATOM     28  C   UNL     1     -15.785  -3.685  10.205  0.00  0.00    +0.002 A 
ATOM     29  C   UNL     1     -14.710  -2.855  10.531  0.00  0.00    +0.002 A 
ENDBRANCH  16  19
ENDBRANCH   3  16
BRANCH  13  17
ATOM     17  C   UNL     1      -7.371  -9.388  17.125  0.00  0.00    +0.029 C 
BRANCH  17  20
ATOM     20  C   UNL     1      -7.000 -10.182  18.364  0.00  0.00    +0.097 C 
BRANCH  20  21
ATOM      2  O   UNL     1      -4.843 -11.069  19.018  0.00  0.00    -0.276 OA
ATOM      8  N   UNL     1      -5.669 -11.552  16.903  0.00  0.00    -0.311 N 
ATOM     21  C   UNL     1      -5.718 -10.970  18.161  0.00  0.00    +0.213 C 
ATOM     37  H   UNL     1      -6.446 -11.410  16.263  0.00  0.00    +0.149 HD
BRANCH   8  27
ATOM     27  C   UNL     1      -4.549 -12.353  16.467  0.00  0.00    +0.139 C 
BRANCH  27  30
ATOM     30  C   UNL     1      -3.527 -11.537  15.730  0.00  0.00    -0.030 A 
ATOM     31  C   UNL     1      -2.427 -11.017  16.412  0.00  0.00    +0.005 A 
ATOM     32  C   UNL     1      -3.677 -11.300  14.363  0.00  0.00    +0.005 A 
ATOM     33  C   UNL     1      -1.477 -10.259  15.727  0.00  0.00    +0.000 A 
ATOM     34  C   UNL     1      -2.727 -10.542  13.679  0.00  0.00    +0.000 A 
ATOM     35  C   UNL     1      -1.627 -10.021  14.360  0.00  0.00    +0.000 A 
ENDBRANCH  27  30
ENDBRANCH   8  27
ENDBRANCH  20  21
ENDBRANCH  17  20
ENDBRANCH  13  17
TORSDOF 7
ENDMDL
