MODEL 1
REMARK VINA RESULT:      -5.5      0.000      0.000
REMARK  Name = 56774034
REMARK  12 active torsions:
REMARK  status: ('A' for Active; 'I' for Inactive)
REMARK    1  A    between atoms: N_3  and  C_9
REMARK    2  A    between atoms: N_5  and  C_18
REMARK    3  A    between atoms: N_6  and  C_19
REMARK    4  A    between atoms: N_6  and  C_22
REMARK    5  A    between atoms: N_6  and  C_23
REMARK    6  A    between atoms: C_7  and  C_12
REMARK    7  A    between atoms: C_7  and  C_13
REMARK    8  A    between atoms: C_8  and  C_11
REMARK    9  A    between atoms: C_11  and  C_14
REMARK   10  A    between atoms: C_17  and  C_19
REMARK   11  A    between atoms: C_18  and  C_20
REMARK   12  A    between atoms: C_18  and  C_21
REMARK                            x       y       z     vdW  Elec       q    Type
REMARK                         _______ _______ _______ _____ _____    ______ ____
ROOT
ATOM      7  C   UNL     1      -5.347 -11.087  16.303  0.00  0.00    -0.013 C 
ATOM      8  C   UNL     1      -5.032 -11.441  17.772  0.00  0.00    +0.004 C 
ATOM      9  C   UNL     1      -3.886 -11.462  15.980  0.00  0.00    +0.081 C 
ATOM     10  C   UNL     1      -3.555 -11.129  17.449  0.00  0.00    +0.027 C 
ATOM     12  C   UNL     1      -6.414 -11.963  15.686  0.00  0.00    +0.013 C 
ATOM     13  C   UNL     1      -5.651  -9.626  16.027  0.00  0.00    +0.013 C 
ENDROOT
BRANCH   9   3
ATOM      2  O   UNL     1      -3.232 -12.088  13.238  0.00  0.00    -0.253 OA
ATOM      3  N   UNL     1      -3.203 -10.592  15.008  0.00  0.00    -0.296 N 
ATOM      5  N   UNL     1      -2.281  -9.985  12.988  0.00  0.00    -0.297 N 
ATOM     15  C   UNL     1      -2.931 -10.988  13.700  0.00  0.00    +0.300 C 
ATOM     24  H   UNL     1      -2.901  -9.661  15.284  0.00  0.00    +0.151 HD
ATOM     25  H   UNL     1      -2.146  -9.083  13.437  0.00  0.00    +0.150 HD
BRANCH   5  18
ATOM     18  C   UNL     1      -1.885 -10.138  11.609  0.00  0.00    +0.068 C 
ATOM     20  C   UNL     1      -3.086  -9.965  10.687  0.00  0.00    +0.027 C 
ATOM     21  C   UNL     1      -0.777  -9.153  11.262  0.00  0.00    +0.027 C 
ENDBRANCH   5  18
ENDBRANCH   9   3
BRANCH   8  11
ATOM     11  C   UNL     1      -5.646 -10.566  18.841  0.00  0.00    +0.063 C 
BRANCH  11  14
ATOM      1  O   UNL     1      -8.626 -12.121  20.152  0.00  0.00    -0.358 OA
ATOM      4  N   UNL     1      -7.251 -11.923  20.128  0.00  0.00    -0.083 NA
ATOM     14  C   UNL     1      -7.048 -11.029  19.156  0.00  0.00    +0.084 A 
ATOM     16  C   UNL     1      -8.246 -10.632  18.537  0.00  0.00    +0.072 A 
ATOM     17  C   UNL     1      -9.208 -11.347  19.201  0.00  0.00    +0.151 A 
BRANCH  17  19
ATOM     19  C   UNL     1     -10.669 -11.434  19.088  0.00  0.00    +0.161 C 
BRANCH  19   6
ATOM      6  N   UNL     1     -11.362 -10.233  19.586  0.00  0.00    -0.301 NA
ATOM     22  C   UNL     1     -12.477 -10.619  20.443  0.00  0.00    +0.105 C 
ATOM     23  C   UNL     1     -11.825  -9.421  18.465  0.00  0.00    +0.105 C 
ENDBRANCH  19   6
ENDBRANCH  17  19
ENDBRANCH  11  14
ENDBRANCH   8  11
TORSDOF 6
ENDMDL
MODEL 2
REMARK VINA RESULT:      -5.4     27.957     31.074
REMARK  Name = 56774034
REMARK  12 active torsions:
REMARK  status: ('A' for Active; 'I' for Inactive)
REMARK    1  A    between atoms: N_3  and  C_9
REMARK    2  A    between atoms: N_5  and  C_18
REMARK    3  A    between atoms: N_6  and  C_19
REMARK    4  A    between atoms: N_6  and  C_22
REMARK    5  A    between atoms: N_6  and  C_23
REMARK    6  A    between atoms: C_7  and  C_12
REMARK    7  A    between atoms: C_7  and  C_13
REMARK    8  A    between atoms: C_8  and  C_11
REMARK    9  A    between atoms: C_11  and  C_14
REMARK   10  A    between atoms: C_17  and  C_19
REMARK   11  A    between atoms: C_18  and  C_20
REMARK   12  A    between atoms: C_18  and  C_21
REMARK                            x       y       z     vdW  Elec       q    Type
REMARK                         _______ _______ _______ _____ _____    ______ ____
ROOT
ATOM      7  C   UNL     1      20.374   6.710  21.323  0.00  0.00    -0.013 C 
ATOM      8  C   UNL     1      19.161   6.418  20.414  0.00  0.00    +0.004 C 
ATOM      9  C   UNL     1      21.088   5.539  20.616  0.00  0.00    +0.081 C 
ATOM     10  C   UNL     1      19.687   4.971  20.308  0.00  0.00    +0.027 C 
ATOM     12  C   UNL     1      20.971   8.083  21.110  0.00  0.00    +0.013 C 
ATOM     13  C   UNL     1      20.164   6.460  22.805  0.00  0.00    +0.013 C 
ENDROOT
BRANCH   9   3
ATOM      2  O   UNL     1      23.663   4.384  20.005  0.00  0.00    -0.253 OA
ATOM      3  N   UNL     1      21.900   4.670  21.483  0.00  0.00    -0.296 N 
ATOM      5  N   UNL     1      23.700   3.370  22.093  0.00  0.00    -0.297 N 
ATOM     15  C   UNL     1      23.138   4.160  21.095  0.00  0.00    +0.300 C 
ATOM     24  H   UNL     1      21.560   4.411  22.406  0.00  0.00    +0.151 HD
ATOM     25  H   UNL     1      23.222   3.309  22.988  0.00  0.00    +0.150 HD
BRANCH   5  18
ATOM     18  C   UNL     1      24.981   2.721  21.946  0.00  0.00    +0.068 C 
ATOM     20  C   UNL     1      25.754   2.762  23.258  0.00  0.00    +0.027 C 
ATOM     21  C   UNL     1      24.797   1.290  21.458  0.00  0.00    +0.027 C 
ENDBRANCH   5  18
ENDBRANCH   9   3
BRANCH   8  11
ATOM     11  C   UNL     1      17.787   6.550  21.031  0.00  0.00    +0.063 C 
BRANCH  11  14
ATOM      1  O   UNL     1      15.626   6.194  18.164  0.00  0.00    -0.358 OA
ATOM      4  N   UNL     1      16.684   5.784  18.965  0.00  0.00    -0.083 NA
ATOM     14  C   UNL     1      16.739   6.681  19.952  0.00  0.00    +0.084 A 
ATOM     16  C   UNL     1      15.749   7.672  19.828  0.00  0.00    +0.072 A 
ATOM     17  C   UNL     1      15.076   7.319  18.688  0.00  0.00    +0.151 A 
BRANCH  17  19
ATOM     19  C   UNL     1      13.936   7.892  17.962  0.00  0.00    +0.161 C 
BRANCH  19   6
ATOM      6  N   UNL     1      14.263   9.150  17.269  0.00  0.00    -0.301 NA
ATOM     22  C   UNL     1      13.508  10.253  17.853  0.00  0.00    +0.105 C 
ATOM     23  C   UNL     1      13.979   9.024  15.843  0.00  0.00    +0.105 C 
ENDBRANCH  19   6
ENDBRANCH  17  19
ENDBRANCH  11  14
ENDBRANCH   8  11
TORSDOF 6
ENDMDL
MODEL 3
REMARK VINA RESULT:      -5.4     19.302     20.857
REMARK  Name = 56774034
REMARK  12 active torsions:
REMARK  status: ('A' for Active; 'I' for Inactive)
REMARK    1  A    between atoms: N_3  and  C_9
REMARK    2  A    between atoms: N_5  and  C_18
REMARK    3  A    between atoms: N_6  and  C_19
REMARK    4  A    between atoms: N_6  and  C_22
REMARK    5  A    between atoms: N_6  and  C_23
REMARK    6  A    between atoms: C_7  and  C_12
REMARK    7  A    between atoms: C_7  and  C_13
REMARK    8  A    between atoms: C_8  and  C_11
REMARK    9  A    between atoms: C_11  and  C_14
REMARK   10  A    between atoms: C_17  and  C_19
REMARK   11  A    between atoms: C_18  and  C_20
REMARK   12  A    between atoms: C_18  and  C_21
REMARK                            x       y       z     vdW  Elec       q    Type
REMARK                         _______ _______ _______ _____ _____    ______ ____
ROOT
ATOM      7  C   UNL     1     -12.219   9.505  19.376  0.00  0.00    -0.013 C 
ATOM      8  C   UNL     1     -12.072   7.970  19.463  0.00  0.00    +0.004 C 
ATOM      9  C   UNL     1     -11.259   9.452  18.169  0.00  0.00    +0.081 C 
ATOM     10  C   UNL     1     -10.706   8.140  18.764  0.00  0.00    +0.027 C 
ATOM     12  C   UNL     1     -13.632   9.960  19.086  0.00  0.00    +0.013 C 
ATOM     13  C   UNL     1     -11.650  10.290  20.543  0.00  0.00    +0.013 C 
ENDROOT
BRANCH   9   3
ATOM      2  O   UNL     1     -10.520  10.987  15.838  0.00  0.00    -0.253 OA
ATOM      3  N   UNL     1     -10.263  10.534  18.097  0.00  0.00    -0.296 N 
ATOM      5  N   UNL     1      -9.003  12.192  17.117  0.00  0.00    -0.297 N 
ATOM     15  C   UNL     1      -9.977  11.219  16.917  0.00  0.00    +0.300 C 
ATOM     24  H   UNL     1      -9.746  10.805  18.929  0.00  0.00    +0.151 HD
ATOM     25  H   UNL     1      -8.671  12.357  18.064  0.00  0.00    +0.150 HD
BRANCH   5  18
ATOM     18  C   UNL     1      -8.522  13.044  16.056  0.00  0.00    +0.068 C 
ATOM     20  C   UNL     1      -9.389  14.292  15.939  0.00  0.00    +0.027 C 
ATOM     21  C   UNL     1      -7.062  13.407  16.287  0.00  0.00    +0.027 C 
ENDBRANCH   5  18
ENDBRANCH   9   3
BRANCH   8  11
ATOM     11  C   UNL     1     -12.007   7.359  20.844  0.00  0.00    +0.063 C 
BRANCH  11  14
ATOM      1  O   UNL     1     -14.480   4.939  21.866  0.00  0.00    -0.358 OA
ATOM      4  N   UNL     1     -13.172   5.402  21.784  0.00  0.00    -0.083 NA
ATOM     14  C   UNL     1     -13.257   6.559  21.122  0.00  0.00    +0.084 A 
ATOM     16  C   UNL     1     -14.579   6.874  20.764  0.00  0.00    +0.072 A 
ATOM     17  C   UNL     1     -15.309   5.824  21.256  0.00  0.00    +0.151 A 
BRANCH  17  19
ATOM     19  C   UNL     1     -16.737   5.488  21.251  0.00  0.00    +0.161 C 
BRANCH  19   6
ATOM      6  N   UNL     1     -17.090   4.468  20.249  0.00  0.00    -0.301 NA
ATOM     22  C   UNL     1     -17.231   5.086  18.935  0.00  0.00    +0.105 C 
ATOM     23  C   UNL     1     -18.322   3.788  20.638  0.00  0.00    +0.105 C 
ENDBRANCH  19   6
ENDBRANCH  17  19
ENDBRANCH  11  14
ENDBRANCH   8  11
TORSDOF 6
ENDMDL
MODEL 4
REMARK VINA RESULT:      -5.4      1.633      8.610
REMARK  Name = 56774034
REMARK  12 active torsions:
REMARK  status: ('A' for Active; 'I' for Inactive)
REMARK    1  A    between atoms: N_3  and  C_9
REMARK    2  A    between atoms: N_5  and  C_18
REMARK    3  A    between atoms: N_6  and  C_19
REMARK    4  A    between atoms: N_6  and  C_22
REMARK    5  A    between atoms: N_6  and  C_23
REMARK    6  A    between atoms: C_7  and  C_12
REMARK    7  A    between atoms: C_7  and  C_13
REMARK    8  A    between atoms: C_8  and  C_11
REMARK    9  A    between atoms: C_11  and  C_14
REMARK   10  A    between atoms: C_17  and  C_19
REMARK   11  A    between atoms: C_18  and  C_20
REMARK   12  A    between atoms: C_18  and  C_21
REMARK                            x       y       z     vdW  Elec       q    Type
REMARK                         _______ _______ _______ _____ _____    ______ ____
ROOT
ATOM      7  C   UNL     1      -6.567 -10.634  16.853  0.00  0.00    -0.013 C 
ATOM      8  C   UNL     1      -5.138 -10.399  17.389  0.00  0.00    +0.004 C 
ATOM      9  C   UNL     1      -7.079  -9.966  18.146  0.00  0.00    +0.081 C 
ATOM     10  C   UNL     1      -5.753 -10.400  18.805  0.00  0.00    +0.027 C 
ATOM     12  C   UNL     1      -6.855  -9.900  15.562  0.00  0.00    +0.013 C 
ATOM     13  C   UNL     1      -6.996 -12.084  16.732  0.00  0.00    +0.013 C 
ENDROOT
BRANCH   9   3
ATOM      2  O   UNL     1      -9.825  -9.129  17.836  0.00  0.00    -0.253 OA
ATOM      3  N   UNL     1      -8.270 -10.583  18.754  0.00  0.00    -0.296 N 
ATOM      5  N   UNL     1     -10.506 -10.859  19.226  0.00  0.00    -0.297 N 
ATOM     15  C   UNL     1      -9.561 -10.102  18.541  0.00  0.00    +0.300 C 
ATOM     24  H   UNL     1      -8.169 -11.390  19.364  0.00  0.00    +0.151 HD
ATOM     25  H   UNL     1     -10.194 -11.690  19.721  0.00  0.00    +0.150 HD
BRANCH   5  18
ATOM     18  C   UNL     1     -11.920 -10.573  19.176  0.00  0.00    +0.068 C 
ATOM     20  C   UNL     1     -12.704 -11.821  18.792  0.00  0.00    +0.027 C 
ATOM     21  C   UNL     1     -12.395 -10.011  20.509  0.00  0.00    +0.027 C 
ENDBRANCH   5  18
ENDBRANCH   9   3
BRANCH   8  11
ATOM     11  C   UNL     1      -4.118 -11.486  17.139  0.00  0.00    +0.063 C 
BRANCH  11  14
ATOM      1  O   UNL     1      -1.451 -10.407  14.963  0.00  0.00    -0.358 OA
ATOM      4  N   UNL     1      -1.990 -10.651  16.220  0.00  0.00    -0.083 NA
ATOM     14  C   UNL     1      -3.222 -11.109  15.984  0.00  0.00    +0.084 A 
ATOM     16  C   UNL     1      -3.514 -11.175  14.610  0.00  0.00    +0.072 A 
ATOM     17  C   UNL     1      -2.367 -10.723  14.012  0.00  0.00    +0.151 A 
BRANCH  17  19
ATOM     19  C   UNL     1      -1.959 -10.525  12.617  0.00  0.00    +0.161 C 
BRANCH  19   6
ATOM      6  N   UNL     1      -3.087 -10.567  11.670  0.00  0.00    -0.301 NA
ATOM     22  C   UNL     1      -3.203 -11.901  11.091  0.00  0.00    +0.105 C 
ATOM     23  C   UNL     1      -2.904  -9.561  10.628  0.00  0.00    +0.105 C 
ENDBRANCH  19   6
ENDBRANCH  17  19
ENDBRANCH  11  14
ENDBRANCH   8  11
TORSDOF 6
ENDMDL
MODEL 5
REMARK VINA RESULT:      -5.4     24.480     28.935
REMARK  Name = 56774034
REMARK  12 active torsions:
REMARK  status: ('A' for Active; 'I' for Inactive)
REMARK    1  A    between atoms: N_3  and  C_9
REMARK    2  A    between atoms: N_5  and  C_18
REMARK    3  A    between atoms: N_6  and  C_19
REMARK    4  A    between atoms: N_6  and  C_22
REMARK    5  A    between atoms: N_6  and  C_23
REMARK    6  A    between atoms: C_7  and  C_12
REMARK    7  A    between atoms: C_7  and  C_13
REMARK    8  A    between atoms: C_8  and  C_11
REMARK    9  A    between atoms: C_11  and  C_14
REMARK   10  A    between atoms: C_17  and  C_19
REMARK   11  A    between atoms: C_18  and  C_20
REMARK   12  A    between atoms: C_18  and  C_21
REMARK                            x       y       z     vdW  Elec       q    Type
REMARK                         _______ _______ _______ _____ _____    ______ ____
ROOT
ATOM      7  C   UNL     1      11.410   4.750   1.750  0.00  0.00    -0.013 C 
ATOM      8  C   UNL     1      12.534   5.317   0.855  0.00  0.00    +0.004 C 
ATOM      9  C   UNL     1      11.674   5.937   2.700  0.00  0.00    +0.081 C 
ATOM     10  C   UNL     1      13.106   5.979   2.127  0.00  0.00    +0.027 C 
ATOM     12  C   UNL     1      10.057   4.723   1.075  0.00  0.00    +0.013 C 
ATOM     13  C   UNL     1      11.695   3.407   2.397  0.00  0.00    +0.013 C 
ENDROOT
BRANCH   9   3
ATOM      2  O   UNL     1       9.371   6.088   4.434  0.00  0.00    -0.253 OA
ATOM      3  N   UNL     1      11.623   5.627   4.139  0.00  0.00    -0.296 N 
ATOM      5  N   UNL     1      10.674   5.381   6.221  0.00  0.00    -0.297 N 
ATOM     15  C   UNL     1      10.455   5.731   4.893  0.00  0.00    +0.300 C 
ATOM     24  H   UNL     1      12.465   5.329   4.625  0.00  0.00    +0.151 HD
ATOM     25  H   UNL     1      11.589   5.026   6.484  0.00  0.00    +0.150 HD
BRANCH   5  18
ATOM     18  C   UNL     1       9.628   5.404   7.216  0.00  0.00    +0.068 C 
ATOM     20  C   UNL     1       9.805   4.256   8.203  0.00  0.00    +0.027 C 
ATOM     21  C   UNL     1       9.604   6.748   7.931  0.00  0.00    +0.027 C 
ENDBRANCH   5  18
ENDBRANCH   9   3
BRANCH   8  11
ATOM     11  C   UNL     1      13.455   4.321   0.189  0.00  0.00    +0.063 C 
BRANCH  11  14
ATOM      1  O   UNL     1      12.011   2.384  -2.490  0.00  0.00    -0.358 OA
ATOM      4  N   UNL     1      12.559   2.508  -1.220  0.00  0.00    -0.083 NA
ATOM     14  C   UNL     1      12.837   3.808  -1.089  0.00  0.00    +0.084 A 
ATOM     16  C   UNL     1      12.488   4.546  -2.234  0.00  0.00    +0.072 A 
ATOM     17  C   UNL     1      11.972   3.603  -3.084  0.00  0.00    +0.151 A 
BRANCH  17  19
ATOM     19  C   UNL     1      11.416   3.654  -4.441  0.00  0.00    +0.161 C 
BRANCH  19   6
ATOM      6  N   UNL     1      10.107   2.989  -4.558  0.00  0.00    -0.301 NA
ATOM     22  C   UNL     1       9.793   2.747  -5.961  0.00  0.00    +0.105 C 
ATOM     23  C   UNL     1       9.074   3.803  -3.927  0.00  0.00    +0.105 C 
ENDBRANCH  19   6
ENDBRANCH  17  19
ENDBRANCH  11  14
ENDBRANCH   8  11
TORSDOF 6
ENDMDL
MODEL 6
REMARK VINA RESULT:      -5.3     19.067     20.647
REMARK  Name = 56774034
REMARK  12 active torsions:
REMARK  status: ('A' for Active; 'I' for Inactive)
REMARK    1  A    between atoms: N_3  and  C_9
REMARK    2  A    between atoms: N_5  and  C_18
REMARK    3  A    between atoms: N_6  and  C_19
REMARK    4  A    between atoms: N_6  and  C_22
REMARK    5  A    between atoms: N_6  and  C_23
REMARK    6  A    between atoms: C_7  and  C_12
REMARK    7  A    between atoms: C_7  and  C_13
REMARK    8  A    between atoms: C_8  and  C_11
REMARK    9  A    between atoms: C_11  and  C_14
REMARK   10  A    between atoms: C_17  and  C_19
REMARK   11  A    between atoms: C_18  and  C_20
REMARK   12  A    between atoms: C_18  and  C_21
REMARK                            x       y       z     vdW  Elec       q    Type
REMARK                         _______ _______ _______ _____ _____    ______ ____
ROOT
ATOM      7  C   UNL     1     -13.087   7.808  20.811  0.00  0.00    -0.013 C 
ATOM      8  C   UNL     1     -14.041   7.858  22.023  0.00  0.00    +0.004 C 
ATOM      9  C   UNL     1     -12.589   9.203  21.242  0.00  0.00    +0.081 C 
ATOM     10  C   UNL     1     -13.959   9.396  21.926  0.00  0.00    +0.027 C 
ATOM     12  C   UNL     1     -12.075   6.685  20.885  0.00  0.00    +0.013 C 
ATOM     13  C   UNL     1     -13.751   7.818  19.447  0.00  0.00    +0.013 C 
ENDROOT
BRANCH   9   3
ATOM      2  O   UNL     1     -10.135   9.539  19.760  0.00  0.00    -0.253 OA
ATOM      3  N   UNL     1     -12.335  10.156  20.149  0.00  0.00    -0.296 N 
ATOM      5  N   UNL     1     -11.129  11.218  18.501  0.00  0.00    -0.297 N 
ATOM     15  C   UNL     1     -11.109  10.242  19.492  0.00  0.00    +0.300 C 
ATOM     24  H   UNL     1     -13.068  10.794  19.849  0.00  0.00    +0.151 HD
ATOM     25  H   UNL     1     -12.006  11.692  18.307  0.00  0.00    +0.150 HD
BRANCH   5  18
ATOM     18  C   UNL     1      -9.984  11.511  17.671  0.00  0.00    +0.068 C 
ATOM     20  C   UNL     1     -10.113  10.816  16.321  0.00  0.00    +0.027 C 
ATOM     21  C   UNL     1      -9.821  13.015  17.505  0.00  0.00    +0.027 C 
ENDBRANCH   5  18
ENDBRANCH   9   3
BRANCH   8  11
ATOM     11  C   UNL     1     -15.427   7.283  21.837  0.00  0.00    +0.063 C 
BRANCH  11  14
ATOM      1  O   UNL     1     -15.429   3.736  22.495  0.00  0.00    -0.358 OA
ATOM      4  N   UNL     1     -15.285   4.830  21.651  0.00  0.00    -0.083 NA
ATOM     14  C   UNL     1     -15.503   5.896  22.427  0.00  0.00    +0.084 A 
ATOM     16  C   UNL     1     -15.785   5.539  23.757  0.00  0.00    +0.072 A 
ATOM     17  C   UNL     1     -15.726   4.170  23.747  0.00  0.00    +0.151 A 
BRANCH  17  19
ATOM     19  C   UNL     1     -15.911   3.137  24.772  0.00  0.00    +0.161 C 
BRANCH  19   6
ATOM      6  N   UNL     1     -16.675   3.609  25.940  0.00  0.00    -0.301 NA
ATOM     22  C   UNL     1     -16.044   3.146  27.171  0.00  0.00    +0.105 C 
ATOM     23  C   UNL     1     -18.056   3.143  25.857  0.00  0.00    +0.105 C 
ENDBRANCH  19   6
ENDBRANCH  17  19
ENDBRANCH  11  14
ENDBRANCH   8  11
TORSDOF 6
ENDMDL
MODEL 7
REMARK VINA RESULT:      -5.3      3.789      6.793
REMARK  Name = 56774034
REMARK  12 active torsions:
REMARK  status: ('A' for Active; 'I' for Inactive)
REMARK    1  A    between atoms: N_3  and  C_9
REMARK    2  A    between atoms: N_5  and  C_18
REMARK    3  A    between atoms: N_6  and  C_19
REMARK    4  A    between atoms: N_6  and  C_22
REMARK    5  A    between atoms: N_6  and  C_23
REMARK    6  A    between atoms: C_7  and  C_12
REMARK    7  A    between atoms: C_7  and  C_13
REMARK    8  A    between atoms: C_8  and  C_11
REMARK    9  A    between atoms: C_11  and  C_14
REMARK   10  A    between atoms: C_17  and  C_19
REMARK   11  A    between atoms: C_18  and  C_20
REMARK   12  A    between atoms: C_18  and  C_21
REMARK                            x       y       z     vdW  Elec       q    Type
REMARK                         _______ _______ _______ _____ _____    ______ ____
ROOT
ATOM      7  C   UNL     1      -4.173 -10.035  10.808  0.00  0.00    -0.013 C 
ATOM      8  C   UNL     1      -3.650 -11.050  11.848  0.00  0.00    +0.004 C 
ATOM      9  C   UNL     1      -4.561 -11.247   9.935  0.00  0.00    +0.081 C 
ATOM     10  C   UNL     1      -3.461 -12.036  10.675  0.00  0.00    +0.027 C 
ATOM     12  C   UNL     1      -5.317  -9.185  11.316  0.00  0.00    +0.013 C 
ATOM     13  C   UNL     1      -3.122  -9.156  10.157  0.00  0.00    +0.013 C 
ENDROOT
BRANCH   9   3
ATOM      2  O   UNL     1      -5.929 -12.601   7.782  0.00  0.00    -0.253 OA
ATOM      3  N   UNL     1      -4.311 -11.099   8.491  0.00  0.00    -0.296 N 
ATOM      5  N   UNL     1      -4.602 -11.482   6.240  0.00  0.00    -0.297 N 
ATOM     15  C   UNL     1      -5.030 -11.801   7.525  0.00  0.00    +0.300 C 
ATOM     24  H   UNL     1      -3.583 -10.469   8.163  0.00  0.00    +0.151 HD
ATOM     25  H   UNL     1      -3.904 -10.752   6.130  0.00  0.00    +0.150 HD
BRANCH   5  18
ATOM     18  C   UNL     1      -5.182 -12.071   5.056  0.00  0.00    +0.068 C 
ATOM     20  C   UNL     1      -6.279 -11.173   4.497  0.00  0.00    +0.027 C 
ATOM     21  C   UNL     1      -4.104 -12.339   4.015  0.00  0.00    +0.027 C 
ENDBRANCH   5  18
ENDBRANCH   9   3
BRANCH   8  11
ATOM     11  C   UNL     1      -2.382 -10.691  12.587  0.00  0.00    +0.063 C 
BRANCH  11  14
ATOM      1  O   UNL     1      -2.161 -10.603  16.187  0.00  0.00    -0.358 OA
ATOM      4  N   UNL     1      -1.595 -10.562  14.918  0.00  0.00    -0.083 NA
ATOM     14  C   UNL     1      -2.624 -10.692  14.077  0.00  0.00    +0.084 A 
ATOM     16  C   UNL     1      -3.852 -10.816  14.750  0.00  0.00    +0.072 A 
ATOM     17  C   UNL     1      -3.506 -10.753  16.074  0.00  0.00    +0.151 A 
BRANCH  17  19
ATOM     19  C   UNL     1      -4.266 -10.815  17.328  0.00  0.00    +0.161 C 
BRANCH  19   6
ATOM      6  N   UNL     1      -5.393 -11.761  17.277  0.00  0.00    -0.301 NA
ATOM     22  C   UNL     1      -6.615 -11.108  17.732  0.00  0.00    +0.105 C 
ATOM     23  C   UNL     1      -5.097 -12.936  18.091  0.00  0.00    +0.105 C 
ENDBRANCH  19   6
ENDBRANCH  17  19
ENDBRANCH  11  14
ENDBRANCH   8  11
TORSDOF 6
ENDMDL
MODEL 8
REMARK VINA RESULT:      -5.2     19.749     22.689
REMARK  Name = 56774034
REMARK  12 active torsions:
REMARK  status: ('A' for Active; 'I' for Inactive)
REMARK    1  A    between atoms: N_3  and  C_9
REMARK    2  A    between atoms: N_5  and  C_18
REMARK    3  A    between atoms: N_6  and  C_19
REMARK    4  A    between atoms: N_6  and  C_22
REMARK    5  A    between atoms: N_6  and  C_23
REMARK    6  A    between atoms: C_7  and  C_12
REMARK    7  A    between atoms: C_7  and  C_13
REMARK    8  A    between atoms: C_8  and  C_11
REMARK    9  A    between atoms: C_11  and  C_14
REMARK   10  A    between atoms: C_17  and  C_19
REMARK   11  A    between atoms: C_18  and  C_20
REMARK   12  A    between atoms: C_18  and  C_21
REMARK                            x       y       z     vdW  Elec       q    Type
REMARK                         _______ _______ _______ _____ _____    ______ ____
ROOT
ATOM      7  C   UNL     1     -12.937   8.480  19.927  0.00  0.00    -0.013 C 
ATOM      8  C   UNL     1     -11.430   8.257  19.678  0.00  0.00    +0.004 C 
ATOM      9  C   UNL     1     -12.763   7.673  21.231  0.00  0.00    +0.081 C 
ATOM     10  C   UNL     1     -11.551   6.995  20.559  0.00  0.00    +0.027 C 
ATOM     12  C   UNL     1     -13.313   9.937  20.088  0.00  0.00    +0.013 C 
ATOM     13  C   UNL     1     -13.876   7.808  18.943  0.00  0.00    +0.013 C 
ENDROOT
BRANCH   9   3
ATOM      2  O   UNL     1     -14.743   7.969  23.311  0.00  0.00    -0.253 OA
ATOM      3  N   UNL     1     -13.856   6.742  21.556  0.00  0.00    -0.296 N 
ATOM      5  N   UNL     1     -15.698   5.948  22.684  0.00  0.00    -0.297 N 
ATOM     15  C   UNL     1     -14.766   6.976  22.585  0.00  0.00    +0.300 C 
ATOM     24  H   UNL     1     -13.966   5.882  21.024  0.00  0.00    +0.151 HD
ATOM     25  H   UNL     1     -15.679   5.208  21.988  0.00  0.00    +0.150 HD
BRANCH   5  18
ATOM     18  C   UNL     1     -16.753   5.943  23.671  0.00  0.00    +0.068 C 
ATOM     20  C   UNL     1     -18.116   5.877  22.994  0.00  0.00    +0.027 C 
ATOM     21  C   UNL     1     -16.563   4.788  24.644  0.00  0.00    +0.027 C 
ENDBRANCH   5  18
ENDBRANCH   9   3
BRANCH   8  11
ATOM     11  C   UNL     1     -10.995   7.998  18.254  0.00  0.00    +0.063 C 
BRANCH  11  14
ATOM      1  O   UNL     1     -10.113  10.671  15.998  0.00  0.00    -0.358 OA
ATOM      4  N   UNL     1     -10.552   9.380  16.263  0.00  0.00    -0.083 NA
ATOM     14  C   UNL     1     -10.563   9.285  17.595  0.00  0.00    +0.084 A 
ATOM     16  C   UNL     1     -10.145  10.474  18.218  0.00  0.00    +0.072 A 
ATOM     17  C   UNL     1      -9.875  11.314  17.169  0.00  0.00    +0.151 A 
BRANCH  17  19
ATOM     19  C   UNL     1      -9.402  12.699  17.073  0.00  0.00    +0.161 C 
BRANCH  19   6
ATOM      6  N   UNL     1      -8.418  12.904  15.995  0.00  0.00    -0.301 NA
ATOM     22  C   UNL     1      -7.191  13.473  16.539  0.00  0.00    +0.105 C 
ATOM     23  C   UNL     1      -8.980  13.768  14.962  0.00  0.00    +0.105 C 
ENDBRANCH  19   6
ENDBRANCH  17  19
ENDBRANCH  11  14
ENDBRANCH   8  11
TORSDOF 6
ENDMDL
MODEL 9
REMARK VINA RESULT:      -5.2     18.703     21.545
REMARK  Name = 56774034
REMARK  12 active torsions:
REMARK  status: ('A' for Active; 'I' for Inactive)
REMARK    1  A    between atoms: N_3  and  C_9
REMARK    2  A    between atoms: N_5  and  C_18
REMARK    3  A    between atoms: N_6  and  C_19
REMARK    4  A    between atoms: N_6  and  C_22
REMARK    5  A    between atoms: N_6  and  C_23
REMARK    6  A    between atoms: C_7  and  C_12
REMARK    7  A    between atoms: C_7  and  C_13
REMARK    8  A    between atoms: C_8  and  C_11
REMARK    9  A    between atoms: C_11  and  C_14
REMARK   10  A    between atoms: C_17  and  C_19
REMARK   11  A    between atoms: C_18  and  C_20
REMARK   12  A    between atoms: C_18  and  C_21
REMARK                            x       y       z     vdW  Elec       q    Type
REMARK                         _______ _______ _______ _____ _____    ______ ____
ROOT
ATOM      7  C   UNL     1     -15.073   6.323  22.169  0.00  0.00    -0.013 C 
ATOM      8  C   UNL     1     -13.683   6.725  21.629  0.00  0.00    +0.004 C 
ATOM      9  C   UNL     1     -14.349   5.256  23.017  0.00  0.00    +0.081 C 
ATOM     10  C   UNL     1     -13.225   5.289  21.961  0.00  0.00    +0.027 C 
ATOM     12  C   UNL     1     -15.766   7.428  22.935  0.00  0.00    +0.013 C 
ATOM     13  C   UNL     1     -16.026   5.719  21.154  0.00  0.00    +0.013 C 
ENDROOT
BRANCH   9   3
ATOM      2  O   UNL     1     -16.100   4.361  25.131  0.00  0.00    -0.253 OA
ATOM      3  N   UNL     1     -15.027   3.953  23.117  0.00  0.00    -0.296 N 
ATOM      5  N   UNL     1     -16.375   2.330  24.039  0.00  0.00    -0.297 N 
ATOM     15  C   UNL     1     -15.858   3.614  24.183  0.00  0.00    +0.300 C 
ATOM     24  H   UNL     1     -14.893   3.252  22.392  0.00  0.00    +0.151 HD
ATOM     25  H   UNL     1     -16.175   1.822  23.182  0.00  0.00    +0.150 HD
BRANCH   5  18
ATOM     18  C   UNL     1     -17.264   1.734  25.007  0.00  0.00    +0.068 C 
ATOM     20  C   UNL     1     -18.286   0.841  24.314  0.00  0.00    +0.027 C 
ATOM     21  C   UNL     1     -16.470   0.959  26.050  0.00  0.00    +0.027 C 
ENDBRANCH   5  18
ENDBRANCH   9   3
BRANCH   8  11
ATOM     11  C   UNL     1     -13.591   7.099  20.168  0.00  0.00    +0.063 C 
BRANCH  11  14
ATOM      1  O   UNL     1     -11.413   9.960  20.465  0.00  0.00    -0.358 OA
ATOM      4  N   UNL     1     -12.362   9.079  20.968  0.00  0.00    -0.083 NA
ATOM     14  C   UNL     1     -12.596   8.218  19.975  0.00  0.00    +0.084 A 
ATOM     16  C   UNL     1     -11.831   8.503  18.830  0.00  0.00    +0.072 A 
ATOM     17  C   UNL     1     -11.104   9.607  19.191  0.00  0.00    +0.151 A 
BRANCH  17  19
ATOM     19  C   UNL     1     -10.109  10.438  18.504  0.00  0.00    +0.161 C 
BRANCH  19   6
ATOM      6  N   UNL     1     -10.700  11.347  17.507  0.00  0.00    -0.301 NA
ATOM     22  C   UNL     1     -10.097  11.116  16.199  0.00  0.00    +0.105 C 
ATOM     23  C   UNL     1     -10.520  12.734  17.925  0.00  0.00    +0.105 C 
ENDBRANCH  19   6
ENDBRANCH  17  19
ENDBRANCH  11  14
ENDBRANCH   8  11
TORSDOF 6
ENDMDL
MODEL 10
REMARK VINA RESULT:      -5.1     18.660     23.142
REMARK  Name = 56774034
REMARK  12 active torsions:
REMARK  status: ('A' for Active; 'I' for Inactive)
REMARK    1  A    between atoms: N_3  and  C_9
REMARK    2  A    between atoms: N_5  and  C_18
REMARK    3  A    between atoms: N_6  and  C_19
REMARK    4  A    between atoms: N_6  and  C_22
REMARK    5  A    between atoms: N_6  and  C_23
REMARK    6  A    between atoms: C_7  and  C_12
REMARK    7  A    between atoms: C_7  and  C_13
REMARK    8  A    between atoms: C_8  and  C_11
REMARK    9  A    between atoms: C_11  and  C_14
REMARK   10  A    between atoms: C_17  and  C_19
REMARK   11  A    between atoms: C_18  and  C_20
REMARK   12  A    between atoms: C_18  and  C_21
REMARK                            x       y       z     vdW  Elec       q    Type
REMARK                         _______ _______ _______ _____ _____    ______ ____
ROOT
ATOM      7  C   UNL     1     -14.668   2.997  32.105  0.00  0.00    -0.013 C 
ATOM      8  C   UNL     1     -15.494   2.815  30.814  0.00  0.00    +0.004 C 
ATOM      9  C   UNL     1     -15.139   4.466  32.109  0.00  0.00    +0.081 C 
ATOM     10  C   UNL     1     -15.321   4.331  30.583  0.00  0.00    +0.027 C 
ATOM     12  C   UNL     1     -15.148   2.138  33.255  0.00  0.00    +0.013 C 
ATOM     13  C   UNL     1     -13.164   2.864  31.951  0.00  0.00    +0.013 C 
ENDROOT
BRANCH   9   3
ATOM      2  O   UNL     1     -15.373   6.479  34.166  0.00  0.00    -0.253 OA
ATOM      3  N   UNL     1     -14.126   5.461  32.498  0.00  0.00    -0.296 N 
ATOM      5  N   UNL     1     -13.226   7.217  33.681  0.00  0.00    -0.297 N 
ATOM     15  C   UNL     1     -14.335   6.396  33.510  0.00  0.00    +0.300 C 
ATOM     24  H   UNL     1     -13.231   5.489  32.016  0.00  0.00    +0.151 HD
ATOM     25  H   UNL     1     -12.388   7.019  33.141  0.00  0.00    +0.150 HD
BRANCH   5  18
ATOM     18  C   UNL     1     -13.181   8.272  34.666  0.00  0.00    +0.068 C 
ATOM     20  C   UNL     1     -12.556   7.767  35.961  0.00  0.00    +0.027 C 
ATOM     21  C   UNL     1     -12.424   9.475  34.120  0.00  0.00    +0.027 C 
ENDBRANCH   5  18
ENDBRANCH   9   3
BRANCH   8  11
ATOM     11  C   UNL     1     -14.906   1.937  29.734  0.00  0.00    +0.063 C 
BRANCH  11  14
ATOM      1  O   UNL     1     -17.556   0.462  27.781  0.00  0.00    -0.358 OA
ATOM      4  N   UNL     1     -16.704   0.486  28.878  0.00  0.00    -0.083 NA
ATOM     14  C   UNL     1     -15.960   1.583  28.713  0.00  0.00    +0.084 A 
ATOM     16  C   UNL     1     -16.295   2.284  27.541  0.00  0.00    +0.072 A 
ATOM     17  C   UNL     1     -17.305   1.538  26.992  0.00  0.00    +0.151 A 
BRANCH  17  19
ATOM     19  C   UNL     1     -18.122   1.669  25.781  0.00  0.00    +0.161 C 
BRANCH  19   6
ATOM      6  N   UNL     1     -17.461   1.143  24.574  0.00  0.00    -0.301 NA
ATOM     22  C   UNL     1     -17.435   2.164  23.533  0.00  0.00    +0.105 C 
ATOM     23  C   UNL     1     -18.150  -0.057  24.109  0.00  0.00    +0.105 C 
ENDBRANCH  19   6
ENDBRANCH  17  19
ENDBRANCH  11  14
ENDBRANCH   8  11
TORSDOF 6
ENDMDL
