REMARK  Name = 9424526
REMARK  3 active torsions:
REMARK  status: ('A' for Active; 'I' for Inactive)
REMARK    1  A    between atoms: S_1  and  N_6
REMARK    2  A    between atoms: S_1  and  C_19
REMARK    3  A    between atoms: C_15  and  C_20
REMARK                            x       y       z     vdW  Elec       q    Type
REMARK                         _______ _______ _______ _____ _____    ______ ____
ROOT
ATOM      5  O   UNL     1      -2.346  -4.173   0.630  0.00  0.00    -0.268 OA
ATOM      6  N   UNL     1       1.376  -0.939   0.165  0.00  0.00    -0.176 NA
ATOM      7  N   UNL     1      -1.490  -2.178  -0.249  0.00  0.00    -0.311 N 
ATOM      8  C   UNL     1       0.529  -2.164  -1.831  0.00  0.00    +0.025 C 
ATOM      9  C   UNL     1      -0.525  -0.048  -1.171  0.00  0.00    +0.053 C 
ATOM     10  C   UNL     1      -0.088  -0.885  -2.371  0.00  0.00    +0.017 C 
ATOM     11  C   UNL     1       1.748  -1.854  -0.950  0.00  0.00    +0.114 C 
ATOM     12  C   UNL     1       0.708   0.305  -0.317  0.00  0.00    +0.119 C 
ATOM     13  C   UNL     1      -0.549  -2.946  -1.077  0.00  0.00    +0.130 C 
ATOM     14  C   UNL     1      -1.578  -0.774  -0.330  0.00  0.00    +0.034 A 
ATOM     15  C   UNL     1      -2.560  -0.119   0.343  0.00  0.00    +0.005 A 
ATOM     16  C   UNL     1      -2.369  -2.946   0.535  0.00  0.00    +0.252 A 
ATOM     17  C   UNL     1      -3.483  -0.877   1.165  0.00  0.00    +0.015 A 
ATOM     18  C   UNL     1      -3.407  -2.202   1.284  0.00  0.00    +0.071 A 
ENDROOT
BRANCH  15  20
ATOM      2  F   UNL     1      -4.174   1.163  -1.588  0.00  0.00    -0.205 F 
ATOM     20  C   UNL     1      -2.705   1.352   0.272  0.00  0.00    +0.019 A 
ATOM     23  C   UNL     1      -3.517   1.925  -0.702  0.00  0.00    +0.131 A 
ATOM     24  C   UNL     1      -2.026   2.153   1.186  0.00  0.00    +0.011 A 
ATOM     27  C   UNL     1      -3.650   3.313  -0.764  0.00  0.00    +0.039 A 
ATOM     28  C   UNL     1      -2.160   3.540   1.125  0.00  0.00    +0.001 A 
ATOM     30  C   UNL     1      -2.972   4.120   0.150  0.00  0.00    +0.003 A 
ENDBRANCH  15  20
BRANCH   6   1
ATOM      1  S   UNL     1       2.565  -0.720   1.375  0.00  0.00    +0.061 S 
ATOM      3  O   UNL     1       3.233  -1.982   1.616  0.00  0.00    -0.153 OA
ATOM      4  O   UNL     1       1.994   0.041   2.466  0.00  0.00    -0.153 OA
BRANCH   1  19
ATOM     19  C   UNL     1       3.694   0.330   0.513  0.00  0.00    +0.105 A 
ATOM     21  C   UNL     1       3.535   1.704   0.590  0.00  0.00    +0.028 A 
ATOM     22  C   UNL     1       4.719  -0.238  -0.226  0.00  0.00    +0.028 A 
ATOM     25  C   UNL     1       4.426   2.533  -0.091  0.00  0.00    +0.002 A 
ATOM     26  C   UNL     1       5.610   0.591  -0.907  0.00  0.00    +0.002 A 
ATOM     29  C   UNL     1       5.463   1.977  -0.840  0.00  0.00    +0.000 A 
ENDBRANCH   1  19
ENDBRANCH   6   1
TORSDOF 3
