MODEL 1
REMARK VINA RESULT:      -7.1      0.000      0.000
REMARK  Name = 25314763
REMARK  10 active torsions:
REMARK  status: ('A' for Active; 'I' for Inactive)
REMARK    1  A    between atoms: O_3  and  C_13
REMARK    2  A    between atoms: O_4  and  C_18
REMARK    3  A    between atoms: O_4  and  C_20
REMARK    4  A    between atoms: O_6  and  C_23
REMARK    5  A    between atoms: O_6  and  C_26
REMARK    6  A    between atoms: N_7  and  C_11
REMARK    7  A    between atoms: N_7  and  C_16
REMARK    8  A    between atoms: N_8  and  C_10
REMARK    9  A    between atoms: N_9  and  C_19
REMARK   10  A    between atoms: C_16  and  C_18
REMARK                            x       y       z     vdW  Elec       q    Type
REMARK                         _______ _______ _______ _____ _____    ______ ____
ROOT
ATOM      1  O   UNL     1      12.814   9.240  19.765  0.00  0.00    -0.342 OA
ATOM      2  O   UNL     1      10.883   8.236  18.966  0.00  0.00    -0.347 OA
ATOM     10  C   UNL     1      13.424   6.933  20.114  0.00  0.00    +0.136 C 
ATOM     11  C   UNL     1      11.418   8.031  21.315  0.00  0.00    +0.141 C 
ATOM     12  C   UNL     1      13.213   8.052  19.073  0.00  0.00    +0.170 C 
ATOM     13  C   UNL     1      12.208   6.731  21.044  0.00  0.00    +0.159 C 
ATOM     14  C   UNL     1      11.446   8.948  20.079  0.00  0.00    +0.270 C 
ATOM     15  C   UNL     1      12.012   7.843  18.170  0.00  0.00    +0.196 C 
ENDROOT
BRANCH  10   8
ATOM      5  O   UNL     1      16.138   6.454  19.335  0.00  0.00    -0.252 OA
ATOM      8  N   UNL     1      14.610   7.209  20.896  0.00  0.00    -0.291 N 
ATOM      9  N   UNL     1      16.842   7.312  21.404  0.00  0.00    -0.269 N 
ATOM     17  C   UNL     1      15.902   6.943  20.438  0.00  0.00    +0.304 C 
ATOM     28  H   UNL     1      14.492   7.539  21.849  0.00  0.00    +0.151 HD
ATOM     30  H   UNL     1      16.478   7.704  22.269  0.00  0.00    +0.156 HD
BRANCH   9  19
ATOM     19  C   UNL     1      18.251   7.205  21.330  0.00  0.00    +0.038 A 
ATOM     21  C   UNL     1      18.837   6.038  20.843  0.00  0.00    +0.069 A 
ATOM     22  C   UNL     1      19.054   8.267  21.747  0.00  0.00    +0.023 A 
ATOM     23  C   UNL     1      20.226   5.932  20.772  0.00  0.00    +0.122 A 
ATOM     24  C   UNL     1      20.443   8.162  21.677  0.00  0.00    +0.005 A 
ATOM     25  C   UNL     1      21.029   6.994  21.189  0.00  0.00    +0.046 A 
BRANCH  23   6
ATOM      6  O   UNL     1      20.799   4.793  20.295  0.00  0.00    -0.495 OA
ATOM     26  C   UNL     1      21.751   4.143  21.137  0.00  0.00    +0.277 C 
ENDBRANCH  23   6
ENDBRANCH   9  19
ENDBRANCH  10   8
BRANCH  13   3
ATOM      3  O   UNL     1      11.311   5.793  20.432  0.00  0.00    -0.388 OA
ATOM     29  H   UNL     1      10.562   6.296  20.072  0.00  0.00    +0.210 HD
ENDBRANCH  13   3
BRANCH  11   7
ATOM      7  N   UNL     1      11.984   8.735  22.467  0.00  0.00    -0.305 NA
ATOM     27  H   UNL     1      12.681   9.407  22.149  0.00  0.00    +0.123 HD
BRANCH   7  16
ATOM     16  C   UNL     1      10.945   9.446  23.196  0.00  0.00    +0.109 C 
BRANCH  16  18
ATOM     18  C   UNL     1      11.208  10.943  23.179  0.00  0.00    +0.174 C 
BRANCH  18   4
ATOM      4  O   UNL     1      10.361  11.566  24.137  0.00  0.00    -0.382 OA
ATOM     20  C   UNL     1      11.088  11.976  25.287  0.00  0.00    +0.194 C 
ENDBRANCH  18   4
ENDBRANCH  16  18
ENDBRANCH   7  16
ENDBRANCH  11   7
TORSDOF 8
ENDMDL
MODEL 2
REMARK VINA RESULT:      -6.6      2.461      7.805
REMARK  Name = 25314763
REMARK  10 active torsions:
REMARK  status: ('A' for Active; 'I' for Inactive)
REMARK    1  A    between atoms: O_3  and  C_13
REMARK    2  A    between atoms: O_4  and  C_18
REMARK    3  A    between atoms: O_4  and  C_20
REMARK    4  A    between atoms: O_6  and  C_23
REMARK    5  A    between atoms: O_6  and  C_26
REMARK    6  A    between atoms: N_7  and  C_11
REMARK    7  A    between atoms: N_7  and  C_16
REMARK    8  A    between atoms: N_8  and  C_10
REMARK    9  A    between atoms: N_9  and  C_19
REMARK   10  A    between atoms: C_16  and  C_18
REMARK                            x       y       z     vdW  Elec       q    Type
REMARK                         _______ _______ _______ _____ _____    ______ ____
ROOT
ATOM      1  O   UNL     1      11.504   7.287  19.964  0.00  0.00    -0.342 OA
ATOM      2  O   UNL     1      12.252   7.205  17.770  0.00  0.00    -0.347 OA
ATOM     10  C   UNL     1      12.734   9.360  19.913  0.00  0.00    +0.136 C 
ATOM     11  C   UNL     1      13.872   7.068  19.560  0.00  0.00    +0.141 C 
ATOM     12  C   UNL     1      11.459   8.623  19.453  0.00  0.00    +0.170 C 
ATOM     13  C   UNL     1      14.034   8.605  19.560  0.00  0.00    +0.159 C 
ATOM     14  C   UNL     1      12.460   6.673  19.089  0.00  0.00    +0.270 C 
ATOM     15  C   UNL     1      11.404   8.347  17.963  0.00  0.00    +0.196 C 
ENDROOT
BRANCH  10   8
ATOM      5  O   UNL     1      11.996  11.812  21.196  0.00  0.00    -0.252 OA
ATOM      8  N   UNL     1      12.672   9.606  21.338  0.00  0.00    -0.291 N 
ATOM      9  N   UNL     1      12.330  10.778  23.277  0.00  0.00    -0.269 N 
ATOM     17  C   UNL     1      12.299  10.838  21.882  0.00  0.00    +0.304 C 
ATOM     28  H   UNL     1      12.985   8.873  21.967  0.00  0.00    +0.151 HD
ATOM     30  H   UNL     1      12.605   9.890  23.690  0.00  0.00    +0.156 HD
BRANCH   9  19
ATOM     19  C   UNL     1      12.023  11.808  24.198  0.00  0.00    +0.038 A 
ATOM     21  C   UNL     1      13.020  12.319  25.028  0.00  0.00    +0.069 A 
ATOM     22  C   UNL     1      10.724  12.309  24.277  0.00  0.00    +0.023 A 
ATOM     23  C   UNL     1      12.718  13.333  25.937  0.00  0.00    +0.122 A 
ATOM     24  C   UNL     1      10.421  13.323  25.186  0.00  0.00    +0.005 A 
ATOM     25  C   UNL     1      11.419  13.835  26.016  0.00  0.00    +0.046 A 
BRANCH  23   6
ATOM      6  O   UNL     1      13.691  13.835  26.746  0.00  0.00    -0.495 OA
ATOM     26  C   UNL     1      13.293  14.803  27.717  0.00  0.00    +0.277 C 
ENDBRANCH  23   6
ENDBRANCH   9  19
ENDBRANCH  10   8
BRANCH  13   3
ATOM      3  O   UNL     1      14.454   9.000  18.247  0.00  0.00    -0.388 OA
ATOM     29  H   UNL     1      14.491   8.199  17.697  0.00  0.00    +0.210 HD
ENDBRANCH  13   3
BRANCH  11   7
ATOM      7  N   UNL     1      14.112   6.536  20.903  0.00  0.00    -0.305 NA
ATOM     27  H   UNL     1      14.269   5.530  20.850  0.00  0.00    +0.123 HD
BRANCH   7  16
ATOM     16  C   UNL     1      15.281   7.161  21.502  0.00  0.00    +0.109 C 
BRANCH  16  18
ATOM     18  C   UNL     1      16.527   6.331  21.239  0.00  0.00    +0.174 C 
BRANCH  18   4
ATOM      4  O   UNL     1      17.243   6.913  20.158  0.00  0.00    -0.382 OA
ATOM     20  C   UNL     1      17.702   5.927  19.244  0.00  0.00    +0.194 C 
ENDBRANCH  18   4
ENDBRANCH  16  18
ENDBRANCH   7  16
ENDBRANCH  11   7
TORSDOF 8
ENDMDL
MODEL 3
REMARK VINA RESULT:      -6.6      1.993      4.874
REMARK  Name = 25314763
REMARK  10 active torsions:
REMARK  status: ('A' for Active; 'I' for Inactive)
REMARK    1  A    between atoms: O_3  and  C_13
REMARK    2  A    between atoms: O_4  and  C_18
REMARK    3  A    between atoms: O_4  and  C_20
REMARK    4  A    between atoms: O_6  and  C_23
REMARK    5  A    between atoms: O_6  and  C_26
REMARK    6  A    between atoms: N_7  and  C_11
REMARK    7  A    between atoms: N_7  and  C_16
REMARK    8  A    between atoms: N_8  and  C_10
REMARK    9  A    between atoms: N_9  and  C_19
REMARK   10  A    between atoms: C_16  and  C_18
REMARK                            x       y       z     vdW  Elec       q    Type
REMARK                         _______ _______ _______ _____ _____    ______ ____
ROOT
ATOM      1  O   UNL     1      12.614  11.223  25.543  0.00  0.00    -0.342 OA
ATOM      2  O   UNL     1      11.650  13.266  25.015  0.00  0.00    -0.347 OA
ATOM     10  C   UNL     1      13.761  11.649  23.465  0.00  0.00    +0.136 C 
ATOM     11  C   UNL     1      11.197  11.361  23.595  0.00  0.00    +0.141 C 
ATOM     12  C   UNL     1      13.638  12.032  24.954  0.00  0.00    +0.170 C 
ATOM     13  C   UNL     1      12.415  11.705  22.709  0.00  0.00    +0.159 C 
ATOM     14  C   UNL     1      11.425  11.847  25.039  0.00  0.00    +0.270 C 
ATOM     15  C   UNL     1      13.067  13.417  25.194  0.00  0.00    +0.196 C 
ENDROOT
BRANCH  10   8
ATOM      5  O   UNL     1      15.155  10.597  21.195  0.00  0.00    -0.252 OA
ATOM      8  N   UNL     1      14.346  10.331  23.344  0.00  0.00    -0.291 N 
ATOM      9  N   UNL     1      15.469   8.588  22.369  0.00  0.00    -0.269 N 
ATOM     17  C   UNL     1      15.012   9.897  22.196  0.00  0.00    +0.304 C 
ATOM     28  H   UNL     1      14.200   9.668  24.100  0.00  0.00    +0.151 HD
ATOM     30  H   UNL     1      15.265   8.148  23.263  0.00  0.00    +0.156 HD
BRANCH   9  19
ATOM     19  C   UNL     1      16.185   7.788  21.447  0.00  0.00    +0.038 A 
ATOM     21  C   UNL     1      17.577   7.734  21.506  0.00  0.00    +0.069 A 
ATOM     22  C   UNL     1      15.499   7.057  20.477  0.00  0.00    +0.023 A 
ATOM     23  C   UNL     1      18.283   6.948  20.596  0.00  0.00    +0.122 A 
ATOM     24  C   UNL     1      16.205   6.270  19.567  0.00  0.00    +0.005 A 
ATOM     25  C   UNL     1      17.597   6.215  19.626  0.00  0.00    +0.046 A 
BRANCH  23   6
ATOM      6  O   UNL     1      19.643   6.893  20.654  0.00  0.00    -0.495 OA
ATOM     26  C   UNL     1      20.244   5.601  20.565  0.00  0.00    +0.277 C 
ENDBRANCH  23   6
ENDBRANCH   9  19
ENDBRANCH  10   8
BRANCH  13   3
ATOM      3  O   UNL     1      12.227  13.033  22.202  0.00  0.00    -0.388 OA
ATOM     29  H   UNL     1      12.141  12.969  21.236  0.00  0.00    +0.210 HD
ENDBRANCH  13   3
BRANCH  11   7
ATOM      7  N   UNL     1      10.961   9.917  23.591  0.00  0.00    -0.305 NA
ATOM     27  H   UNL     1      10.100   9.708  24.095  0.00  0.00    +0.123 HD
BRANCH   7  16
ATOM     16  C   UNL     1      10.839   9.420  22.229  0.00  0.00    +0.109 C 
BRANCH  16  18
ATOM     18  C   UNL     1      10.603   7.918  22.225  0.00  0.00    +0.174 C 
BRANCH  18   4
ATOM      4  O   UNL     1      10.702   7.445  20.888  0.00  0.00    -0.382 OA
ATOM     20  C   UNL     1      11.070   8.484  19.992  0.00  0.00    +0.194 C 
ENDBRANCH  18   4
ENDBRANCH  16  18
ENDBRANCH   7  16
ENDBRANCH  11   7
TORSDOF 8
ENDMDL
MODEL 4
REMARK VINA RESULT:      -6.3     15.466     18.859
REMARK  Name = 25314763
REMARK  10 active torsions:
REMARK  status: ('A' for Active; 'I' for Inactive)
REMARK    1  A    between atoms: O_3  and  C_13
REMARK    2  A    between atoms: O_4  and  C_18
REMARK    3  A    between atoms: O_4  and  C_20
REMARK    4  A    between atoms: O_6  and  C_23
REMARK    5  A    between atoms: O_6  and  C_26
REMARK    6  A    between atoms: N_7  and  C_11
REMARK    7  A    between atoms: N_7  and  C_16
REMARK    8  A    between atoms: N_8  and  C_10
REMARK    9  A    between atoms: N_9  and  C_19
REMARK   10  A    between atoms: C_16  and  C_18
REMARK                            x       y       z     vdW  Elec       q    Type
REMARK                         _______ _______ _______ _____ _____    ______ ____
ROOT
ATOM      1  O   UNL     1      14.127   3.363   1.717  0.00  0.00    -0.342 OA
ATOM      2  O   UNL     1      14.016   3.767  -0.564  0.00  0.00    -0.347 OA
ATOM     10  C   UNL     1      12.332   4.973   1.712  0.00  0.00    +0.136 C 
ATOM     11  C   UNL     1      14.716   5.556   0.905  0.00  0.00    +0.141 C 
ATOM     12  C   UNL     1      12.744   3.523   1.385  0.00  0.00    +0.170 C 
ATOM     13  C   UNL     1      13.253   6.028   1.061  0.00  0.00    +0.159 C 
ATOM     14  C   UNL     1      14.768   4.042   0.629  0.00  0.00    +0.270 C 
ATOM     15  C   UNL     1      12.779   3.207  -0.099  0.00  0.00    +0.196 C 
ENDROOT
BRANCH  10   8
ATOM      5  O   UNL     1      10.174   6.073   3.240  0.00  0.00    -0.252 OA
ATOM      8  N   UNL     1      12.296   5.160   3.147  0.00  0.00    -0.291 N 
ATOM      9  N   UNL     1      11.448   5.765   5.188  0.00  0.00    -0.269 N 
ATOM     17  C   UNL     1      11.197   5.707   3.815  0.00  0.00    +0.304 C 
ATOM     28  H   UNL     1      13.135   4.955   3.681  0.00  0.00    +0.151 HD
ATOM     30  H   UNL     1      12.351   5.419   5.502  0.00  0.00    +0.156 HD
BRANCH   9  19
ATOM     19  C   UNL     1      10.594   6.250   6.207  0.00  0.00    +0.038 A 
ATOM     21  C   UNL     1      10.311   7.612   6.288  0.00  0.00    +0.069 A 
ATOM     22  C   UNL     1      10.039   5.365   7.132  0.00  0.00    +0.023 A 
ATOM     23  C   UNL     1       9.471   8.091   7.293  0.00  0.00    +0.122 A 
ATOM     24  C   UNL     1       9.199   5.844   8.138  0.00  0.00    +0.005 A 
ATOM     25  C   UNL     1       8.915   7.207   8.219  0.00  0.00    +0.046 A 
BRANCH  23   6
ATOM      6  O   UNL     1       9.192   9.422   7.372  0.00  0.00    -0.495 OA
ATOM     26  C   UNL     1       9.862  10.166   8.389  0.00  0.00    +0.277 C 
ENDBRANCH  23   6
ENDBRANCH   9  19
ENDBRANCH  10   8
BRANCH  13   3
ATOM      3  O   UNL     1      12.750   6.335  -0.246  0.00  0.00    -0.388 OA
ATOM     29  H   UNL     1      12.476   5.498  -0.659  0.00  0.00    +0.210 HD
ENDBRANCH  13   3
BRANCH  11   7
ATOM      7  N   UNL     1      15.479   5.865   2.116  0.00  0.00    -0.305 NA
ATOM     27  H   UNL     1      16.476   5.866   1.902  0.00  0.00    +0.123 HD
BRANCH   7  16
ATOM     16  C   UNL     1      15.109   7.173   2.635  0.00  0.00    +0.109 C 
BRANCH  16  18
ATOM     18  C   UNL     1      15.405   7.261   4.124  0.00  0.00    +0.174 C 
BRANCH  18   4
ATOM      4  O   UNL     1      14.174   7.268   4.834  0.00  0.00    -0.382 OA
ATOM     20  C   UNL     1      14.382   7.354   6.237  0.00  0.00    +0.194 C 
ENDBRANCH  18   4
ENDBRANCH  16  18
ENDBRANCH   7  16
ENDBRANCH  11   7
TORSDOF 8
ENDMDL
MODEL 5
REMARK VINA RESULT:      -6.0      4.086      7.011
REMARK  Name = 25314763
REMARK  10 active torsions:
REMARK  status: ('A' for Active; 'I' for Inactive)
REMARK    1  A    between atoms: O_3  and  C_13
REMARK    2  A    between atoms: O_4  and  C_18
REMARK    3  A    between atoms: O_4  and  C_20
REMARK    4  A    between atoms: O_6  and  C_23
REMARK    5  A    between atoms: O_6  and  C_26
REMARK    6  A    between atoms: N_7  and  C_11
REMARK    7  A    between atoms: N_7  and  C_16
REMARK    8  A    between atoms: N_8  and  C_10
REMARK    9  A    between atoms: N_9  and  C_19
REMARK   10  A    between atoms: C_16  and  C_18
REMARK                            x       y       z     vdW  Elec       q    Type
REMARK                         _______ _______ _______ _____ _____    ______ ____
ROOT
ATOM      1  O   UNL     1      12.609   9.090  21.489  0.00  0.00    -0.342 OA
ATOM      2  O   UNL     1      11.093   7.360  21.781  0.00  0.00    -0.347 OA
ATOM     10  C   UNL     1      12.564   8.251  19.228  0.00  0.00    +0.136 C 
ATOM     11  C   UNL     1      13.383   6.822  21.218  0.00  0.00    +0.141 C 
ATOM     12  C   UNL     1      11.797   9.039  20.311  0.00  0.00    +0.170 C 
ATOM     13  C   UNL     1      13.045   6.866  19.711  0.00  0.00    +0.159 C 
ATOM     14  C   UNL     1      12.454   7.762  22.007  0.00  0.00    +0.270 C 
ATOM     15  C   UNL     1      10.574   8.323  20.851  0.00  0.00    +0.196 C 
ENDROOT
BRANCH  10   8
ATOM      5  O   UNL     1      12.634   9.911  16.895  0.00  0.00    -0.252 OA
ATOM      8  N   UNL     1      13.686   9.033  18.756  0.00  0.00    -0.291 N 
ATOM      9  N   UNL     1      14.861  10.456  17.397  0.00  0.00    -0.269 N 
ATOM     17  C   UNL     1      13.635   9.819  17.602  0.00  0.00    +0.304 C 
ATOM     28  H   UNL     1      14.573   8.945  19.244  0.00  0.00    +0.151 HD
ATOM     30  H   UNL     1      15.591  10.271  18.080  0.00  0.00    +0.156 HD
BRANCH   9  19
ATOM     19  C   UNL     1      15.219  11.333  16.347  0.00  0.00    +0.038 A 
ATOM     21  C   UNL     1      15.152  10.900  15.023  0.00  0.00    +0.069 A 
ATOM     22  C   UNL     1      15.641  12.631  16.635  0.00  0.00    +0.023 A 
ATOM     23  C   UNL     1      15.507  11.764  13.988  0.00  0.00    +0.122 A 
ATOM     24  C   UNL     1      15.997  13.496  15.600  0.00  0.00    +0.005 A 
ATOM     25  C   UNL     1      15.929  13.063  14.276  0.00  0.00    +0.046 A 
BRANCH  23   6
ATOM      6  O   UNL     1      15.440  11.342  12.695  0.00  0.00    -0.495 OA
ATOM     26  C   UNL     1      15.380  12.350  11.686  0.00  0.00    +0.277 C 
ENDBRANCH  23   6
ENDBRANCH   9  19
ENDBRANCH  10   8
BRANCH  13   3
ATOM      3  O   UNL     1      12.007   5.907  19.467  0.00  0.00    -0.388 OA
ATOM     29  H   UNL     1      12.343   5.035  19.736  0.00  0.00    +0.210 HD
ENDBRANCH  13   3
BRANCH  11   7
ATOM      7  N   UNL     1      14.778   7.209  21.434  0.00  0.00    -0.305 NA
ATOM     27  H   UNL     1      15.036   7.035  22.405  0.00  0.00    +0.123 HD
BRANCH   7  16
ATOM     16  C   UNL     1      15.663   6.442  20.571  0.00  0.00    +0.109 C 
BRANCH  16  18
ATOM     18  C   UNL     1      17.113   6.623  20.993  0.00  0.00    +0.174 C 
BRANCH  18   4
ATOM      4  O   UNL     1      17.954   6.120  19.963  0.00  0.00    -0.382 OA
ATOM     20  C   UNL     1      19.293   5.964  20.414  0.00  0.00    +0.194 C 
ENDBRANCH  18   4
ENDBRANCH  16  18
ENDBRANCH   7  16
ENDBRANCH  11   7
TORSDOF 8
ENDMDL
MODEL 6
REMARK VINA RESULT:      -6.0      2.761      9.277
REMARK  Name = 25314763
REMARK  10 active torsions:
REMARK  status: ('A' for Active; 'I' for Inactive)
REMARK    1  A    between atoms: O_3  and  C_13
REMARK    2  A    between atoms: O_4  and  C_18
REMARK    3  A    between atoms: O_4  and  C_20
REMARK    4  A    between atoms: O_6  and  C_23
REMARK    5  A    between atoms: O_6  and  C_26
REMARK    6  A    between atoms: N_7  and  C_11
REMARK    7  A    between atoms: N_7  and  C_16
REMARK    8  A    between atoms: N_8  and  C_10
REMARK    9  A    between atoms: N_9  and  C_19
REMARK   10  A    between atoms: C_16  and  C_18
REMARK                            x       y       z     vdW  Elec       q    Type
REMARK                         _______ _______ _______ _____ _____    ______ ____
ROOT
ATOM      1  O   UNL     1      21.192   7.731  20.507  0.00  0.00    -0.342 OA
ATOM      2  O   UNL     1      22.227   7.901  22.576  0.00  0.00    -0.347 OA
ATOM     10  C   UNL     1      19.231   7.673  21.909  0.00  0.00    +0.136 C 
ATOM     11  C   UNL     1      21.064   5.856  22.018  0.00  0.00    +0.141 C 
ATOM     12  C   UNL     1      20.357   8.553  21.329  0.00  0.00    +0.170 C 
ATOM     13  C   UNL     1      19.755   6.409  22.625  0.00  0.00    +0.159 C 
ATOM     14  C   UNL     1      21.942   7.004  21.490  0.00  0.00    +0.270 C 
ATOM     15  C   UNL     1      21.366   9.029  22.358  0.00  0.00    +0.196 C 
ENDROOT
BRANCH  10   8
ATOM      5  O   UNL     1      16.464   8.392  21.732  0.00  0.00    -0.252 OA
ATOM      8  N   UNL     1      18.307   7.303  20.859  0.00  0.00    -0.291 N 
ATOM      9  N   UNL     1      16.323   7.196  19.717  0.00  0.00    -0.269 N 
ATOM     17  C   UNL     1      16.967   7.699  20.850  0.00  0.00    +0.304 C 
ATOM     28  H   UNL     1      18.629   6.666  20.136  0.00  0.00    +0.151 HD
ATOM     30  H   UNL     1      16.887   6.636  19.082  0.00  0.00    +0.156 HD
BRANCH   9  19
ATOM     19  C   UNL     1      14.970   7.367  19.339  0.00  0.00    +0.038 A 
ATOM     21  C   UNL     1      13.957   6.761  20.080  0.00  0.00    +0.069 A 
ATOM     22  C   UNL     1      14.651   8.141  18.223  0.00  0.00    +0.023 A 
ATOM     23  C   UNL     1      12.624   6.929  19.706  0.00  0.00    +0.122 A 
ATOM     24  C   UNL     1      13.318   8.308  17.848  0.00  0.00    +0.005 A 
ATOM     25  C   UNL     1      12.304   7.702  18.590  0.00  0.00    +0.046 A 
BRANCH  23   6
ATOM      6  O   UNL     1      11.634   6.338  20.432  0.00  0.00    -0.495 OA
ATOM     26  C   UNL     1      11.029   7.121  21.461  0.00  0.00    +0.277 C 
ENDBRANCH  23   6
ENDBRANCH   9  19
ENDBRANCH  10   8
BRANCH  13   3
ATOM      3  O   UNL     1      20.012   6.731  23.999  0.00  0.00    -0.388 OA
ATOM     29  H   UNL     1      20.657   6.086  24.336  0.00  0.00    +0.210 HD
ENDBRANCH  13   3
BRANCH  11   7
ATOM      7  N   UNL     1      20.761   4.924  20.930  0.00  0.00    -0.305 NA
ATOM     27  H   UNL     1      20.824   5.409  20.036  0.00  0.00    +0.123 HD
BRANCH   7  16
ATOM     16  C   UNL     1      21.702   3.814  20.928  0.00  0.00    +0.109 C 
BRANCH  16  18
ATOM     18  C   UNL     1      22.098   3.445  22.349  0.00  0.00    +0.174 C 
BRANCH  18   4
ATOM      4  O   UNL     1      23.144   2.483  22.295  0.00  0.00    -0.382 OA
ATOM     20  C   UNL     1      23.541   2.218  20.957  0.00  0.00    +0.194 C 
ENDBRANCH  18   4
ENDBRANCH  16  18
ENDBRANCH   7  16
ENDBRANCH  11   7
TORSDOF 8
ENDMDL
MODEL 7
REMARK VINA RESULT:      -5.9      2.300      8.479
REMARK  Name = 25314763
REMARK  10 active torsions:
REMARK  status: ('A' for Active; 'I' for Inactive)
REMARK    1  A    between atoms: O_3  and  C_13
REMARK    2  A    between atoms: O_4  and  C_18
REMARK    3  A    between atoms: O_4  and  C_20
REMARK    4  A    between atoms: O_6  and  C_23
REMARK    5  A    between atoms: O_6  and  C_26
REMARK    6  A    between atoms: N_7  and  C_11
REMARK    7  A    between atoms: N_7  and  C_16
REMARK    8  A    between atoms: N_8  and  C_10
REMARK    9  A    between atoms: N_9  and  C_19
REMARK   10  A    between atoms: C_16  and  C_18
REMARK                            x       y       z     vdW  Elec       q    Type
REMARK                         _______ _______ _______ _____ _____    ______ ____
ROOT
ATOM      1  O   UNL     1      11.711   7.466  19.046  0.00  0.00    -0.342 OA
ATOM      2  O   UNL     1      13.002   7.644  17.127  0.00  0.00    -0.347 OA
ATOM     10  C   UNL     1      12.433   9.754  19.295  0.00  0.00    +0.136 C 
ATOM     11  C   UNL     1      14.092   7.774  19.282  0.00  0.00    +0.141 C 
ATOM     12  C   UNL     1      11.512   8.784  18.525  0.00  0.00    +0.170 C 
ATOM     13  C   UNL     1      13.911   9.308  19.305  0.00  0.00    +0.159 C 
ATOM     14  C   UNL     1      12.971   7.110  18.461  0.00  0.00    +0.270 C 
ATOM     15  C   UNL     1      11.906   8.571  17.076  0.00  0.00    +0.196 C 
ENDROOT
BRANCH  10   8
ATOM      5  O   UNL     1      12.096  12.222  20.708  0.00  0.00    -0.252 OA
ATOM      8  N   UNL     1      11.951   9.916  20.650  0.00  0.00    -0.291 N 
ATOM      9  N   UNL     1      11.332  11.008  22.567  0.00  0.00    -0.269 N 
ATOM     17  C   UNL     1      11.817  11.163  21.265  0.00  0.00    +0.304 C 
ATOM     28  H   UNL     1      11.776   9.081  21.202  0.00  0.00    +0.151 HD
ATOM     30  H   UNL     1      11.151  10.057  22.877  0.00  0.00    +0.156 HD
BRANCH   9  19
ATOM     19  C   UNL     1      11.059  12.020  23.518  0.00  0.00    +0.038 A 
ATOM     21  C   UNL     1      10.319  13.142  23.148  0.00  0.00    +0.069 A 
ATOM     22  C   UNL     1      11.533  11.896  24.824  0.00  0.00    +0.023 A 
ATOM     23  C   UNL     1      10.051  14.140  24.085  0.00  0.00    +0.122 A 
ATOM     24  C   UNL     1      11.266  12.894  25.761  0.00  0.00    +0.005 A 
ATOM     25  C   UNL     1      10.525  14.017  25.392  0.00  0.00    +0.046 A 
BRANCH  23   6
ATOM      6  O   UNL     1       9.326  15.236  23.725  0.00  0.00    -0.495 OA
ATOM     26  C   UNL     1       8.429  15.087  22.625  0.00  0.00    +0.277 C 
ENDBRANCH  23   6
ENDBRANCH   9  19
ENDBRANCH  10   8
BRANCH  13   3
ATOM      3  O   UNL     1      14.562   9.843  18.144  0.00  0.00    -0.388 OA
ATOM     29  H   UNL     1      14.248  10.755  18.026  0.00  0.00    +0.210 HD
ENDBRANCH  13   3
BRANCH  11   7
ATOM      7  N   UNL     1      14.085   7.244  20.647  0.00  0.00    -0.305 NA
ATOM     27  H   UNL     1      13.466   6.436  20.698  0.00  0.00    +0.123 HD
BRANCH   7  16
ATOM     16  C   UNL     1      15.423   6.836  21.046  0.00  0.00    +0.109 C 
BRANCH  16  18
ATOM     18  C   UNL     1      16.432   7.169  19.958  0.00  0.00    +0.174 C 
BRANCH  18   4
ATOM      4  O   UNL     1      17.127   5.982  19.600  0.00  0.00    -0.382 OA
ATOM     20  C   UNL     1      18.476   6.014  20.044  0.00  0.00    +0.194 C 
ENDBRANCH  18   4
ENDBRANCH  16  18
ENDBRANCH   7  16
ENDBRANCH  11   7
TORSDOF 8
ENDMDL
MODEL 8
REMARK VINA RESULT:      -5.9      4.596      6.327
REMARK  Name = 25314763
REMARK  10 active torsions:
REMARK  status: ('A' for Active; 'I' for Inactive)
REMARK    1  A    between atoms: O_3  and  C_13
REMARK    2  A    between atoms: O_4  and  C_18
REMARK    3  A    between atoms: O_4  and  C_20
REMARK    4  A    between atoms: O_6  and  C_23
REMARK    5  A    between atoms: O_6  and  C_26
REMARK    6  A    between atoms: N_7  and  C_11
REMARK    7  A    between atoms: N_7  and  C_16
REMARK    8  A    between atoms: N_8  and  C_10
REMARK    9  A    between atoms: N_9  and  C_19
REMARK   10  A    between atoms: C_16  and  C_18
REMARK                            x       y       z     vdW  Elec       q    Type
REMARK                         _______ _______ _______ _____ _____    ______ ____
ROOT
ATOM      1  O   UNL     1      10.582   8.456  20.260  0.00  0.00    -0.342 OA
ATOM      2  O   UNL     1      11.185   7.041  21.996  0.00  0.00    -0.347 OA
ATOM     10  C   UNL     1      12.979   8.673  20.100  0.00  0.00    +0.136 C 
ATOM     11  C   UNL     1      11.661   9.404  22.198  0.00  0.00    +0.141 C 
ATOM     12  C   UNL     1      11.762   7.760  19.845  0.00  0.00    +0.170 C 
ATOM     13  C   UNL     1      13.048   9.202  21.550  0.00  0.00    +0.159 C 
ATOM     14  C   UNL     1      10.666   8.345  21.687  0.00  0.00    +0.270 C 
ATOM     15  C   UNL     1      11.697   6.544  20.750  0.00  0.00    +0.196 C 
ENDROOT
BRANCH  10   8
ATOM      5  O   UNL     1      14.801   9.101  17.932  0.00  0.00    -0.252 OA
ATOM      8  N   UNL     1      12.967   9.778  19.166  0.00  0.00    -0.291 N 
ATOM      9  N   UNL     1      13.639  11.069  17.396  0.00  0.00    -0.269 N 
ATOM     17  C   UNL     1      13.897   9.911  18.133  0.00  0.00    +0.304 C 
ATOM     28  H   UNL     1      12.299  10.529  19.316  0.00  0.00    +0.151 HD
ATOM     30  H   UNL     1      12.848  11.634  17.696  0.00  0.00    +0.156 HD
BRANCH   9  19
ATOM     19  C   UNL     1      14.347  11.562  16.275  0.00  0.00    +0.038 A 
ATOM     21  C   UNL     1      13.783  11.478  15.003  0.00  0.00    +0.069 A 
ATOM     22  C   UNL     1      15.610  12.130  16.442  0.00  0.00    +0.023 A 
ATOM     23  C   UNL     1      14.482  11.963  13.897  0.00  0.00    +0.122 A 
ATOM     24  C   UNL     1      16.310  12.614  15.336  0.00  0.00    +0.005 A 
ATOM     25  C   UNL     1      15.745  12.531  14.063  0.00  0.00    +0.046 A 
BRANCH  23   6
ATOM      6  O   UNL     1      13.930  11.883  12.654  0.00  0.00    -0.495 OA
ATOM     26  C   UNL     1      14.480  12.730  11.645  0.00  0.00    +0.277 C 
ENDBRANCH  23   6
ENDBRANCH   9  19
ENDBRANCH  10   8
BRANCH  13   3
ATOM      3  O   UNL     1      13.773   8.258  22.350  0.00  0.00    -0.388 OA
ATOM     29  H   UNL     1      13.819   8.613  23.253  0.00  0.00    +0.210 HD
ENDBRANCH  13   3
BRANCH  11   7
ATOM      7  N   UNL     1      11.154  10.744  21.899  0.00  0.00    -0.305 NA
ATOM     27  H   UNL     1      10.150  10.701  21.727  0.00  0.00    +0.123 HD
BRANCH   7  16
ATOM     16  C   UNL     1      11.398  11.646  23.014  0.00  0.00    +0.109 C 
BRANCH  16  18
ATOM     18  C   UNL     1      11.067  10.969  24.334  0.00  0.00    +0.174 C 
BRANCH  18   4
ATOM      4  O   UNL     1      11.869  11.545  25.357  0.00  0.00    -0.382 OA
ATOM     20  C   UNL     1      13.097  12.038  24.840  0.00  0.00    +0.194 C 
ENDBRANCH  18   4
ENDBRANCH  16  18
ENDBRANCH   7  16
ENDBRANCH  11   7
TORSDOF 8
ENDMDL
MODEL 9
REMARK VINA RESULT:      -5.8     27.737     29.357
REMARK  Name = 25314763
REMARK  10 active torsions:
REMARK  status: ('A' for Active; 'I' for Inactive)
REMARK    1  A    between atoms: O_3  and  C_13
REMARK    2  A    between atoms: O_4  and  C_18
REMARK    3  A    between atoms: O_4  and  C_20
REMARK    4  A    between atoms: O_6  and  C_23
REMARK    5  A    between atoms: O_6  and  C_26
REMARK    6  A    between atoms: N_7  and  C_11
REMARK    7  A    between atoms: N_7  and  C_16
REMARK    8  A    between atoms: N_8  and  C_10
REMARK    9  A    between atoms: N_9  and  C_19
REMARK   10  A    between atoms: C_16  and  C_18
REMARK                            x       y       z     vdW  Elec       q    Type
REMARK                         _______ _______ _______ _____ _____    ______ ____
ROOT
ATOM      1  O   UNL     1      -9.793  -7.561  16.367  0.00  0.00    -0.342 OA
ATOM      2  O   UNL     1     -11.486  -8.912  17.194  0.00  0.00    -0.347 OA
ATOM     10  C   UNL     1      -9.529  -9.439  14.878  0.00  0.00    +0.136 C 
ATOM     11  C   UNL     1      -9.192  -9.640  17.432  0.00  0.00    +0.141 C 
ATOM     12  C   UNL     1     -10.394  -8.216  15.245  0.00  0.00    +0.170 C 
ATOM     13  C   UNL     1      -9.264 -10.378  16.076  0.00  0.00    +0.159 C 
ATOM     14  C   UNL     1     -10.153  -8.437  17.443  0.00  0.00    +0.270 C 
ATOM     15  C   UNL     1     -11.751  -8.566  15.826  0.00  0.00    +0.196 C 
ENDROOT
BRANCH  10   8
ATOM      5  O   UNL     1      -8.217 -10.546  12.586  0.00  0.00    -0.252 OA
ATOM      8  N   UNL     1      -8.277  -8.999  14.303  0.00  0.00    -0.291 N 
ATOM      9  N   UNL     1      -6.503  -8.964  12.852  0.00  0.00    -0.269 N 
ATOM     17  C   UNL     1      -7.705  -9.598  13.177  0.00  0.00    +0.304 C 
ATOM     28  H   UNL     1      -7.754  -8.273  14.783  0.00  0.00    +0.151 HD
ATOM     30  H   UNL     1      -6.219  -8.191  13.448  0.00  0.00    +0.156 HD
BRANCH   9  19
ATOM     19  C   UNL     1      -5.622  -9.267  11.787  0.00  0.00    +0.038 A 
ATOM     21  C   UNL     1      -4.660 -10.264  11.942  0.00  0.00    +0.069 A 
ATOM     22  C   UNL     1      -5.714  -8.566  10.585  0.00  0.00    +0.023 A 
ATOM     23  C   UNL     1      -3.790 -10.562  10.893  0.00  0.00    +0.122 A 
ATOM     24  C   UNL     1      -4.843  -8.863   9.536  0.00  0.00    +0.005 A 
ATOM     25  C   UNL     1      -3.881  -9.861   9.689  0.00  0.00    +0.046 A 
BRANCH  23   6
ATOM      6  O   UNL     1      -2.851 -11.537  11.042  0.00  0.00    -0.495 OA
ATOM     26  C   UNL     1      -2.249 -11.666  12.329  0.00  0.00    +0.277 C 
ENDBRANCH  23   6
ENDBRANCH   9  19
ENDBRANCH  10   8
BRANCH  13   3
ATOM      3  O   UNL     1     -10.328 -11.336  16.155  0.00  0.00    -0.388 OA
ATOM     29  H   UNL     1     -10.599 -11.549  15.246  0.00  0.00    +0.210 HD
ENDBRANCH  13   3
BRANCH  11   7
ATOM      7  N   UNL     1      -7.825  -9.183  17.687  0.00  0.00    -0.305 NA
ATOM     27  H   UNL     1      -7.742  -8.872  18.654  0.00  0.00    +0.123 HD
BRANCH   7  16
ATOM     16  C   UNL     1      -6.873 -10.259  17.458  0.00  0.00    +0.109 C 
BRANCH  16  18
ATOM     18  C   UNL     1      -5.625  -9.734  16.767  0.00  0.00    +0.174 C 
BRANCH  18   4
ATOM      4  O   UNL     1      -5.571 -10.270  15.452  0.00  0.00    -0.382 OA
ATOM     20  C   UNL     1      -5.662 -11.689  15.463  0.00  0.00    +0.194 C 
ENDBRANCH  18   4
ENDBRANCH  16  18
ENDBRANCH   7  16
ENDBRANCH  11   7
TORSDOF 8
ENDMDL
MODEL 10
REMARK VINA RESULT:      -5.8     15.634     18.324
REMARK  Name = 25314763
REMARK  10 active torsions:
REMARK  status: ('A' for Active; 'I' for Inactive)
REMARK    1  A    between atoms: O_3  and  C_13
REMARK    2  A    between atoms: O_4  and  C_18
REMARK    3  A    between atoms: O_4  and  C_20
REMARK    4  A    between atoms: O_6  and  C_23
REMARK    5  A    between atoms: O_6  and  C_26
REMARK    6  A    between atoms: N_7  and  C_11
REMARK    7  A    between atoms: N_7  and  C_16
REMARK    8  A    between atoms: N_8  and  C_10
REMARK    9  A    between atoms: N_9  and  C_19
REMARK   10  A    between atoms: C_16  and  C_18
REMARK                            x       y       z     vdW  Elec       q    Type
REMARK                         _______ _______ _______ _____ _____    ______ ____
ROOT
ATOM      1  O   UNL     1       9.747   7.939   5.257  0.00  0.00    -0.342 OA
ATOM      2  O   UNL     1       8.526   7.140   7.060  0.00  0.00    -0.347 OA
ATOM     10  C   UNL     1      10.514   5.653   5.240  0.00  0.00    +0.136 C 
ATOM     11  C   UNL     1      10.936   7.240   7.235  0.00  0.00    +0.141 C 
ATOM     12  C   UNL     1       9.340   6.606   4.932  0.00  0.00    +0.170 C 
ATOM     13  C   UNL     1      11.057   5.804   6.678  0.00  0.00    +0.159 C 
ATOM     14  C   UNL     1       9.670   7.926   6.689  0.00  0.00    +0.270 C 
ATOM     15  C   UNL     1       8.151   6.446   5.860  0.00  0.00    +0.196 C 
ENDROOT
BRANCH  10   8
ATOM      5  O   UNL     1      10.942   4.189   2.817  0.00  0.00    -0.252 OA
ATOM      8  N   UNL     1      11.578   5.860   4.282  0.00  0.00    -0.291 N 
ATOM      9  N   UNL     1      12.827   5.522   2.390  0.00  0.00    -0.269 N 
ATOM     17  C   UNL     1      11.714   5.097   3.120  0.00  0.00    +0.304 C 
ATOM     28  H   UNL     1      12.300   6.539   4.502  0.00  0.00    +0.151 HD
ATOM     30  H   UNL     1      13.363   6.291   2.783  0.00  0.00    +0.156 HD
BRANCH   9  19
ATOM     19  C   UNL     1      13.308   5.010   1.162  0.00  0.00    +0.038 A 
ATOM     21  C   UNL     1      14.651   4.659   1.031  0.00  0.00    +0.069 A 
ATOM     22  C   UNL     1      12.439   4.859   0.081  0.00  0.00    +0.023 A 
ATOM     23  C   UNL     1      15.125   4.156  -0.181  0.00  0.00    +0.122 A 
ATOM     24  C   UNL     1      12.913   4.357  -1.131  0.00  0.00    +0.005 A 
ATOM     25  C   UNL     1      14.256   4.005  -1.262  0.00  0.00    +0.046 A 
BRANCH  23   6
ATOM      6  O   UNL     1      16.436   3.811  -0.308  0.00  0.00    -0.495 OA
ATOM     26  C   UNL     1      17.159   4.399  -1.390  0.00  0.00    +0.277 C 
ENDBRANCH  23   6
ENDBRANCH   9  19
ENDBRANCH  10   8
BRANCH  13   3
ATOM      3  O   UNL     1      10.315   4.934   7.544  0.00  0.00    -0.388 OA
ATOM     29  H   UNL     1      10.189   5.399   8.389  0.00  0.00    +0.210 HD
ENDBRANCH  13   3
BRANCH  11   7
ATOM      7  N   UNL     1      12.119   8.023   6.874  0.00  0.00    -0.305 NA
ATOM     27  H   UNL     1      12.187   8.841   7.479  0.00  0.00    +0.123 HD
BRANCH   7  16
ATOM     16  C   UNL     1      13.327   7.227   7.023  0.00  0.00    +0.109 C 
BRANCH  16  18
ATOM     18  C   UNL     1      14.430   7.752   6.117  0.00  0.00    +0.174 C 
BRANCH  18   4
ATOM      4  O   UNL     1      14.252   7.204   4.818  0.00  0.00    -0.382 OA
ATOM     20  C   UNL     1      15.480   7.138   4.107  0.00  0.00    +0.194 C 
ENDBRANCH  18   4
ENDBRANCH  16  18
ENDBRANCH   7  16
ENDBRANCH  11   7
TORSDOF 8
ENDMDL
