REMARK  Name = 71693984
REMARK  8 active torsions:
REMARK  status: ('A' for Active; 'I' for Inactive)
REMARK    1  A    between atoms: O_4  and  C_11
REMARK    2  A    between atoms: O_5  and  C_13
REMARK    3  A    between atoms: N_7  and  C_10
REMARK    4  A    between atoms: C_9  and  C_14
REMARK    5  A    between atoms: C_15  and  C_18
REMARK    6  A    between atoms: C_18  and  C_21
REMARK    7  A    between atoms: C_18  and  C_22
REMARK    8  A    between atoms: C_20  and  C_23
REMARK                            x       y       z     vdW  Elec       q    Type
REMARK                         _______ _______ _______ _____ _____    ______ ____
ROOT
ATOM      9  C   UNL     1       0.997  -1.154   1.020  0.00  0.00    +0.046 C 
ATOM     10  C   UNL     1       2.047  -0.652   0.002  0.00  0.00    +0.111 C 
ATOM     11  C   UNL     1       3.150  -1.707   0.079  0.00  0.00    +0.164 C 
ATOM     12  C   UNL     1       1.243  -2.678   1.162  0.00  0.00    +0.044 C 
ATOM     13  C   UNL     1       2.372  -3.013   0.190  0.00  0.00    +0.145 C 
ENDROOT
BRANCH   9  14
ATOM      8  N   UNL     1      -2.477   0.360   1.196  0.00  0.00    -0.251 NA
ATOM     14  C   UNL     1      -0.421  -0.783   0.639  0.00  0.00    -0.024 A 
ATOM     16  C   UNL     1      -0.976  -1.214  -0.561  0.00  0.00    +0.007 A 
ATOM     17  C   UNL     1      -1.205  -0.006   1.475  0.00  0.00    +0.115 A 
ATOM     19  C   UNL     1      -2.281  -0.858  -0.883  0.00  0.00    +0.032 A 
ATOM     20  C   UNL     1      -2.983  -0.077   0.021  0.00  0.00    +0.144 A 
BRANCH  20  23
ATOM      1  F   UNL     1      -5.297  -0.115   0.625  0.00  0.00    -0.164 F 
ATOM      2  F   UNL     1      -4.566   1.677  -0.355  0.00  0.00    -0.164 F 
ATOM      3  F   UNL     1      -4.813  -0.159  -1.494  0.00  0.00    -0.164 F 
ATOM     23  C   UNL     1      -4.386   0.325  -0.292  0.00  0.00    +0.434 C 
ENDBRANCH  20  23
ENDBRANCH   9  14
BRANCH  10   7
ATOM      6  O   UNL     1       1.040   1.860  -0.974  0.00  0.00    -0.276 OA
ATOM      7  N   UNL     1       2.536   0.662   0.334  0.00  0.00    -0.309 N 
ATOM     15  C   UNL     1       1.985   1.826  -0.188  0.00  0.00    +0.216 C 
ATOM     24  H   UNL     1       3.287   0.735   1.014  0.00  0.00    +0.149 HD
BRANCH  15  18
ATOM     18  C   UNL     1       2.685   3.086   0.318  0.00  0.00    +0.069 C 
ATOM     21  C   UNL     1       3.858   3.438  -0.594  0.00  0.00    +0.017 C 
ATOM     22  C   UNL     1       1.711   4.258   0.410  0.00  0.00    +0.017 C 
ENDBRANCH  15  18
ENDBRANCH  10   7
BRANCH  11   4
ATOM      4  O   UNL     1       3.979  -1.701  -1.068  0.00  0.00    -0.387 OA
ATOM     25  H   UNL     1       4.590  -2.453  -0.990  0.00  0.00    +0.210 HD
ENDBRANCH  11   4
BRANCH  13   5
ATOM      5  O   UNL     1       1.802  -3.375  -1.064  0.00  0.00    -0.389 OA
ATOM     26  H   UNL     1       1.288  -4.189  -0.927  0.00  0.00    +0.210 HD
ENDBRANCH  13   5
TORSDOF 6
