MODEL 1
REMARK VINA RESULT:      -6.2      0.000      0.000
REMARK  Name = 75367638
REMARK  4 active torsions:
REMARK  status: ('A' for Active; 'I' for Inactive)
REMARK    1  A    between atoms: O_3  and  C_12
REMARK    2  A    between atoms: O_3  and  C_18
REMARK    3  A    between atoms: C_7  and  C_10
REMARK    4  A    between atoms: C_20  and  C_23
REMARK                            x       y       z     vdW  Elec       q    Type
REMARK                         _______ _______ _______ _____ _____    ______ ____
ROOT
ATOM      2  O   UNL     1      12.047   7.364  18.597  0.00  0.00    -0.375 OA
ATOM      4  O   UNL     1      11.686  11.726  20.823  0.00  0.00    -0.275 OA
ATOM      5  N   UNL     1      12.908   9.777  20.435  0.00  0.00    -0.295 N 
ATOM     10  C   UNL     1      12.427  10.826  21.231  0.00  0.00    +0.219 C 
ATOM     11  C   UNL     1      13.798   8.735  20.956  0.00  0.00    +0.154 C 
ATOM     12  C   UNL     1      13.959   7.468  20.113  0.00  0.00    +0.218 C 
ATOM     13  C   UNL     1      12.518   9.726  19.023  0.00  0.00    +0.136 C 
ATOM     16  C   UNL     1      12.628   6.805  19.769  0.00  0.00    +0.206 C 
ATOM     17  C   UNL     1      11.466   8.651  18.779  0.00  0.00    +0.179 C 
ENDROOT
BRANCH  10   7
ATOM      1  O   UNL     1      11.909  13.134  24.121  0.00  0.00    -0.380 OA
ATOM      7  C   UNL     1      12.852  10.823  22.669  0.00  0.00    +0.079 C 
ATOM      8  C   UNL     1      13.747  12.023  22.980  0.00  0.00    +0.041 C 
ATOM      9  C   UNL     1      11.625  10.784  23.580  0.00  0.00    +0.041 C 
ATOM     14  C   UNL     1      12.949  13.310  23.161  0.00  0.00    +0.160 C 
ATOM     15  C   UNL     1      10.962  12.151  23.707  0.00  0.00    +0.160 C 
ENDBRANCH  10   7
BRANCH  12   3
ATOM      3  O   UNL     1      14.728   6.533  20.872  0.00  0.00    -0.469 OA
BRANCH   3  18
ATOM      6  N   UNL     1      16.922   6.940  21.499  0.00  0.00    -0.218 NA
ATOM     18  C   UNL     1      16.061   6.457  20.577  0.00  0.00    +0.215 A 
ATOM     19  C   UNL     1      16.450   5.900  19.369  0.00  0.00    +0.067 A 
ATOM     20  C   UNL     1      18.237   6.860  21.194  0.00  0.00    +0.042 A 
ATOM     21  C   UNL     1      17.810   5.834  19.091  0.00  0.00    +0.007 A 
ATOM     22  C   UNL     1      18.728   6.321  20.016  0.00  0.00    +0.023 A 
ATOM     23  C   UNL     1      19.192   7.395  22.209  0.00  0.00    +0.066 C 
ENDBRANCH   3  18
ENDBRANCH  12   3
TORSDOF 3
ENDMDL
MODEL 2
REMARK VINA RESULT:      -6.1      1.759      2.009
REMARK  Name = 75367638
REMARK  4 active torsions:
REMARK  status: ('A' for Active; 'I' for Inactive)
REMARK    1  A    between atoms: O_3  and  C_12
REMARK    2  A    between atoms: O_3  and  C_18
REMARK    3  A    between atoms: C_7  and  C_10
REMARK    4  A    between atoms: C_20  and  C_23
REMARK                            x       y       z     vdW  Elec       q    Type
REMARK                         _______ _______ _______ _____ _____    ______ ____
ROOT
ATOM      2  O   UNL     1      11.868   6.148  20.573  0.00  0.00    -0.375 OA
ATOM      4  O   UNL     1      10.432  10.232  22.889  0.00  0.00    -0.275 OA
ATOM      5  N   UNL     1      11.527   9.240  21.085  0.00  0.00    -0.295 N 
ATOM     10  C   UNL     1      11.363  10.215  22.079  0.00  0.00    +0.219 C 
ATOM     11  C   UNL     1      12.641   9.265  20.131  0.00  0.00    +0.154 C 
ATOM     12  C   UNL     1      12.918   7.980  19.347  0.00  0.00    +0.218 C 
ATOM     13  C   UNL     1      10.541   8.161  20.985  0.00  0.00    +0.136 C 
ATOM     16  C   UNL     1      13.109   6.760  20.244  0.00  0.00    +0.206 C 
ATOM     17  C   UNL     1      11.095   6.854  21.538  0.00  0.00    +0.179 C 
ENDROOT
BRANCH  10   7
ATOM      1  O   UNL     1      11.473  13.684  23.458  0.00  0.00    -0.380 OA
ATOM      7  C   UNL     1      12.407  11.291  22.139  0.00  0.00    +0.079 C 
ATOM      8  C   UNL     1      11.959  12.534  21.371  0.00  0.00    +0.041 C 
ATOM      9  C   UNL     1      12.741  11.617  23.594  0.00  0.00    +0.041 C 
ATOM     14  C   UNL     1      10.964  13.378  22.162  0.00  0.00    +0.160 C 
ATOM     15  C   UNL     1      11.685  12.509  24.239  0.00  0.00    +0.160 C 
ENDBRANCH  10   7
BRANCH  12   3
ATOM      3  O   UNL     1      14.126   8.171  18.609  0.00  0.00    -0.469 OA
BRANCH   3  18
ATOM      6  N   UNL     1      15.850   8.696  20.068  0.00  0.00    -0.218 NA
ATOM     18  C   UNL     1      15.286   7.798  19.230  0.00  0.00    +0.215 A 
ATOM     19  C   UNL     1      15.813   6.542  18.970  0.00  0.00    +0.067 A 
ATOM     20  C   UNL     1      16.996   8.315  20.674  0.00  0.00    +0.042 A 
ATOM     21  C   UNL     1      16.993   6.186  19.613  0.00  0.00    +0.007 A 
ATOM     22  C   UNL     1      17.603   7.084  20.483  0.00  0.00    +0.023 A 
ATOM     23  C   UNL     1      17.624   9.304  21.599  0.00  0.00    +0.066 C 
ENDBRANCH   3  18
ENDBRANCH  12   3
TORSDOF 3
ENDMDL
MODEL 3
REMARK VINA RESULT:      -6.0     26.955     28.736
REMARK  Name = 75367638
REMARK  4 active torsions:
REMARK  status: ('A' for Active; 'I' for Inactive)
REMARK    1  A    between atoms: O_3  and  C_12
REMARK    2  A    between atoms: O_3  and  C_18
REMARK    3  A    between atoms: C_7  and  C_10
REMARK    4  A    between atoms: C_20  and  C_23
REMARK                            x       y       z     vdW  Elec       q    Type
REMARK                         _______ _______ _______ _____ _____    ______ ____
ROOT
ATOM      2  O   UNL     1      -2.940 -15.379  13.858  0.00  0.00    -0.375 OA
ATOM      4  O   UNL     1      -5.638 -13.531  17.520  0.00  0.00    -0.275 OA
ATOM      5  N   UNL     1      -4.413 -13.177  15.568  0.00  0.00    -0.295 N 
ATOM     10  C   UNL     1      -4.853 -12.847  16.857  0.00  0.00    +0.219 C 
ATOM     11  C   UNL     1      -3.490 -12.328  14.807  0.00  0.00    +0.154 C 
ATOM     12  C   UNL     1      -2.806 -12.955  13.589  0.00  0.00    +0.218 C 
ATOM     13  C   UNL     1      -4.903 -14.411  14.948  0.00  0.00    +0.136 C 
ATOM     16  C   UNL     1      -2.072 -14.253  13.917  0.00  0.00    +0.206 C 
ATOM     17  C   UNL     1      -3.835 -15.497  14.958  0.00  0.00    +0.179 C 
ENDROOT
BRANCH  10   7
ATOM      1  O   UNL     1      -6.164 -10.302  19.255  0.00  0.00    -0.380 OA
ATOM      7  C   UNL     1      -4.312 -11.577  17.443  0.00  0.00    +0.079 C 
ATOM      8  C   UNL     1      -5.168 -10.377  17.038  0.00  0.00    +0.041 C 
ATOM      9  C   UNL     1      -4.204 -11.705  18.963  0.00  0.00    +0.041 C 
ATOM     14  C   UNL     1      -6.450 -10.275  17.858  0.00  0.00    +0.160 C 
ATOM     15  C   UNL     1      -5.553 -11.529  19.651  0.00  0.00    +0.160 C 
ENDBRANCH  10   7
BRANCH  12   3
ATOM      3  O   UNL     1      -1.842 -12.021  13.101  0.00  0.00    -0.469 OA
BRANCH   3  18
ATOM      6  N   UNL     1      -3.303 -11.600  11.352  0.00  0.00    -0.218 NA
ATOM     18  C   UNL     1      -2.252 -11.190  12.095  0.00  0.00    +0.215 A 
ATOM     19  C   UNL     1      -1.578  -9.996  11.894  0.00  0.00    +0.067 A 
ATOM     20  C   UNL     1      -3.697 -10.771  10.359  0.00  0.00    +0.042 A 
ATOM     21  C   UNL     1      -2.012  -9.169  10.864  0.00  0.00    +0.007 A 
ATOM     22  C   UNL     1      -3.092  -9.557  10.077  0.00  0.00    +0.023 A 
ATOM     23  C   UNL     1      -4.857 -11.220   9.534  0.00  0.00    +0.066 C 
ENDBRANCH   3  18
ENDBRANCH  12   3
TORSDOF 3
ENDMDL
MODEL 4
REMARK VINA RESULT:      -6.0      3.072      6.789
REMARK  Name = 75367638
REMARK  4 active torsions:
REMARK  status: ('A' for Active; 'I' for Inactive)
REMARK    1  A    between atoms: O_3  and  C_12
REMARK    2  A    between atoms: O_3  and  C_18
REMARK    3  A    between atoms: C_7  and  C_10
REMARK    4  A    between atoms: C_20  and  C_23
REMARK                            x       y       z     vdW  Elec       q    Type
REMARK                         _______ _______ _______ _____ _____    ______ ____
ROOT
ATOM      2  O   UNL     1      10.988   7.336  22.311  0.00  0.00    -0.375 OA
ATOM      4  O   UNL     1      13.983   7.326  18.421  0.00  0.00    -0.275 OA
ATOM      5  N   UNL     1      13.036   8.486  20.208  0.00  0.00    -0.295 N 
ATOM     10  C   UNL     1      13.504   8.361  18.892  0.00  0.00    +0.219 C 
ATOM     11  C   UNL     1      12.486   9.740  20.734  0.00  0.00    +0.154 C 
ATOM     12  C   UNL     1      11.686   9.660  22.037  0.00  0.00    +0.218 C 
ATOM     13  C   UNL     1      13.112   7.325  21.098  0.00  0.00    +0.136 C 
ATOM     16  C   UNL     1      10.546   8.647  21.978  0.00  0.00    +0.206 C 
ATOM     17  C   UNL     1      11.742   6.687  21.292  0.00  0.00    +0.179 C 
ENDROOT
BRANCH  10   7
ATOM      1  O   UNL     1      12.848   8.941  15.262  0.00  0.00    -0.380 OA
ATOM      7  C   UNL     1      13.394   9.580  18.025  0.00  0.00    +0.079 C 
ATOM      8  C   UNL     1      14.478   9.586  16.947  0.00  0.00    +0.041 C 
ATOM      9  C   UNL     1      11.994   9.666  17.416  0.00  0.00    +0.041 C 
ATOM     14  C   UNL     1      14.145   8.659  15.783  0.00  0.00    +0.160 C 
ATOM     15  C   UNL     1      11.825   8.722  16.231  0.00  0.00    +0.160 C 
ENDBRANCH  10   7
BRANCH  12   3
ATOM      3  O   UNL     1      11.113  10.947  22.277  0.00  0.00    -0.469 OA
BRANCH   3  18
ATOM      6  N   UNL     1      12.769  11.396  23.835  0.00  0.00    -0.218 NA
ATOM     18  C   UNL     1      11.494  11.579  23.428  0.00  0.00    +0.215 A 
ATOM     19  C   UNL     1      10.567  12.357  24.105  0.00  0.00    +0.067 A 
ATOM     20  C   UNL     1      13.133  12.025  24.976  0.00  0.00    +0.042 A 
ATOM     21  C   UNL     1      10.978  12.988  25.273  0.00  0.00    +0.007 A 
ATOM     22  C   UNL     1      12.284  12.825  25.724  0.00  0.00    +0.023 A 
ATOM     23  C   UNL     1      14.540  11.825  25.431  0.00  0.00    +0.066 C 
ENDBRANCH   3  18
ENDBRANCH  12   3
TORSDOF 3
ENDMDL
MODEL 5
REMARK VINA RESULT:      -6.0     16.497     18.933
REMARK  Name = 75367638
REMARK  4 active torsions:
REMARK  status: ('A' for Active; 'I' for Inactive)
REMARK    1  A    between atoms: O_3  and  C_12
REMARK    2  A    between atoms: O_3  and  C_18
REMARK    3  A    between atoms: C_7  and  C_10
REMARK    4  A    between atoms: C_20  and  C_23
REMARK                            x       y       z     vdW  Elec       q    Type
REMARK                         _______ _______ _______ _____ _____    ______ ____
ROOT
ATOM      2  O   UNL     1      12.486   7.930   2.106  0.00  0.00    -0.375 OA
ATOM      4  O   UNL     1      11.682   7.107   6.879  0.00  0.00    -0.275 OA
ATOM      5  N   UNL     1      11.663   6.315   4.686  0.00  0.00    -0.295 N 
ATOM     10  C   UNL     1      11.156   6.435   5.987  0.00  0.00    +0.219 C 
ATOM     11  C   UNL     1      11.015   5.494   3.659  0.00  0.00    +0.154 C 
ATOM     12  C   UNL     1      11.442   5.725   2.207  0.00  0.00    +0.218 C 
ATOM     13  C   UNL     1      12.897   7.025   4.340  0.00  0.00    +0.136 C 
ATOM     16  C   UNL     1      11.322   7.183   1.772  0.00  0.00    +0.206 C 
ATOM     17  C   UNL     1      12.608   8.253   3.487  0.00  0.00    +0.179 C 
ENDROOT
BRANCH  10   7
ATOM      1  O   UNL     1       8.772   6.357   8.861  0.00  0.00    -0.380 OA
ATOM      7  C   UNL     1       9.886   5.692   6.281  0.00  0.00    +0.079 C 
ATOM      8  C   UNL     1      10.048   4.792   7.505  0.00  0.00    +0.041 C 
ATOM      9  C   UNL     1       8.730   6.677   6.454  0.00  0.00    +0.041 C 
ATOM     14  C   UNL     1       9.961   5.570   8.814  0.00  0.00    +0.160 C 
ATOM     15  C   UNL     1       8.742   7.339   7.827  0.00  0.00    +0.160 C 
ENDBRANCH  10   7
BRANCH  12   3
ATOM      3  O   UNL     1      10.581   4.949   1.370  0.00  0.00    -0.469 OA
BRANCH   3  18
ATOM      6  N   UNL     1      10.466   4.221  -0.827  0.00  0.00    -0.218 NA
ATOM     18  C   UNL     1      11.172   4.301   0.321  0.00  0.00    +0.215 A 
ATOM     19  C   UNL     1      12.441   3.769   0.490  0.00  0.00    +0.067 A 
ATOM     20  C   UNL     1      11.060   3.576  -1.856  0.00  0.00    +0.042 A 
ATOM     21  C   UNL     1      13.021   3.114  -0.591  0.00  0.00    +0.007 A 
ATOM     22  C   UNL     1      12.324   3.011  -1.790  0.00  0.00    +0.023 A 
ATOM     23  C   UNL     1      10.282   3.483  -3.126  0.00  0.00    +0.066 C 
ENDBRANCH   3  18
ENDBRANCH  12   3
TORSDOF 3
ENDMDL
MODEL 6
REMARK VINA RESULT:      -6.0      3.887      5.320
REMARK  Name = 75367638
REMARK  4 active torsions:
REMARK  status: ('A' for Active; 'I' for Inactive)
REMARK    1  A    between atoms: O_3  and  C_12
REMARK    2  A    between atoms: O_3  and  C_18
REMARK    3  A    between atoms: C_7  and  C_10
REMARK    4  A    between atoms: C_20  and  C_23
REMARK                            x       y       z     vdW  Elec       q    Type
REMARK                         _______ _______ _______ _____ _____    ______ ____
ROOT
ATOM      2  O   UNL     1      11.390   8.252  17.680  0.00  0.00    -0.375 OA
ATOM      4  O   UNL     1      13.423  11.278  14.390  0.00  0.00    -0.275 OA
ATOM      5  N   UNL     1      13.669   9.905  16.259  0.00  0.00    -0.295 N 
ATOM     10  C   UNL     1      13.933  11.047  15.490  0.00  0.00    +0.219 C 
ATOM     11  C   UNL     1      14.307   9.662  17.557  0.00  0.00    +0.154 C 
ATOM     12  C   UNL     1      13.681   8.591  18.454  0.00  0.00    +0.218 C 
ATOM     13  C   UNL     1      12.730   8.906  15.741  0.00  0.00    +0.136 C 
ATOM     16  C   UNL     1      12.194   8.817  18.709  0.00  0.00    +0.206 C 
ATOM     17  C   UNL     1      11.389   8.984  16.459  0.00  0.00    +0.179 C 
ENDROOT
BRANCH  10   7
ATOM      1  O   UNL     1      15.802  13.987  14.147  0.00  0.00    -0.380 OA
ATOM      7  C   UNL     1      14.896  12.038  16.075  0.00  0.00    +0.079 C 
ATOM      8  C   UNL     1      16.259  11.948  15.390  0.00  0.00    +0.041 C 
ATOM      9  C   UNL     1      14.313  13.449  15.988  0.00  0.00    +0.041 C 
ATOM     14  C   UNL     1      16.275  12.647  14.035  0.00  0.00    +0.160 C 
ATOM     15  C   UNL     1      14.447  14.040  14.589  0.00  0.00    +0.160 C 
ENDBRANCH  10   7
BRANCH  12   3
ATOM      3  O   UNL     1      14.351   8.633  19.716  0.00  0.00    -0.469 OA
BRANCH   3  18
ATOM      6  N   UNL     1      16.469   8.395  20.626  0.00  0.00    -0.218 NA
ATOM     18  C   UNL     1      15.502   7.903  19.820  0.00  0.00    +0.215 A 
ATOM     19  C   UNL     1      15.616   6.721  19.104  0.00  0.00    +0.067 A 
ATOM     20  C   UNL     1      17.603   7.665  20.719  0.00  0.00    +0.042 A 
ATOM     21  C   UNL     1      16.797   5.998  19.226  0.00  0.00    +0.007 A 
ATOM     22  C   UNL     1      17.815   6.472  20.047  0.00  0.00    +0.023 A 
ATOM     23  C   UNL     1      18.675   8.205  21.606  0.00  0.00    +0.066 C 
ENDBRANCH   3  18
ENDBRANCH  12   3
TORSDOF 3
ENDMDL
MODEL 7
REMARK VINA RESULT:      -5.9      3.037      3.877
REMARK  Name = 75367638
REMARK  4 active torsions:
REMARK  status: ('A' for Active; 'I' for Inactive)
REMARK    1  A    between atoms: O_3  and  C_12
REMARK    2  A    between atoms: O_3  and  C_18
REMARK    3  A    between atoms: C_7  and  C_10
REMARK    4  A    between atoms: C_20  and  C_23
REMARK                            x       y       z     vdW  Elec       q    Type
REMARK                         _______ _______ _______ _____ _____    ______ ____
ROOT
ATOM      2  O   UNL     1      12.089   6.268  20.739  0.00  0.00    -0.375 OA
ATOM      4  O   UNL     1      10.230  10.185  23.043  0.00  0.00    -0.275 OA
ATOM      5  N   UNL     1      11.561   9.319  21.336  0.00  0.00    -0.295 N 
ATOM     10  C   UNL     1      11.245  10.241  22.343  0.00  0.00    +0.219 C 
ATOM     11  C   UNL     1      12.772   9.430  20.516  0.00  0.00    +0.154 C 
ATOM     12  C   UNL     1      13.190   8.193  19.716  0.00  0.00    +0.218 C 
ATOM     13  C   UNL     1      10.640   8.209  21.080  0.00  0.00    +0.136 C 
ATOM     16  C   UNL     1      13.331   6.942  20.578  0.00  0.00    +0.206 C 
ATOM     17  C   UNL     1      11.183   6.899  21.638  0.00  0.00    +0.179 C 
ENDROOT
BRANCH  10   7
ATOM      1  O   UNL     1      11.030  13.681  23.779  0.00  0.00    -0.380 OA
ATOM      7  C   UNL     1      12.229  11.351  22.566  0.00  0.00    +0.079 C 
ATOM      8  C   UNL     1      11.845  12.593  21.763  0.00  0.00    +0.041 C 
ATOM      9  C   UNL     1      12.344  11.659  24.059  0.00  0.00    +0.041 C 
ATOM     14  C   UNL     1      10.718  13.384  22.419  0.00  0.00    +0.160 C 
ATOM     15  C   UNL     1      11.176  12.499  24.563  0.00  0.00    +0.160 C 
ENDBRANCH  10   7
BRANCH  12   3
ATOM      3  O   UNL     1      14.464   8.464  19.128  0.00  0.00    -0.469 OA
BRANCH   3  18
ATOM      6  N   UNL     1      14.812  10.349  17.825  0.00  0.00    -0.218 NA
ATOM     18  C   UNL     1      14.454   9.048  17.892  0.00  0.00    +0.215 A 
ATOM     19  C   UNL     1      14.082   8.288  16.793  0.00  0.00    +0.067 A 
ATOM     20  C   UNL     1      14.796  10.915  16.597  0.00  0.00    +0.042 A 
ATOM     21  C   UNL     1      14.079   8.904  15.547  0.00  0.00    +0.007 A 
ATOM     22  C   UNL     1      14.441  10.243  15.439  0.00  0.00    +0.023 A 
ATOM     23  C   UNL     1      15.188  12.353  16.519  0.00  0.00    +0.066 C 
ENDBRANCH   3  18
ENDBRANCH  12   3
TORSDOF 3
ENDMDL
MODEL 8
REMARK VINA RESULT:      -5.8     30.329     31.998
REMARK  Name = 75367638
REMARK  4 active torsions:
REMARK  status: ('A' for Active; 'I' for Inactive)
REMARK    1  A    between atoms: O_3  and  C_12
REMARK    2  A    between atoms: O_3  and  C_18
REMARK    3  A    between atoms: C_7  and  C_10
REMARK    4  A    between atoms: C_20  and  C_23
REMARK                            x       y       z     vdW  Elec       q    Type
REMARK                         _______ _______ _______ _____ _____    ______ ____
ROOT
ATOM      2  O   UNL     1      -7.124  -8.916  40.405  0.00  0.00    -0.375 OA
ATOM      4  O   UNL     1     -10.180  -5.261  39.217  0.00  0.00    -0.275 OA
ATOM      5  N   UNL     1      -8.049  -5.950  39.865  0.00  0.00    -0.295 N 
ATOM     10  C   UNL     1      -9.151  -5.085  39.876  0.00  0.00    +0.219 C 
ATOM     11  C   UNL     1      -6.838  -5.696  40.653  0.00  0.00    +0.154 C 
ATOM     12  C   UNL     1      -5.871  -6.867  40.846  0.00  0.00    +0.218 C 
ATOM     13  C   UNL     1      -8.099  -7.149  39.024  0.00  0.00    +0.136 C 
ATOM     16  C   UNL     1      -6.542  -8.110  41.423  0.00  0.00    +0.206 C 
ATOM     17  C   UNL     1      -8.334  -8.401  39.859  0.00  0.00    +0.179 C 
ENDROOT
BRANCH  10   7
ATOM      1  O   UNL     1     -11.328  -2.123  40.536  0.00  0.00    -0.380 OA
ATOM      7  C   UNL     1      -9.046  -3.879  40.762  0.00  0.00    +0.079 C 
ATOM      8  C   UNL     1      -9.018  -2.593  39.936  0.00  0.00    +0.041 C 
ATOM      9  C   UNL     1     -10.189  -3.872  41.777  0.00  0.00    +0.041 C 
ATOM     14  C   UNL     1     -10.406  -2.184  39.450  0.00  0.00    +0.160 C 
ATOM     15  C   UNL     1     -11.499  -3.393  41.163  0.00  0.00    +0.160 C 
ENDBRANCH  10   7
BRANCH  12   3
ATOM      3  O   UNL     1      -4.860  -6.451  41.766  0.00  0.00    -0.469 OA
BRANCH   3  18
ATOM      6  N   UNL     1      -3.225  -4.813  41.907  0.00  0.00    -0.218 NA
ATOM     18  C   UNL     1      -3.753  -5.855  41.228  0.00  0.00    +0.215 A 
ATOM     19  C   UNL     1      -3.242  -6.340  40.034  0.00  0.00    +0.067 A 
ATOM     20  C   UNL     1      -2.133  -4.231  41.364  0.00  0.00    +0.042 A 
ATOM     21  C   UNL     1      -2.117  -5.717  39.506  0.00  0.00    +0.007 A 
ATOM     22  C   UNL     1      -1.545  -4.641  40.178  0.00  0.00    +0.023 A 
ATOM     23  C   UNL     1      -1.548  -3.079  42.111  0.00  0.00    +0.066 C 
ENDBRANCH   3  18
ENDBRANCH  12   3
TORSDOF 3
ENDMDL
MODEL 9
REMARK VINA RESULT:      -5.8     15.319     18.488
REMARK  Name = 75367638
REMARK  4 active torsions:
REMARK  status: ('A' for Active; 'I' for Inactive)
REMARK    1  A    between atoms: O_3  and  C_12
REMARK    2  A    between atoms: O_3  and  C_18
REMARK    3  A    between atoms: C_7  and  C_10
REMARK    4  A    between atoms: C_20  and  C_23
REMARK                            x       y       z     vdW  Elec       q    Type
REMARK                         _______ _______ _______ _____ _____    ______ ____
ROOT
ATOM      2  O   UNL     1      14.410   8.897   4.512  0.00  0.00    -0.375 OA
ATOM      4  O   UNL     1      12.520   6.613   0.598  0.00  0.00    -0.275 OA
ATOM      5  N   UNL     1      12.470   7.009   2.896  0.00  0.00    -0.295 N 
ATOM     10  C   UNL     1      12.359   6.206   1.752  0.00  0.00    +0.219 C 
ATOM     11  C   UNL     1      12.256   6.488   4.249  0.00  0.00    +0.154 C 
ATOM     12  C   UNL     1      12.753   7.347   5.415  0.00  0.00    +0.218 C 
ATOM     13  C   UNL     1      12.798   8.428   2.733  0.00  0.00    +0.136 C 
ATOM     16  C   UNL     1      14.227   7.723   5.296  0.00  0.00    +0.206 C 
ATOM     17  C   UNL     1      14.248   8.706   3.111  0.00  0.00    +0.179 C 
ENDROOT
BRANCH  10   7
ATOM      1  O   UNL     1      12.356   3.151  -0.395  0.00  0.00    -0.380 OA
ATOM      7  C   UNL     1      12.028   4.760   1.980  0.00  0.00    +0.079 C 
ATOM      8  C   UNL     1      10.849   4.324   1.111  0.00  0.00    +0.041 C 
ATOM      9  C   UNL     1      13.263   3.894   1.731  0.00  0.00    +0.041 C 
ATOM     14  C   UNL     1      11.259   4.060  -0.335  0.00  0.00    +0.160 C 
ATOM     15  C   UNL     1      13.519   3.674   0.244  0.00  0.00    +0.160 C 
ENDBRANCH  10   7
BRANCH  12   3
ATOM      3  O   UNL     1      12.593   6.588   6.615  0.00  0.00    -0.469 OA
BRANCH   3  18
ATOM      6  N   UNL     1      11.009   5.597   7.987  0.00  0.00    -0.218 NA
ATOM     18  C   UNL     1      11.366   6.647   7.216  0.00  0.00    +0.215 A 
ATOM     19  C   UNL     1      10.568   7.761   7.005  0.00  0.00    +0.067 A 
ATOM     20  C   UNL     1       9.793   5.667   8.574  0.00  0.00    +0.042 A 
ATOM     21  C   UNL     1       9.325   7.798   7.625  0.00  0.00    +0.007 A 
ATOM     22  C   UNL     1       8.922   6.734   8.427  0.00  0.00    +0.023 A 
ATOM     23  C   UNL     1       9.393   4.507   9.424  0.00  0.00    +0.066 C 
ENDBRANCH   3  18
ENDBRANCH  12   3
TORSDOF 3
ENDMDL
MODEL 10
REMARK VINA RESULT:      -5.7     28.380     31.245
REMARK  Name = 75367638
REMARK  4 active torsions:
REMARK  status: ('A' for Active; 'I' for Inactive)
REMARK    1  A    between atoms: O_3  and  C_12
REMARK    2  A    between atoms: O_3  and  C_18
REMARK    3  A    between atoms: C_7  and  C_10
REMARK    4  A    between atoms: C_20  and  C_23
REMARK                            x       y       z     vdW  Elec       q    Type
REMARK                         _______ _______ _______ _____ _____    ______ ____
ROOT
ATOM      2  O   UNL     1     -16.443   6.085  33.973  0.00  0.00    -0.375 OA
ATOM      4  O   UNL     1     -15.381   1.572  32.359  0.00  0.00    -0.275 OA
ATOM      5  N   UNL     1     -14.747   3.801  32.613  0.00  0.00    -0.295 N 
ATOM     10  C   UNL     1     -14.829   2.585  31.921  0.00  0.00    +0.219 C 
ATOM     11  C   UNL     1     -14.070   4.979  32.061  0.00  0.00    +0.154 C 
ATOM     12  C   UNL     1     -14.355   6.326  32.730  0.00  0.00    +0.218 C 
ATOM     13  C   UNL     1     -15.349   3.898  33.945  0.00  0.00    +0.136 C 
ATOM     16  C   UNL     1     -15.844   6.650  32.813  0.00  0.00    +0.206 C 
ATOM     17  C   UNL     1     -16.656   4.679  33.906  0.00  0.00    +0.179 C 
ENDROOT
BRANCH  10   7
ATOM      1  O   UNL     1     -15.356   0.524  28.851  0.00  0.00    -0.380 OA
ATOM      7  C   UNL     1     -14.203   2.548  30.558  0.00  0.00    +0.079 C 
ATOM      8  C   UNL     1     -13.526   1.202  30.302  0.00  0.00    +0.041 C 
ATOM      9  C   UNL     1     -15.250   2.865  29.490  0.00  0.00    +0.041 C 
ATOM     14  C   UNL     1     -14.525   0.110  29.934  0.00  0.00    +0.160 C 
ATOM     15  C   UNL     1     -16.142   1.666  29.189  0.00  0.00    +0.160 C 
ENDBRANCH  10   7
BRANCH  12   3
ATOM      3  O   UNL     1     -13.731   7.344  31.945  0.00  0.00    -0.469 OA
BRANCH   3  18
ATOM      6  N   UNL     1     -12.870   8.216  33.912  0.00  0.00    -0.218 NA
ATOM     18  C   UNL     1     -12.776   8.098  32.570  0.00  0.00    +0.215 A 
ATOM     19  C   UNL     1     -11.783   8.692  31.806  0.00  0.00    +0.067 A 
ATOM     20  C   UNL     1     -11.921   8.965  34.518  0.00  0.00    +0.042 A 
ATOM     21  C   UNL     1     -10.825   9.454  32.464  0.00  0.00    +0.007 A 
ATOM     22  C   UNL     1     -10.888   9.598  33.846  0.00  0.00    +0.023 A 
ATOM     23  C   UNL     1     -12.022   9.101  36.001  0.00  0.00    +0.066 C 
ENDBRANCH   3  18
ENDBRANCH  12   3
TORSDOF 3
ENDMDL
