MODEL 1
REMARK VINA RESULT:      -8.2      0.000      0.000
REMARK  Name = 7673042
REMARK  3 active torsions:
REMARK  status: ('A' for Active; 'I' for Inactive)
REMARK    1  A    between atoms: N_4  and  C_12
REMARK    2  A    between atoms: C_21  and  C_24
REMARK    3  A    between atoms: C_23  and  C_25
REMARK                            x       y       z     vdW  Elec       q    Type
REMARK                         _______ _______ _______ _____ _____    ______ ____
ROOT
ATOM      2  O   UNL     1      -5.212 -12.736  10.469  0.00  0.00    -0.267 OA
ATOM      4  N   UNL     1      -3.966 -11.106  15.043  0.00  0.00    -0.298 NA
ATOM      5  N   UNL     1      -3.609 -12.035  12.013  0.00  0.00    -0.311 N 
ATOM      7  C   UNL     1      -3.129 -13.308  14.185  0.00  0.00    +0.024 C 
ATOM      8  C   UNL     1      -1.882 -11.263  13.674  0.00  0.00    +0.050 C 
ATOM      9  C   UNL     1      -1.725 -12.739  14.035  0.00  0.00    +0.017 C 
ATOM     10  C   UNL     1      -3.892 -12.550  15.292  0.00  0.00    +0.090 C 
ATOM     11  C   UNL     1      -2.633 -10.531  14.810  0.00  0.00    +0.094 C 
ATOM     13  C   UNL     1      -3.840 -13.237  12.826  0.00  0.00    +0.130 C 
ATOM     14  C   UNL     1      -2.624 -11.106  12.360  0.00  0.00    +0.026 A 
ATOM     19  C   UNL     1      -2.352 -10.075  11.545  0.00  0.00    +0.022 A 
ATOM     20  C   UNL     1      -4.356 -11.923  10.823  0.00  0.00    +0.260 A 
ATOM     21  C   UNL     1      -4.049 -10.737   9.950  0.00  0.00    +0.053 A 
ATOM     22  C   UNL     1      -3.081  -9.887  10.322  0.00  0.00    +0.016 A 
ENDROOT
BRANCH  21  24
ATOM      1  S   UNL     1      -5.922  -9.256   8.654  0.00  0.00    -0.088 S 
ATOM     24  C   UNL     1      -4.773 -10.518   8.738  0.00  0.00    +0.026 A 
ATOM     26  C   UNL     1      -4.689 -11.206   7.546  0.00  0.00    +0.024 A 
ATOM     27  C   UNL     1      -5.577 -10.701   6.537  0.00  0.00    -0.010 A 
ATOM     28  C   UNL     1      -6.321  -9.617   7.016  0.00  0.00    +0.020 A 
ATOM     29  C   UNL     1      -5.791 -11.121   5.203  0.00  0.00    +0.009 A 
ATOM     30  C   UNL     1      -7.262  -8.953   6.204  0.00  0.00    +0.015 A 
ATOM     31  C   UNL     1      -6.723 -10.465   4.395  0.00  0.00    +0.001 A 
ATOM     32  C   UNL     1      -7.449  -9.392   4.892  0.00  0.00    +0.001 A 
ENDBRANCH  21  24
BRANCH   4  12
ATOM      3  O   UNL     1      -7.636 -11.504  19.945  0.00  0.00    -0.276 OA
ATOM      6  N   UNL     1      -6.728 -10.342  18.149  0.00  0.00    -0.302 N 
ATOM     12  C   UNL     1      -4.647 -10.419  16.138  0.00  0.00    +0.060 C 
ATOM     15  C   UNL     1      -6.114 -10.163  15.768  0.00  0.00    +0.038 C 
ATOM     16  C   UNL     1      -4.558 -11.256  17.421  0.00  0.00    +0.038 C 
ATOM     17  C   UNL     1      -6.872  -9.530  16.935  0.00  0.00    +0.109 C 
ATOM     18  C   UNL     1      -5.346 -10.602  18.555  0.00  0.00    +0.109 C 
ATOM     23  C   UNL     1      -7.781 -10.823  18.927  0.00  0.00    +0.212 C 
ATOM     25  C   UNL     1      -9.174 -10.475  18.468  0.00  0.00    +0.109 C 
ENDBRANCH   4  12
TORSDOF 2
ENDMDL
MODEL 2
REMARK VINA RESULT:      -8.0      1.135      1.692
REMARK  Name = 7673042
REMARK  3 active torsions:
REMARK  status: ('A' for Active; 'I' for Inactive)
REMARK    1  A    between atoms: N_4  and  C_12
REMARK    2  A    between atoms: C_21  and  C_24
REMARK    3  A    between atoms: C_23  and  C_25
REMARK                            x       y       z     vdW  Elec       q    Type
REMARK                         _______ _______ _______ _____ _____    ______ ____
ROOT
ATOM      2  O   UNL     1      -6.258 -11.841   9.949  0.00  0.00    -0.267 OA
ATOM      4  N   UNL     1      -4.250 -11.008  14.467  0.00  0.00    -0.298 NA
ATOM      5  N   UNL     1      -4.398 -11.544  11.326  0.00  0.00    -0.311 N 
ATOM      7  C   UNL     1      -3.819 -13.150  13.237  0.00  0.00    +0.024 C 
ATOM      8  C   UNL     1      -2.391 -11.207  12.808  0.00  0.00    +0.050 C 
ATOM      9  C   UNL     1      -2.383 -12.727  12.961  0.00  0.00    +0.017 C 
ATOM     10  C   UNL     1      -4.333 -12.472  14.525  0.00  0.00    +0.090 C 
ATOM     11  C   UNL     1      -2.893 -10.560  14.119  0.00  0.00    +0.094 C 
ATOM     13  C   UNL     1      -4.679 -12.813  12.011  0.00  0.00    +0.130 C 
ATOM     14  C   UNL     1      -3.265 -10.788  11.641  0.00  0.00    +0.026 A 
ATOM     19  C   UNL     1      -2.966  -9.692  10.928  0.00  0.00    +0.022 A 
ATOM     20  C   UNL     1      -5.267 -11.186  10.276  0.00  0.00    +0.260 A 
ATOM     21  C   UNL     1      -4.921  -9.932   9.520  0.00  0.00    +0.053 A 
ATOM     22  C   UNL     1      -3.811  -9.256   9.852  0.00  0.00    +0.016 A 
ENDROOT
BRANCH  21  24
ATOM      1  S   UNL     1      -5.553 -10.100   6.883  0.00  0.00    -0.088 S 
ATOM     24  C   UNL     1      -5.755  -9.468   8.457  0.00  0.00    +0.026 A 
ATOM     26  C   UNL     1      -6.765  -8.529   8.499  0.00  0.00    +0.024 A 
ATOM     27  C   UNL     1      -7.392  -8.315   7.226  0.00  0.00    -0.010 A 
ATOM     28  C   UNL     1      -6.818  -9.123   6.238  0.00  0.00    +0.020 A 
ATOM     29  C   UNL     1      -8.449  -7.451   6.853  0.00  0.00    +0.009 A 
ATOM     30  C   UNL     1      -7.269  -9.087   4.903  0.00  0.00    +0.015 A 
ATOM     31  C   UNL     1      -8.898  -7.413   5.530  0.00  0.00    +0.001 A 
ATOM     32  C   UNL     1      -8.314  -8.224   4.568  0.00  0.00    +0.001 A 
ENDBRANCH  21  24
BRANCH   4  12
ATOM      3  O   UNL     1      -6.825 -11.795  19.980  0.00  0.00    -0.276 OA
ATOM      6  N   UNL     1      -6.315 -10.501  18.119  0.00  0.00    -0.302 N 
ATOM     12  C   UNL     1      -4.694 -10.407  15.722  0.00  0.00    +0.060 C 
ATOM     15  C   UNL     1      -6.207 -10.156  15.680  0.00  0.00    +0.038 C 
ATOM     16  C   UNL     1      -4.337 -11.323  16.900  0.00  0.00    +0.038 C 
ATOM     17  C   UNL     1      -6.711  -9.615  17.018  0.00  0.00    +0.109 C 
ATOM     18  C   UNL     1      -4.877 -10.760  18.213  0.00  0.00    +0.109 C 
ATOM     23  C   UNL     1      -7.181 -11.052  19.062  0.00  0.00    +0.212 C 
ATOM     25  C   UNL     1      -8.641 -10.703  18.924  0.00  0.00    +0.109 C 
ENDBRANCH   4  12
TORSDOF 2
ENDMDL
MODEL 3
REMARK VINA RESULT:      -7.8     21.168     24.430
REMARK  Name = 7673042
REMARK  3 active torsions:
REMARK  status: ('A' for Active; 'I' for Inactive)
REMARK    1  A    between atoms: N_4  and  C_12
REMARK    2  A    between atoms: C_21  and  C_24
REMARK    3  A    between atoms: C_23  and  C_25
REMARK                            x       y       z     vdW  Elec       q    Type
REMARK                         _______ _______ _______ _____ _____    ______ ____
ROOT
ATOM      2  O   UNL     1     -15.934   2.134  25.111  0.00  0.00    -0.267 OA
ATOM      4  N   UNL     1     -15.519   6.383  22.483  0.00  0.00    -0.298 NA
ATOM      5  N   UNL     1     -16.850   4.117  24.290  0.00  0.00    -0.311 N 
ATOM      7  C   UNL     1     -17.119   4.583  21.784  0.00  0.00    +0.024 C 
ATOM      8  C   UNL     1     -17.833   6.263  23.417  0.00  0.00    +0.050 C 
ATOM      9  C   UNL     1     -18.301   5.437  22.221  0.00  0.00    +0.017 C 
ATOM     10  C   UNL     1     -15.929   5.486  21.395  0.00  0.00    +0.090 C 
ATOM     11  C   UNL     1     -16.655   7.167  22.990  0.00  0.00    +0.094 C 
ATOM     13  C   UNL     1     -16.771   3.604  22.914  0.00  0.00    +0.130 C 
ATOM     14  C   UNL     1     -17.421   5.362  24.566  0.00  0.00    +0.026 A 
ATOM     19  C   UNL     1     -17.586   5.761  25.836  0.00  0.00    +0.022 A 
ATOM     20  C   UNL     1     -16.415   3.250  25.313  0.00  0.00    +0.260 A 
ATOM     21  C   UNL     1     -16.584   3.744  26.723  0.00  0.00    +0.053 A 
ATOM     22  C   UNL     1     -17.156   4.939  26.932  0.00  0.00    +0.016 A 
ENDROOT
BRANCH  21  24
ATOM      1  S   UNL     1     -16.752   1.367  28.029  0.00  0.00    -0.088 S 
ATOM     24  C   UNL     1     -16.147   2.953  27.830  0.00  0.00    +0.026 A 
ATOM     26  C   UNL     1     -15.257   3.284  28.831  0.00  0.00    +0.024 A 
ATOM     27  C   UNL     1     -15.059   2.228  29.783  0.00  0.00    -0.010 A 
ATOM     28  C   UNL     1     -15.827   1.105  29.459  0.00  0.00    +0.020 A 
ATOM     29  C   UNL     1     -14.241   2.170  30.937  0.00  0.00    +0.009 A 
ATOM     30  C   UNL     1     -15.798  -0.060  30.252  0.00  0.00    +0.015 A 
ATOM     31  C   UNL     1     -14.210   1.016  31.724  0.00  0.00    +0.001 A 
ATOM     32  C   UNL     1     -14.981  -0.086  31.383  0.00  0.00    +0.001 A 
ENDBRANCH  21  24
BRANCH   4  12
ATOM      3  O   UNL     1     -12.786   9.442  17.919  0.00  0.00    -0.276 OA
ATOM      6  N   UNL     1     -12.747   8.344  19.967  0.00  0.00    -0.302 N 
ATOM     12  C   UNL     1     -14.428   7.256  22.058  0.00  0.00    +0.060 C 
ATOM     15  C   UNL     1     -13.310   6.426  21.411  0.00  0.00    +0.038 C 
ATOM     16  C   UNL     1     -14.949   8.310  21.073  0.00  0.00    +0.038 C 
ATOM     17  C   UNL     1     -12.199   7.328  20.874  0.00  0.00    +0.109 C 
ATOM     18  C   UNL     1     -13.807   9.174  20.542  0.00  0.00    +0.109 C 
ATOM     23  C   UNL     1     -12.310   8.581  18.664  0.00  0.00    +0.212 C 
ATOM     25  C   UNL     1     -11.184   7.714  18.160  0.00  0.00    +0.109 C 
ENDBRANCH   4  12
TORSDOF 2
ENDMDL
MODEL 4
REMARK VINA RESULT:      -7.6      6.705     11.194
REMARK  Name = 7673042
REMARK  3 active torsions:
REMARK  status: ('A' for Active; 'I' for Inactive)
REMARK    1  A    between atoms: N_4  and  C_12
REMARK    2  A    between atoms: C_21  and  C_24
REMARK    3  A    between atoms: C_23  and  C_25
REMARK                            x       y       z     vdW  Elec       q    Type
REMARK                         _______ _______ _______ _____ _____    ______ ____
ROOT
ATOM      2  O   UNL     1      -9.982 -10.659  15.221  0.00  0.00    -0.267 OA
ATOM      4  N   UNL     1     -12.491  -6.727  13.383  0.00  0.00    -0.298 NA
ATOM      5  N   UNL     1     -11.497  -8.905  15.490  0.00  0.00    -0.311 N 
ATOM      7  C   UNL     1     -13.702  -8.767  14.193  0.00  0.00    +0.024 C 
ATOM      8  C   UNL     1     -13.118  -7.002  15.786  0.00  0.00    +0.050 C 
ATOM      9  C   UNL     1     -14.204  -8.011  15.414  0.00  0.00    +0.017 C 
ATOM     10  C   UNL     1     -13.444  -7.786  13.030  0.00  0.00    +0.090 C 
ATOM     11  C   UNL     1     -12.898  -6.024  14.610  0.00  0.00    +0.094 C 
ATOM     13  C   UNL     1     -12.447  -9.561  14.582  0.00  0.00    +0.130 C 
ATOM     14  C   UNL     1     -11.823  -7.710  16.138  0.00  0.00    +0.026 A 
ATOM     19  C   UNL     1     -10.989  -7.187  17.049  0.00  0.00    +0.022 A 
ATOM     20  C   UNL     1     -10.293  -9.590  15.749  0.00  0.00    +0.260 A 
ATOM     21  C   UNL     1      -9.365  -8.957  16.750  0.00  0.00    +0.053 A 
ATOM     22  C   UNL     1      -9.738  -7.820  17.355  0.00  0.00    +0.016 A 
ENDROOT
BRANCH  21  24
ATOM      1  S   UNL     1      -7.968 -10.585  18.417  0.00  0.00    -0.088 S 
ATOM     24  C   UNL     1      -8.106  -9.558  17.058  0.00  0.00    +0.026 A 
ATOM     26  C   UNL     1      -6.904  -9.435  16.393  0.00  0.00    +0.024 A 
ATOM     27  C   UNL     1      -5.843 -10.191  16.997  0.00  0.00    -0.010 A 
ATOM     28  C   UNL     1      -6.294 -10.878  18.129  0.00  0.00    +0.020 A 
ATOM     29  C   UNL     1      -4.484 -10.329  16.628  0.00  0.00    +0.009 A 
ATOM     30  C   UNL     1      -5.429 -11.689  18.891  0.00  0.00    +0.015 A 
ATOM     31  C   UNL     1      -3.624 -11.133  17.381  0.00  0.00    +0.001 A 
ATOM     32  C   UNL     1      -4.095 -11.805  18.500  0.00  0.00    +0.001 A 
ENDBRANCH  21  24
BRANCH   4  12
ATOM      3  O   UNL     1     -14.860  -2.204   9.979  0.00  0.00    -0.276 OA
ATOM      6  N   UNL     1     -13.439  -4.018  10.281  0.00  0.00    -0.302 N 
ATOM     12  C   UNL     1     -12.316  -5.789  12.277  0.00  0.00    +0.060 C 
ATOM     15  C   UNL     1     -12.999  -6.331  11.014  0.00  0.00    +0.038 C 
ATOM     16  C   UNL     1     -12.895  -4.419  12.652  0.00  0.00    +0.038 C 
ATOM     17  C   UNL     1     -12.910  -5.323   9.868  0.00  0.00    +0.109 C 
ATOM     18  C   UNL     1     -12.809  -3.449  11.474  0.00  0.00    +0.109 C 
ATOM     23  C   UNL     1     -14.431  -3.301   9.613  0.00  0.00    +0.212 C 
ATOM     25  C   UNL     1     -14.999  -3.934   8.367  0.00  0.00    +0.109 C 
ENDBRANCH   4  12
TORSDOF 2
ENDMDL
MODEL 5
REMARK VINA RESULT:      -7.2      2.392      8.790
REMARK  Name = 7673042
REMARK  3 active torsions:
REMARK  status: ('A' for Active; 'I' for Inactive)
REMARK    1  A    between atoms: N_4  and  C_12
REMARK    2  A    between atoms: C_21  and  C_24
REMARK    3  A    between atoms: C_23  and  C_25
REMARK                            x       y       z     vdW  Elec       q    Type
REMARK                         _______ _______ _______ _____ _____    ______ ____
ROOT
ATOM      2  O   UNL     1      -5.039  -9.867  16.552  0.00  0.00    -0.267 OA
ATOM      4  N   UNL     1      -3.236 -11.152  12.054  0.00  0.00    -0.298 NA
ATOM      5  N   UNL     1      -4.088 -11.440  15.113  0.00  0.00    -0.311 N 
ATOM      7  C   UNL     1      -1.761 -11.145  14.082  0.00  0.00    +0.024 C 
ATOM      8  C   UNL     1      -3.078 -13.141  13.558  0.00  0.00    +0.050 C 
ATOM      9  C   UNL     1      -1.727 -12.666  14.088  0.00  0.00    +0.017 C 
ATOM     10  C   UNL     1      -2.001 -10.625  12.648  0.00  0.00    +0.090 C 
ATOM     11  C   UNL     1      -3.279 -12.621  12.116  0.00  0.00    +0.094 C 
ATOM     13  C   UNL     1      -2.838 -10.669  15.067  0.00  0.00    +0.130 C 
ATOM     14  C   UNL     1      -4.206 -12.667  14.455  0.00  0.00    +0.026 A 
ATOM     19  C   UNL     1      -5.315 -13.408  14.602  0.00  0.00    +0.022 A 
ATOM     20  C   UNL     1      -5.116 -10.929  15.933  0.00  0.00    +0.260 A 
ATOM     21  C   UNL     1      -6.358 -11.769  16.047  0.00  0.00    +0.053 A 
ATOM     22  C   UNL     1      -6.410 -12.948  15.408  0.00  0.00    +0.016 A 
ENDROOT
BRANCH  21  24
ATOM      1  S   UNL     1      -8.585 -10.217  16.161  0.00  0.00    -0.088 S 
ATOM     24  C   UNL     1      -7.469 -11.325  16.829  0.00  0.00    +0.026 A 
ATOM     26  C   UNL     1      -7.807 -11.667  18.121  0.00  0.00    +0.024 A 
ATOM     27  C   UNL     1      -9.001 -11.018  18.585  0.00  0.00    -0.010 A 
ATOM     28  C   UNL     1      -9.538 -10.184  17.597  0.00  0.00    +0.020 A 
ATOM     29  C   UNL     1      -9.671 -11.099  19.828  0.00  0.00    +0.009 A 
ATOM     30  C   UNL     1     -10.713  -9.440  17.822  0.00  0.00    +0.015 A 
ATOM     31  C   UNL     1     -10.837 -10.362  20.054  0.00  0.00    +0.001 A 
ATOM     32  C   UNL     1     -11.350  -9.543  19.060  0.00  0.00    +0.001 A 
ENDBRANCH  21  24
BRANCH   4  12
ATOM      3  O   UNL     1      -6.821  -8.435   7.880  0.00  0.00    -0.276 OA
ATOM      6  N   UNL     1      -5.104  -9.881   8.483  0.00  0.00    -0.302 N 
ATOM     12  C   UNL     1      -3.398 -10.682  10.680  0.00  0.00    +0.060 C 
ATOM     15  C   UNL     1      -4.192 -11.710   9.863  0.00  0.00    +0.038 C 
ATOM     16  C   UNL     1      -4.112  -9.324  10.669  0.00  0.00    +0.038 C 
ATOM     17  C   UNL     1      -4.456 -11.197   8.447  0.00  0.00    +0.109 C 
ATOM     18  C   UNL     1      -4.378  -8.858   9.239  0.00  0.00    +0.109 C 
ATOM     23  C   UNL     1      -6.294  -9.550   7.836  0.00  0.00    +0.212 C 
ATOM     25  C   UNL     1      -6.959 -10.646   7.041  0.00  0.00    +0.109 C 
ENDBRANCH   4  12
TORSDOF 2
ENDMDL
MODEL 6
REMARK VINA RESULT:      -7.2     19.836     23.010
REMARK  Name = 7673042
REMARK  3 active torsions:
REMARK  status: ('A' for Active; 'I' for Inactive)
REMARK    1  A    between atoms: N_4  and  C_12
REMARK    2  A    between atoms: C_21  and  C_24
REMARK    3  A    between atoms: C_23  and  C_25
REMARK                            x       y       z     vdW  Elec       q    Type
REMARK                         _______ _______ _______ _____ _____    ______ ____
ROOT
ATOM      2  O   UNL     1      -6.563   9.787   5.443  0.00  0.00    -0.267 OA
ATOM      4  N   UNL     1      -1.822  10.559   4.009  0.00  0.00    -0.298 NA
ATOM      5  N   UNL     1      -4.280   9.344   5.637  0.00  0.00    -0.311 N 
ATOM      7  C   UNL     1      -2.577  11.129   6.330  0.00  0.00    +0.024 C 
ATOM      8  C   UNL     1      -1.819   8.854   5.836  0.00  0.00    +0.050 C 
ATOM      9  C   UNL     1      -1.795   9.953   6.897  0.00  0.00    +0.017 C 
ATOM     10  C   UNL     1      -1.925  11.618   5.019  0.00  0.00    +0.090 C 
ATOM     11  C   UNL     1      -1.143   9.369   4.545  0.00  0.00    +0.094 C 
ATOM     13  C   UNL     1      -4.040  10.705   6.137  0.00  0.00    +0.130 C 
ATOM     14  C   UNL     1      -3.242   8.412   5.550  0.00  0.00    +0.026 A 
ATOM     19  C   UNL     1      -3.502   7.144   5.200  0.00  0.00    +0.022 A 
ATOM     20  C   UNL     1      -5.617   9.003   5.351  0.00  0.00    +0.260 A 
ATOM     21  C   UNL     1      -5.868   7.581   4.927  0.00  0.00    +0.053 A 
ATOM     22  C   UNL     1      -4.837   6.724   4.879  0.00  0.00    +0.016 A 
ENDROOT
BRANCH  21  24
ATOM      1  S   UNL     1      -8.027   6.094   5.636  0.00  0.00    -0.088 S 
ATOM     24  C   UNL     1      -7.184   7.144   4.585  0.00  0.00    +0.026 A 
ATOM     26  C   UNL     1      -7.934   7.452   3.469  0.00  0.00    +0.024 A 
ATOM     27  C   UNL     1      -9.224   6.823   3.463  0.00  0.00    -0.010 A 
ATOM     28  C   UNL     1      -9.409   6.040   4.608  0.00  0.00    +0.020 A 
ATOM     29  C   UNL     1     -10.274   6.883   2.516  0.00  0.00    +0.009 A 
ATOM     30  C   UNL     1     -10.604   5.323   4.824  0.00  0.00    +0.015 A 
ATOM     31  C   UNL     1     -11.459   6.173   2.728  0.00  0.00    +0.001 A 
ATOM     32  C   UNL     1     -11.620   5.404   3.871  0.00  0.00    +0.001 A 
ENDBRANCH  21  24
BRANCH   4  12
ATOM      3  O   UNL     1       2.816   9.952   0.037  0.00  0.00    -0.276 OA
ATOM      6  N   UNL     1       1.210  11.218   1.140  0.00  0.00    -0.302 N 
ATOM     12  C   UNL     1      -1.151  11.046   2.806  0.00  0.00    +0.060 C 
ATOM     15  C   UNL     1       0.041  11.932   3.190  0.00  0.00    +0.038 C 
ATOM     16  C   UNL     1      -0.683   9.863   1.948  0.00  0.00    +0.038 C 
ATOM     17  C   UNL     1       0.816  12.377   1.950  0.00  0.00    +0.109 C 
ATOM     18  C   UNL     1       0.105  10.348   0.733  0.00  0.00    +0.109 C 
ATOM     23  C   UNL     1       2.509  10.933   0.719  0.00  0.00    +0.212 C 
ATOM     25  C   UNL     1       3.584  11.901   1.141  0.00  0.00    +0.109 C 
ENDBRANCH   4  12
TORSDOF 2
ENDMDL
MODEL 7
REMARK VINA RESULT:      -7.1     19.908     23.083
REMARK  Name = 7673042
REMARK  3 active torsions:
REMARK  status: ('A' for Active; 'I' for Inactive)
REMARK    1  A    between atoms: N_4  and  C_12
REMARK    2  A    between atoms: C_21  and  C_24
REMARK    3  A    between atoms: C_23  and  C_25
REMARK                            x       y       z     vdW  Elec       q    Type
REMARK                         _______ _______ _______ _____ _____    ______ ____
ROOT
ATOM      2  O   UNL     1      -6.705   9.773   5.315  0.00  0.00    -0.267 OA
ATOM      4  N   UNL     1      -1.952  10.462   3.877  0.00  0.00    -0.298 NA
ATOM      5  N   UNL     1      -4.426   9.326   5.539  0.00  0.00    -0.311 N 
ATOM      7  C   UNL     1      -2.717  11.128   6.170  0.00  0.00    +0.024 C 
ATOM      8  C   UNL     1      -1.969   8.831   5.770  0.00  0.00    +0.050 C 
ATOM      9  C   UNL     1      -1.944   9.971   6.786  0.00  0.00    +0.017 C 
ATOM     10  C   UNL     1      -2.055  11.561   4.844  0.00  0.00    +0.090 C 
ATOM     11  C   UNL     1      -1.283   9.291   4.463  0.00  0.00    +0.094 C 
ATOM     13  C   UNL     1      -4.181  10.705   5.985  0.00  0.00    +0.130 C 
ATOM     14  C   UNL     1      -3.392   8.386   5.495  0.00  0.00    +0.026 A 
ATOM     19  C   UNL     1      -3.658   7.106   5.193  0.00  0.00    +0.022 A 
ATOM     20  C   UNL     1      -5.763   8.980   5.259  0.00  0.00    +0.260 A 
ATOM     21  C   UNL     1      -6.019   7.545   4.890  0.00  0.00    +0.053 A 
ATOM     22  C   UNL     1      -4.993   6.681   4.882  0.00  0.00    +0.016 A 
ENDROOT
BRANCH  21  24
ATOM      1  S   UNL     1      -8.255   6.239   5.713  0.00  0.00    -0.088 S 
ATOM     24  C   UNL     1      -7.336   7.101   4.559  0.00  0.00    +0.026 A 
ATOM     26  C   UNL     1      -8.032   7.267   3.380  0.00  0.00    +0.024 A 
ATOM     27  C   UNL     1      -9.343   6.681   3.409  0.00  0.00    -0.010 A 
ATOM     28  C   UNL     1      -9.598   6.077   4.645  0.00  0.00    +0.020 A 
ATOM     29  C   UNL     1     -10.354   6.634   2.420  0.00  0.00    +0.009 A 
ATOM     30  C   UNL     1     -10.824   5.435   4.911  0.00  0.00    +0.015 A 
ATOM     31  C   UNL     1     -11.570   5.998   2.681  0.00  0.00    +0.001 A 
ATOM     32  C   UNL     1     -11.800   5.406   3.914  0.00  0.00    +0.001 A 
ENDBRANCH  21  24
BRANCH   4  12
ATOM      3  O   UNL     1      -2.382  12.003  -2.047  0.00  0.00    -0.276 OA
ATOM      6  N   UNL     1      -1.208  11.172  -0.222  0.00  0.00    -0.302 N 
ATOM     12  C   UNL     1      -1.273  10.897   2.659  0.00  0.00    +0.060 C 
ATOM     15  C   UNL     1      -1.014   9.694   1.742  0.00  0.00    +0.038 C 
ATOM     16  C   UNL     1      -2.118  11.951   1.932  0.00  0.00    +0.038 C 
ATOM     17  C   UNL     1      -0.388  10.137   0.420  0.00  0.00    +0.109 C 
ATOM     18  C   UNL     1      -1.471  12.350   0.606  0.00  0.00    +0.109 C 
ATOM     23  C   UNL     1      -1.694  11.120  -1.528  0.00  0.00    +0.212 C 
ATOM     25  C   UNL     1      -1.343   9.894  -2.333  0.00  0.00    +0.109 C 
ENDBRANCH   4  12
TORSDOF 2
ENDMDL
MODEL 8
REMARK VINA RESULT:      -7.1      3.312      8.475
REMARK  Name = 7673042
REMARK  3 active torsions:
REMARK  status: ('A' for Active; 'I' for Inactive)
REMARK    1  A    between atoms: N_4  and  C_12
REMARK    2  A    between atoms: C_21  and  C_24
REMARK    3  A    between atoms: C_23  and  C_25
REMARK                            x       y       z     vdW  Elec       q    Type
REMARK                         _______ _______ _______ _____ _____    ______ ____
ROOT
ATOM      2  O   UNL     1      -7.909  -8.856  17.416  0.00  0.00    -0.267 OA
ATOM      4  N   UNL     1      -4.381 -11.891  15.551  0.00  0.00    -0.298 NA
ATOM      5  N   UNL     1      -6.856 -10.936  17.322  0.00  0.00    -0.311 N 
ATOM      7  C   UNL     1      -4.404 -11.278  17.982  0.00  0.00    +0.024 C 
ATOM      8  C   UNL     1      -5.731 -13.185  17.208  0.00  0.00    +0.050 C 
ATOM      9  C   UNL     1      -4.854 -12.684  18.353  0.00  0.00    +0.017 C 
ATOM     10  C   UNL     1      -3.613 -11.307  16.657  0.00  0.00    +0.090 C 
ATOM     11  C   UNL     1      -4.905 -13.219  15.902  0.00  0.00    +0.094 C 
ATOM     13  C   UNL     1      -5.637 -10.366  17.912  0.00  0.00    +0.130 C 
ATOM     14  C   UNL     1      -6.953 -12.302  17.040  0.00  0.00    +0.026 A 
ATOM     19  C   UNL     1      -8.113 -12.821  16.608  0.00  0.00    +0.022 A 
ATOM     20  C   UNL     1      -7.947 -10.059  17.152  0.00  0.00    +0.260 A 
ATOM     21  C   UNL     1      -9.220 -10.668  16.633  0.00  0.00    +0.053 A 
ATOM     22  C   UNL     1      -9.263 -11.988  16.398  0.00  0.00    +0.016 A 
ENDROOT
BRANCH  21  24
ATOM      1  S   UNL     1     -10.380  -8.753  15.094  0.00  0.00    -0.088 S 
ATOM     24  C   UNL     1     -10.373  -9.857  16.398  0.00  0.00    +0.026 A 
ATOM     26  C   UNL     1     -11.559  -9.818  17.101  0.00  0.00    +0.024 A 
ATOM     27  C   UNL     1     -12.499  -8.871  16.571  0.00  0.00    -0.010 A 
ATOM     28  C   UNL     1     -11.976  -8.210  15.455  0.00  0.00    +0.020 A 
ATOM     29  C   UNL     1     -13.806  -8.534  16.997  0.00  0.00    +0.009 A 
ATOM     30  C   UNL     1     -12.718  -7.231  14.764  0.00  0.00    +0.015 A 
ATOM     31  C   UNL     1     -14.545  -7.565  16.313  0.00  0.00    +0.001 A 
ATOM     32  C   UNL     1     -14.004  -6.923  15.208  0.00  0.00    +0.001 A 
ENDBRANCH  21  24
BRANCH   4  12
ATOM      3  O   UNL     1      -2.533  -9.102  10.407  0.00  0.00    -0.276 OA
ATOM      6  N   UNL     1      -3.001 -11.005  11.656  0.00  0.00    -0.302 N 
ATOM     12  C   UNL     1      -3.581 -11.950  14.331  0.00  0.00    +0.060 C 
ATOM     15  C   UNL     1      -4.469 -12.322  13.136  0.00  0.00    +0.038 C 
ATOM     16  C   UNL     1      -2.893 -10.600  14.085  0.00  0.00    +0.038 C 
ATOM     17  C   UNL     1      -3.672 -12.298  11.832  0.00  0.00    +0.109 C 
ATOM     18  C   UNL     1      -2.127 -10.610  12.763  0.00  0.00    +0.109 C 
ATOM     23  C   UNL     1      -3.108 -10.187  10.532  0.00  0.00    +0.212 C 
ATOM     25  C   UNL     1      -3.991 -10.684   9.416  0.00  0.00    +0.109 C 
ENDBRANCH   4  12
TORSDOF 2
ENDMDL
MODEL 9
REMARK VINA RESULT:      -7.0      3.910     10.788
REMARK  Name = 7673042
REMARK  3 active torsions:
REMARK  status: ('A' for Active; 'I' for Inactive)
REMARK    1  A    between atoms: N_4  and  C_12
REMARK    2  A    between atoms: C_21  and  C_24
REMARK    3  A    between atoms: C_23  and  C_25
REMARK                            x       y       z     vdW  Elec       q    Type
REMARK                         _______ _______ _______ _____ _____    ______ ____
ROOT
ATOM      2  O   UNL     1      -5.722 -12.619  10.838  0.00  0.00    -0.267 OA
ATOM      4  N   UNL     1      -4.900 -12.663   5.893  0.00  0.00    -0.298 NA
ATOM      5  N   UNL     1      -5.885 -11.613   8.739  0.00  0.00    -0.311 N 
ATOM      7  C   UNL     1      -7.232 -12.637   6.814  0.00  0.00    +0.024 C 
ATOM      8  C   UNL     1      -6.047 -10.521   6.477  0.00  0.00    +0.050 C 
ATOM      9  C   UNL     1      -7.415 -11.193   6.369  0.00  0.00    +0.017 C 
ATOM     10  C   UNL     1      -6.200 -13.345   5.910  0.00  0.00    +0.090 C 
ATOM     11  C   UNL     1      -5.044 -11.240   5.547  0.00  0.00    +0.094 C 
ATOM     13  C   UNL     1      -6.825 -12.652   8.294  0.00  0.00    +0.130 C 
ATOM     14  C   UNL     1      -5.550 -10.539   7.910  0.00  0.00    +0.026 A 
ATOM     19  C   UNL     1      -4.780  -9.543   8.375  0.00  0.00    +0.022 A 
ATOM     20  C   UNL     1      -5.425 -11.704  10.068  0.00  0.00    +0.260 A 
ATOM     21  C   UNL     1      -4.536 -10.588  10.545  0.00  0.00    +0.053 A 
ATOM     22  C   UNL     1      -4.262  -9.572   9.713  0.00  0.00    +0.016 A 
ENDROOT
BRANCH  21  24
ATOM      1  S   UNL     1      -2.299 -10.595  12.086  0.00  0.00    -0.088 S 
ATOM     24  C   UNL     1      -3.994 -10.603  11.867  0.00  0.00    +0.026 A 
ATOM     26  C   UNL     1      -4.660 -10.625  13.074  0.00  0.00    +0.024 A 
ATOM     27  C   UNL     1      -3.778 -10.636  14.207  0.00  0.00    -0.010 A 
ATOM     28  C   UNL     1      -2.439 -10.620  13.804  0.00  0.00    +0.020 A 
ATOM     29  C   UNL     1      -4.060 -10.657  15.594  0.00  0.00    +0.009 A 
ATOM     30  C   UNL     1      -1.388 -10.627  14.743  0.00  0.00    +0.015 A 
ATOM     31  C   UNL     1      -3.020 -10.664  16.527  0.00  0.00    +0.001 A 
ATOM     32  C   UNL     1      -1.699 -10.648  16.103  0.00  0.00    +0.001 A 
ENDBRANCH  21  24
BRANCH   4  12
ATOM      3  O   UNL     1      -2.341 -12.896   0.321  0.00  0.00    -0.276 OA
ATOM      6  N   UNL     1      -3.043 -13.890   2.301  0.00  0.00    -0.302 N 
ATOM     12  C   UNL     1      -3.970 -13.330   4.986  0.00  0.00    +0.060 C 
ATOM     15  C   UNL     1      -4.735 -14.278   4.052  0.00  0.00    +0.038 C 
ATOM     16  C   UNL     1      -3.192 -12.290   4.170  0.00  0.00    +0.038 C 
ATOM     17  C   UNL     1      -3.795 -14.918   3.031  0.00  0.00    +0.109 C 
ATOM     18  C   UNL     1      -2.283 -12.968   3.146  0.00  0.00    +0.109 C 
ATOM     23  C   UNL     1      -2.981 -13.770   0.913  0.00  0.00    +0.212 C 
ATOM     25  C   UNL     1      -3.755 -14.785   0.111  0.00  0.00    +0.109 C 
ENDBRANCH   4  12
TORSDOF 2
ENDMDL
MODEL 10
REMARK VINA RESULT:      -7.0      3.033      9.773
REMARK  Name = 7673042
REMARK  3 active torsions:
REMARK  status: ('A' for Active; 'I' for Inactive)
REMARK    1  A    between atoms: N_4  and  C_12
REMARK    2  A    between atoms: C_21  and  C_24
REMARK    3  A    between atoms: C_23  and  C_25
REMARK                            x       y       z     vdW  Elec       q    Type
REMARK                         _______ _______ _______ _____ _____    ______ ____
ROOT
ATOM      2  O   UNL     1      -6.964  -9.554  13.473  0.00  0.00    -0.267 OA
ATOM      4  N   UNL     1      -5.458 -11.253   9.003  0.00  0.00    -0.298 NA
ATOM      5  N   UNL     1      -5.360  -9.694  11.783  0.00  0.00    -0.311 N 
ATOM      7  C   UNL     1      -5.762  -8.799   9.416  0.00  0.00    +0.024 C 
ATOM      8  C   UNL     1      -3.624  -9.857   9.968  0.00  0.00    +0.050 C 
ATOM      9  C   UNL     1      -4.255  -8.588   9.399  0.00  0.00    +0.017 C 
ATOM     10  C   UNL     1      -6.136 -10.029   8.561  0.00  0.00    +0.090 C 
ATOM     11  C   UNL     1      -4.001 -11.064   9.080  0.00  0.00    +0.094 C 
ATOM     13  C   UNL     1      -6.227  -8.933  10.873  0.00  0.00    +0.130 C 
ATOM     14  C   UNL     1      -4.076 -10.088  11.398  0.00  0.00    +0.026 A 
ATOM     19  C   UNL     1      -3.259 -10.682  12.281  0.00  0.00    +0.022 A 
ATOM     20  C   UNL     1      -5.850  -9.913  13.087  0.00  0.00    +0.260 A 
ATOM     21  C   UNL     1      -4.920 -10.612  14.041  0.00  0.00    +0.053 A 
ATOM     22  C   UNL     1      -3.691 -10.951  13.623  0.00  0.00    +0.016 A 
ENDROOT
BRANCH  21  24
ATOM      1  S   UNL     1      -6.372 -12.233  15.667  0.00  0.00    -0.088 S 
ATOM     24  C   UNL     1      -5.334 -10.907  15.376  0.00  0.00    +0.026 A 
ATOM     26  C   UNL     1      -5.010 -10.252  16.546  0.00  0.00    +0.024 A 
ATOM     27  C   UNL     1      -5.617 -10.837  17.708  0.00  0.00    -0.010 A 
ATOM     28  C   UNL     1      -6.399 -11.945  17.367  0.00  0.00    +0.020 A 
ATOM     29  C   UNL     1      -5.537 -10.469  19.073  0.00  0.00    +0.009 A 
ATOM     30  C   UNL     1      -7.095 -12.684  18.344  0.00  0.00    +0.015 A 
ATOM     31  C   UNL     1      -6.226 -11.201  20.044  0.00  0.00    +0.001 A 
ATOM     32  C   UNL     1      -6.995 -12.296  19.681  0.00  0.00    +0.001 A 
ENDBRANCH  21  24
BRANCH   4  12
ATOM      3  O   UNL     1      -3.814 -14.908   4.356  0.00  0.00    -0.276 OA
ATOM      6  N   UNL     1      -5.413 -13.863   5.680  0.00  0.00    -0.302 N 
ATOM     12  C   UNL     1      -5.794 -12.380   8.137  0.00  0.00    +0.060 C 
ATOM     15  C   UNL     1      -6.339 -11.870   6.797  0.00  0.00    +0.038 C 
ATOM     16  C   UNL     1      -4.556 -13.258   7.911  0.00  0.00    +0.038 C 
ATOM     17  C   UNL     1      -6.610 -13.029   5.837  0.00  0.00    +0.109 C 
ATOM     18  C   UNL     1      -4.861 -14.390   6.930  0.00  0.00    +0.109 C 
ATOM     23  C   UNL     1      -4.821 -14.203   4.464  0.00  0.00    +0.212 C 
ATOM     25  C   UNL     1      -5.474 -13.659   3.219  0.00  0.00    +0.109 C 
ENDBRANCH   4  12
TORSDOF 2
ENDMDL
