MODEL 1
REMARK VINA RESULT:      -7.6      0.000      0.000
REMARK  Name = 26744100
REMARK  7 active torsions:
REMARK  status: ('A' for Active; 'I' for Inactive)
REMARK    1  A    between atoms: O_1  and  C_9
REMARK    2  A    between atoms: O_3  and  C_15
REMARK    3  A    between atoms: N_4  and  C_11
REMARK    4  A    between atoms: C_7  and  C_12
REMARK    5  A    between atoms: C_11  and  C_13
REMARK    6  A    between atoms: C_14  and  C_17
REMARK    7  A    between atoms: C_17  and  C_21
REMARK                            x       y       z     vdW  Elec       q    Type
REMARK                         _______ _______ _______ _____ _____    ______ ____
ROOT
ATOM      4  N   UNL     1      12.617   8.646  18.687  0.00  0.00    -0.284 NA
ATOM      7  C   UNL     1      13.540   7.502  18.550  0.00  0.00    +0.149 C 
ATOM      8  C   UNL     1      14.122   7.634  17.130  0.00  0.00    +0.061 C 
ATOM      9  C   UNL     1      13.432   8.854  16.533  0.00  0.00    +0.130 C 
ATOM     10  C   UNL     1      12.152   8.969  17.340  0.00  0.00    +0.116 C 
ENDROOT
BRANCH   7  12
ATOM      2  O   UNL     1      14.421   6.619  20.652  0.00  0.00    -0.336 OA
ATOM      5  N   UNL     1      15.709   8.190  19.709  0.00  0.00    -0.194 NA
ATOM      6  N   UNL     1      15.521   6.782  21.502  0.00  0.00    -0.061 NA
ATOM     12  C   UNL     1      14.610   7.483  19.621  0.00  0.00    +0.245 A 
ATOM     14  C   UNL     1      16.235   7.724  20.878  0.00  0.00    +0.176 A 
BRANCH  14  17
ATOM     17  C   UNL     1      17.503   8.226  21.421  0.00  0.00    +0.114 C 
BRANCH  17  21
ATOM     21  C   UNL     1      18.655   7.228  21.381  0.00  0.00    -0.040 A 
ATOM     22  C   UNL     1      18.739   6.301  20.342  0.00  0.00    +0.004 A 
ATOM     23  C   UNL     1      19.625   7.242  22.383  0.00  0.00    +0.004 A 
ATOM     24  C   UNL     1      19.793   5.388  20.305  0.00  0.00    +0.000 A 
ATOM     25  C   UNL     1      20.679   6.329  22.346  0.00  0.00    +0.000 A 
ATOM     26  C   UNL     1      20.763   5.402  21.307  0.00  0.00    +0.000 A 
ENDBRANCH  17  21
ENDBRANCH  14  17
ENDBRANCH   7  12
BRANCH   9   1
ATOM      1  O   UNL     1      13.170   8.660  15.157  0.00  0.00    -0.390 OA
ATOM     27  H   UNL     1      13.212   9.530  14.725  0.00  0.00    +0.210 HD
ENDBRANCH   9   1
BRANCH   4  11
ATOM     11  C   UNL     1      11.512   8.386  19.601  0.00  0.00    +0.124 C 
BRANCH  11  13
ATOM     13  C   UNL     1      11.509   9.341  20.765  0.00  0.00    +0.008 A 
ATOM     15  C   UNL     1      10.767   9.063  21.913  0.00  0.00    +0.121 A 
ATOM     16  C   UNL     1      12.260  10.514  20.686  0.00  0.00    +0.008 A 
ATOM     18  C   UNL     1      10.775   9.958  22.982  0.00  0.00    +0.046 A 
ATOM     19  C   UNL     1      12.268  11.409  21.756  0.00  0.00    +0.001 A 
ATOM     20  C   UNL     1      11.525  11.131  22.904  0.00  0.00    +0.004 A 
BRANCH  15   3
ATOM      3  O   UNL     1      10.028   7.922  22.006  0.00  0.00    -0.506 OA
ATOM     28  H   UNL     1      10.354   7.392  22.754  0.00  0.00    +0.292 HD
ENDBRANCH  15   3
ENDBRANCH  11  13
ENDBRANCH   4  11
TORSDOF 7
ENDMDL
MODEL 2
REMARK VINA RESULT:      -7.4      2.154      3.849
REMARK  Name = 26744100
REMARK  7 active torsions:
REMARK  status: ('A' for Active; 'I' for Inactive)
REMARK    1  A    between atoms: O_1  and  C_9
REMARK    2  A    between atoms: O_3  and  C_15
REMARK    3  A    between atoms: N_4  and  C_11
REMARK    4  A    between atoms: C_7  and  C_12
REMARK    5  A    between atoms: C_11  and  C_13
REMARK    6  A    between atoms: C_14  and  C_17
REMARK    7  A    between atoms: C_17  and  C_21
REMARK                            x       y       z     vdW  Elec       q    Type
REMARK                         _______ _______ _______ _____ _____    ______ ____
ROOT
ATOM      4  N   UNL     1      12.595   8.851  21.576  0.00  0.00    -0.284 NA
ATOM      7  C   UNL     1      13.066   7.453  21.638  0.00  0.00    +0.149 C 
ATOM      8  C   UNL     1      11.792   6.602  21.481  0.00  0.00    +0.061 C 
ATOM      9  C   UNL     1      10.653   7.609  21.383  0.00  0.00    +0.130 C 
ATOM     10  C   UNL     1      11.215   8.846  22.058  0.00  0.00    +0.116 C 
ENDROOT
BRANCH   7  12
ATOM      2  O   UNL     1      13.903   7.666  19.352  0.00  0.00    -0.336 OA
ATOM      5  N   UNL     1      15.204   6.428  20.691  0.00  0.00    -0.194 NA
ATOM      6  N   UNL     1      14.984   7.247  18.566  0.00  0.00    -0.061 NA
ATOM     12  C   UNL     1      14.111   7.142  20.588  0.00  0.00    +0.245 A 
ATOM     14  C   UNL     1      15.706   6.522  19.426  0.00  0.00    +0.176 A 
BRANCH  14  17
ATOM     17  C   UNL     1      16.959   5.868  19.030  0.00  0.00    +0.114 C 
BRANCH  17  21
ATOM     21  C   UNL     1      18.155   6.184  19.922  0.00  0.00    -0.040 A 
ATOM     22  C   UNL     1      19.227   5.294  19.992  0.00  0.00    +0.004 A 
ATOM     23  C   UNL     1      18.177   7.363  20.667  0.00  0.00    +0.004 A 
ATOM     24  C   UNL     1      20.321   5.583  20.807  0.00  0.00    +0.000 A 
ATOM     25  C   UNL     1      19.271   7.652  21.482  0.00  0.00    +0.000 A 
ATOM     26  C   UNL     1      20.344   6.762  21.552  0.00  0.00    +0.000 A 
ENDBRANCH  17  21
ENDBRANCH  14  17
ENDBRANCH   7  12
BRANCH   9   1
ATOM      1  O   UNL     1       9.499   7.129  22.044  0.00  0.00    -0.390 OA
ATOM     27  H   UNL     1       9.606   6.169  22.158  0.00  0.00    +0.210 HD
ENDBRANCH   9   1
BRANCH   4  11
ATOM     11  C   UNL     1      13.435   9.774  22.327  0.00  0.00    +0.124 C 
BRANCH  11  13
ATOM     13  C   UNL     1      14.534  10.353  21.476  0.00  0.00    +0.008 A 
ATOM     15  C   UNL     1      14.235  11.044  20.302  0.00  0.00    +0.121 A 
ATOM     16  C   UNL     1      15.861  10.192  21.872  0.00  0.00    +0.008 A 
ATOM     18  C   UNL     1      15.264  11.575  19.523  0.00  0.00    +0.046 A 
ATOM     19  C   UNL     1      16.891  10.722  21.094  0.00  0.00    +0.001 A 
ATOM     20  C   UNL     1      16.592  11.413  19.920  0.00  0.00    +0.004 A 
BRANCH  15   3
ATOM      3  O   UNL     1      12.944  11.210  19.899  0.00  0.00    -0.506 OA
ATOM     28  H   UNL     1      12.775  10.637  19.131  0.00  0.00    +0.292 HD
ENDBRANCH  15   3
ENDBRANCH  11  13
ENDBRANCH   4  11
TORSDOF 7
ENDMDL
MODEL 3
REMARK VINA RESULT:      -7.1      2.899      7.664
REMARK  Name = 26744100
REMARK  7 active torsions:
REMARK  status: ('A' for Active; 'I' for Inactive)
REMARK    1  A    between atoms: O_1  and  C_9
REMARK    2  A    between atoms: O_3  and  C_15
REMARK    3  A    between atoms: N_4  and  C_11
REMARK    4  A    between atoms: C_7  and  C_12
REMARK    5  A    between atoms: C_11  and  C_13
REMARK    6  A    between atoms: C_14  and  C_17
REMARK    7  A    between atoms: C_17  and  C_21
REMARK                            x       y       z     vdW  Elec       q    Type
REMARK                         _______ _______ _______ _____ _____    ______ ____
ROOT
ATOM      4  N   UNL     1      12.893   8.021  21.070  0.00  0.00    -0.284 NA
ATOM      7  C   UNL     1      11.554   8.620  20.906  0.00  0.00    +0.149 C 
ATOM      8  C   UNL     1      10.571   7.492  21.273  0.00  0.00    +0.061 C 
ATOM      9  C   UNL     1      11.451   6.287  21.583  0.00  0.00    +0.130 C 
ATOM     10  C   UNL     1      12.738   6.587  20.838  0.00  0.00    +0.116 C 
ENDROOT
BRANCH   7  12
ATOM      2  O   UNL     1      10.997   9.663  23.045  0.00  0.00    -0.336 OA
ATOM      5  N   UNL     1      11.495  11.120  21.419  0.00  0.00    -0.194 NA
ATOM      6  N   UNL     1      10.881  10.937  23.615  0.00  0.00    -0.061 NA
ATOM     12  C   UNL     1      11.362   9.861  21.752  0.00  0.00    +0.245 A 
ATOM     14  C   UNL     1      11.190  11.742  22.595  0.00  0.00    +0.176 A 
BRANCH  14  17
ATOM     17  C   UNL     1      11.198  13.203  22.733  0.00  0.00    +0.114 C 
BRANCH  17  21
ATOM     21  C   UNL     1      11.578  13.713  24.119  0.00  0.00    -0.040 A 
ATOM     22  C   UNL     1      12.915  13.720  24.517  0.00  0.00    +0.004 A 
ATOM     23  C   UNL     1      10.588  14.172  24.988  0.00  0.00    +0.004 A 
ATOM     24  C   UNL     1      13.263  14.187  25.785  0.00  0.00    +0.000 A 
ATOM     25  C   UNL     1      10.936  14.638  26.256  0.00  0.00    +0.000 A 
ATOM     26  C   UNL     1      12.273  14.646  26.654  0.00  0.00    +0.000 A 
ENDBRANCH  17  21
ENDBRANCH  14  17
ENDBRANCH   7  12
BRANCH   9   1
ATOM      1  O   UNL     1      10.846   5.093  21.129  0.00  0.00    -0.390 OA
ATOM     27  H   UNL     1      11.556   4.498  20.835  0.00  0.00    +0.210 HD
ENDBRANCH   9   1
BRANCH   4  11
ATOM     11  C   UNL     1      13.898   8.612  20.195  0.00  0.00    +0.124 C 
BRANCH  11  13
ATOM     13  C   UNL     1      15.177   7.819  20.193  0.00  0.00    +0.008 A 
ATOM     15  C   UNL     1      16.068   7.900  21.263  0.00  0.00    +0.121 A 
ATOM     16  C   UNL     1      15.467   6.996  19.104  0.00  0.00    +0.008 A 
ATOM     18  C   UNL     1      17.249   7.159  21.245  0.00  0.00    +0.046 A 
ATOM     19  C   UNL     1      16.649   6.255  19.086  0.00  0.00    +0.001 A 
ATOM     20  C   UNL     1      17.540   6.336  20.156  0.00  0.00    +0.004 A 
BRANCH  15   3
ATOM      3  O   UNL     1      15.800   8.699  22.334  0.00  0.00    -0.506 OA
ATOM     28  H   UNL     1      15.376   8.166  23.029  0.00  0.00    +0.292 HD
ENDBRANCH  15   3
ENDBRANCH  11  13
ENDBRANCH   4  11
TORSDOF 7
ENDMDL
MODEL 4
REMARK VINA RESULT:      -7.0     31.103     32.571
REMARK  Name = 26744100
REMARK  7 active torsions:
REMARK  status: ('A' for Active; 'I' for Inactive)
REMARK    1  A    between atoms: O_1  and  C_9
REMARK    2  A    between atoms: O_3  and  C_15
REMARK    3  A    between atoms: N_4  and  C_11
REMARK    4  A    between atoms: C_7  and  C_12
REMARK    5  A    between atoms: C_11  and  C_13
REMARK    6  A    between atoms: C_14  and  C_17
REMARK    7  A    between atoms: C_17  and  C_21
REMARK                            x       y       z     vdW  Elec       q    Type
REMARK                         _______ _______ _______ _____ _____    ______ ____
ROOT
ATOM      4  N   UNL     1     -17.019   3.360  27.001  0.00  0.00    -0.284 NA
ATOM      7  C   UNL     1     -17.065   1.884  27.015  0.00  0.00    +0.149 C 
ATOM      8  C   UNL     1     -16.397   1.458  25.694  0.00  0.00    +0.061 C 
ATOM      9  C   UNL     1     -16.051   2.763  24.987  0.00  0.00    +0.130 C 
ATOM     10  C   UNL     1     -17.015   3.763  25.597  0.00  0.00    +0.116 C 
ENDROOT
BRANCH   7  12
ATOM      2  O   UNL     1     -16.986   0.205  28.789  0.00  0.00    -0.336 OA
ATOM      5  N   UNL     1     -15.294   1.673  28.842  0.00  0.00    -0.194 NA
ATOM      6  N   UNL     1     -16.190  -0.157  29.882  0.00  0.00    -0.061 NA
ATOM     12  C   UNL     1     -16.388   1.290  28.232  0.00  0.00    +0.245 A 
ATOM     14  C   UNL     1     -15.213   0.754  29.848  0.00  0.00    +0.176 A 
BRANCH  14  17
ATOM     17  C   UNL     1     -14.125   0.766  30.832  0.00  0.00    +0.114 C 
BRANCH  17  21
ATOM     21  C   UNL     1     -14.121   1.971  31.767  0.00  0.00    -0.040 A 
ATOM     22  C   UNL     1     -13.426   3.127  31.410  0.00  0.00    +0.004 A 
ATOM     23  C   UNL     1     -14.811   1.917  32.978  0.00  0.00    +0.004 A 
ATOM     24  C   UNL     1     -13.422   4.230  32.265  0.00  0.00    +0.000 A 
ATOM     25  C   UNL     1     -14.807   3.020  33.832  0.00  0.00    +0.000 A 
ATOM     26  C   UNL     1     -14.113   4.176  33.476  0.00  0.00    +0.000 A 
ENDBRANCH  17  21
ENDBRANCH  14  17
ENDBRANCH   7  12
BRANCH   9   1
ATOM      1  O   UNL     1     -16.232   2.640  23.591  0.00  0.00    -0.390 OA
ATOM     27  H   UNL     1     -15.482   3.083  23.158  0.00  0.00    +0.210 HD
ENDBRANCH   9   1
BRANCH   4  11
ATOM     11  C   UNL     1     -18.110   3.976  27.746  0.00  0.00    +0.124 C 
BRANCH  11  13
ATOM     13  C   UNL     1     -17.629   4.613  29.022  0.00  0.00    +0.008 A 
ATOM     15  C   UNL     1     -17.084   5.897  29.016  0.00  0.00    +0.121 A 
ATOM     16  C   UNL     1     -17.732   3.904  30.219  0.00  0.00    +0.008 A 
ATOM     18  C   UNL     1     -16.642   6.472  30.208  0.00  0.00    +0.046 A 
ATOM     19  C   UNL     1     -17.291   4.480  31.411  0.00  0.00    +0.001 A 
ATOM     20  C   UNL     1     -16.746   5.764  31.405  0.00  0.00    +0.004 A 
BRANCH  15   3
ATOM      3  O   UNL     1     -16.975   6.602  27.856  0.00  0.00    -0.506 OA
ATOM     28  H   UNL     1     -17.838   6.998  27.643  0.00  0.00    +0.292 HD
ENDBRANCH  15   3
ENDBRANCH  11  13
ENDBRANCH   4  11
TORSDOF 7
ENDMDL
MODEL 5
REMARK VINA RESULT:      -7.0     14.053     17.596
REMARK  Name = 26744100
REMARK  7 active torsions:
REMARK  status: ('A' for Active; 'I' for Inactive)
REMARK    1  A    between atoms: O_1  and  C_9
REMARK    2  A    between atoms: O_3  and  C_15
REMARK    3  A    between atoms: N_4  and  C_11
REMARK    4  A    between atoms: C_7  and  C_12
REMARK    5  A    between atoms: C_11  and  C_13
REMARK    6  A    between atoms: C_14  and  C_17
REMARK    7  A    between atoms: C_17  and  C_21
REMARK                            x       y       z     vdW  Elec       q    Type
REMARK                         _______ _______ _______ _____ _____    ______ ____
ROOT
ATOM      4  N   UNL     1      10.888   7.276   5.032  0.00  0.00    -0.284 NA
ATOM      7  C   UNL     1      11.024   7.318   3.562  0.00  0.00    +0.149 C 
ATOM      8  C   UNL     1      12.187   8.294   3.302  0.00  0.00    +0.061 C 
ATOM      9  C   UNL     1      12.610   8.781   4.683  0.00  0.00    +0.130 C 
ATOM     10  C   UNL     1      11.371   8.562   5.530  0.00  0.00    +0.116 C 
ENDROOT
BRANCH   7  12
ATOM      2  O   UNL     1      10.154   5.219   2.663  0.00  0.00    -0.336 OA
ATOM      5  N   UNL     1      12.390   5.353   2.674  0.00  0.00    -0.194 NA
ATOM      6  N   UNL     1      10.619   4.012   2.126  0.00  0.00    -0.061 NA
ATOM     12  C   UNL     1      11.260   5.950   2.958  0.00  0.00    +0.245 A 
ATOM     14  C   UNL     1      11.946   4.167   2.166  0.00  0.00    +0.176 A 
BRANCH  14  17
ATOM     17  C   UNL     1      12.865   3.125   1.694  0.00  0.00    +0.114 C 
BRANCH  17  21
ATOM     21  C   UNL     1      13.845   3.576   0.617  0.00  0.00    -0.040 A 
ATOM     22  C   UNL     1      13.395   3.807  -0.683  0.00  0.00    +0.004 A 
ATOM     23  C   UNL     1      15.192   3.758   0.931  0.00  0.00    +0.004 A 
ATOM     24  C   UNL     1      14.291   4.221  -1.669  0.00  0.00    +0.000 A 
ATOM     25  C   UNL     1      16.088   4.171  -0.055  0.00  0.00    +0.000 A 
ATOM     26  C   UNL     1      15.638   4.402  -1.355  0.00  0.00    +0.000 A 
ENDBRANCH  17  21
ENDBRANCH  14  17
ENDBRANCH   7  12
BRANCH   9   1
ATOM      1  O   UNL     1      12.985  10.143   4.641  0.00  0.00    -0.390 OA
ATOM     27  H   UNL     1      13.929  10.180   4.412  0.00  0.00    +0.210 HD
ENDBRANCH   9   1
BRANCH   4  11
ATOM     11  C   UNL     1       9.530   6.990   5.476  0.00  0.00    +0.124 C 
BRANCH  11  13
ATOM     13  C   UNL     1       9.513   6.135   6.715  0.00  0.00    +0.008 A 
ATOM     15  C   UNL     1       9.848   4.783   6.652  0.00  0.00    +0.121 A 
ATOM     16  C   UNL     1       9.156   6.710   7.935  0.00  0.00    +0.008 A 
ATOM     18  C   UNL     1       9.827   4.005   7.810  0.00  0.00    +0.046 A 
ATOM     19  C   UNL     1       9.135   5.932   9.093  0.00  0.00    +0.001 A 
ATOM     20  C   UNL     1       9.470   4.579   9.030  0.00  0.00    +0.004 A 
BRANCH  15   3
ATOM      3  O   UNL     1      10.198   4.205   5.469  0.00  0.00    -0.506 OA
ATOM     28  H   UNL     1      10.760   4.823   4.968  0.00  0.00    +0.292 HD
ENDBRANCH  15   3
ENDBRANCH  11  13
ENDBRANCH   4  11
TORSDOF 7
ENDMDL
MODEL 6
REMARK VINA RESULT:      -6.9     27.718     31.515
REMARK  Name = 26744100
REMARK  7 active torsions:
REMARK  status: ('A' for Active; 'I' for Inactive)
REMARK    1  A    between atoms: O_1  and  C_9
REMARK    2  A    between atoms: O_3  and  C_15
REMARK    3  A    between atoms: N_4  and  C_11
REMARK    4  A    between atoms: C_7  and  C_12
REMARK    5  A    between atoms: C_11  and  C_13
REMARK    6  A    between atoms: C_14  and  C_17
REMARK    7  A    between atoms: C_17  and  C_21
REMARK                            x       y       z     vdW  Elec       q    Type
REMARK                         _______ _______ _______ _____ _____    ______ ____
ROOT
ATOM      4  N   UNL     1     -16.465   5.126  21.163  0.00  0.00    -0.284 NA
ATOM      7  C   UNL     1     -17.737   4.608  21.705  0.00  0.00    +0.149 C 
ATOM      8  C   UNL     1     -18.445   3.964  20.498  0.00  0.00    +0.061 C 
ATOM      9  C   UNL     1     -17.515   4.211  19.317  0.00  0.00    +0.130 C 
ATOM     10  C   UNL     1     -16.703   5.416  19.751  0.00  0.00    +0.116 C 
ENDROOT
BRANCH   7  12
ATOM      2  O   UNL     1     -16.404   2.882  22.808  0.00  0.00    -0.336 OA
ATOM      5  N   UNL     1     -18.292   3.412  23.892  0.00  0.00    -0.194 NA
ATOM      6  N   UNL     1     -16.436   2.075  23.953  0.00  0.00    -0.061 NA
ATOM     12  C   UNL     1     -17.532   3.638  22.849  0.00  0.00    +0.245 A 
ATOM     14  C   UNL     1     -17.578   2.445  24.539  0.00  0.00    +0.176 A 
BRANCH  14  17
ATOM     17  C   UNL     1     -18.035   1.848  25.799  0.00  0.00    +0.114 C 
BRANCH  17  21
ATOM     21  C   UNL     1     -17.102   2.065  26.986  0.00  0.00    -0.040 A 
ATOM     22  C   UNL     1     -16.682   0.976  27.750  0.00  0.00    +0.004 A 
ATOM     23  C   UNL     1     -16.669   3.352  27.306  0.00  0.00    +0.004 A 
ATOM     24  C   UNL     1     -15.828   1.175  28.836  0.00  0.00    +0.000 A 
ATOM     25  C   UNL     1     -15.815   3.550  28.391  0.00  0.00    +0.000 A 
ATOM     26  C   UNL     1     -15.395   2.461  29.156  0.00  0.00    +0.000 A 
ENDBRANCH  17  21
ENDBRANCH  14  17
ENDBRANCH   7  12
BRANCH   9   1
ATOM      1  O   UNL     1     -18.256   4.471  18.141  0.00  0.00    -0.390 OA
ATOM     27  H   UNL     1     -17.620   4.669  17.433  0.00  0.00    +0.210 HD
ENDBRANCH   9   1
BRANCH   4  11
ATOM     11  C   UNL     1     -15.964   6.288  21.885  0.00  0.00    +0.124 C 
BRANCH  11  13
ATOM     13  C   UNL     1     -14.520   6.568  21.565  0.00  0.00    +0.008 A 
ATOM     15  C   UNL     1     -13.556   5.567  21.687  0.00  0.00    +0.121 A 
ATOM     16  C   UNL     1     -14.150   7.846  21.144  0.00  0.00    +0.008 A 
ATOM     18  C   UNL     1     -12.222   5.843  21.388  0.00  0.00    +0.046 A 
ATOM     19  C   UNL     1     -12.816   8.122  20.844  0.00  0.00    +0.001 A 
ATOM     20  C   UNL     1     -11.852   7.120  20.966  0.00  0.00    +0.004 A 
BRANCH  15   3
ATOM      3  O   UNL     1     -13.900   4.315  22.099  0.00  0.00    -0.506 OA
ATOM     28  H   UNL     1     -14.138   3.779  21.322  0.00  0.00    +0.292 HD
ENDBRANCH  15   3
ENDBRANCH  11  13
ENDBRANCH   4  11
TORSDOF 7
ENDMDL
MODEL 7
REMARK VINA RESULT:      -6.9      2.514      6.268
REMARK  Name = 26744100
REMARK  7 active torsions:
REMARK  status: ('A' for Active; 'I' for Inactive)
REMARK    1  A    between atoms: O_1  and  C_9
REMARK    2  A    between atoms: O_3  and  C_15
REMARK    3  A    between atoms: N_4  and  C_11
REMARK    4  A    between atoms: C_7  and  C_12
REMARK    5  A    between atoms: C_11  and  C_13
REMARK    6  A    between atoms: C_14  and  C_17
REMARK    7  A    between atoms: C_17  and  C_21
REMARK                            x       y       z     vdW  Elec       q    Type
REMARK                         _______ _______ _______ _____ _____    ______ ____
ROOT
ATOM      4  N   UNL     1      13.218   8.316  20.679  0.00  0.00    -0.284 NA
ATOM      7  C   UNL     1      12.353   7.834  19.585  0.00  0.00    +0.149 C 
ATOM      8  C   UNL     1      10.937   8.305  19.967  0.00  0.00    +0.061 C 
ATOM      9  C   UNL     1      11.102   9.002  21.312  0.00  0.00    +0.130 C 
ATOM     10  C   UNL     1      12.376   8.396  21.870  0.00  0.00    +0.116 C 
ENDROOT
BRANCH   7  12
ATOM      2  O   UNL     1      13.275   7.411  17.361  0.00  0.00    -0.336 OA
ATOM      5  N   UNL     1      12.779   9.561  17.753  0.00  0.00    -0.194 NA
ATOM      6  N   UNL     1      13.612   8.108  16.194  0.00  0.00    -0.061 NA
ATOM     12  C   UNL     1      12.792   8.340  18.227  0.00  0.00    +0.245 A 
ATOM     14  C   UNL     1      13.291   9.368  16.503  0.00  0.00    +0.176 A 
BRANCH  14  17
ATOM     17  C   UNL     1      13.481  10.473  15.556  0.00  0.00    +0.114 C 
BRANCH  17  21
ATOM     21  C   UNL     1      14.833  11.171  15.650  0.00  0.00    -0.040 A 
ATOM     22  C   UNL     1      15.182  11.861  16.812  0.00  0.00    +0.004 A 
ATOM     23  C   UNL     1      15.721  11.120  14.575  0.00  0.00    +0.004 A 
ATOM     24  C   UNL     1      16.419  12.500  16.898  0.00  0.00    +0.000 A 
ATOM     25  C   UNL     1      16.958  11.759  14.662  0.00  0.00    +0.000 A 
ATOM     26  C   UNL     1      17.307  12.449  15.824  0.00  0.00    +0.000 A 
ENDBRANCH  17  21
ENDBRANCH  14  17
ENDBRANCH   7  12
BRANCH   9   1
ATOM      1  O   UNL     1       9.989   8.750  22.147  0.00  0.00    -0.390 OA
ATOM     27  H   UNL     1      10.220   9.055  23.041  0.00  0.00    +0.210 HD
ENDBRANCH   9   1
BRANCH   4  11
ATOM     11  C   UNL     1      14.393   7.480  20.894  0.00  0.00    +0.124 C 
BRANCH  11  13
ATOM     13  C   UNL     1      15.659   8.293  20.939  0.00  0.00    +0.008 A 
ATOM     15  C   UNL     1      16.852   7.728  21.389  0.00  0.00    +0.121 A 
ATOM     16  C   UNL     1      15.630   9.625  20.525  0.00  0.00    +0.008 A 
ATOM     18  C   UNL     1      18.017   8.494  21.426  0.00  0.00    +0.046 A 
ATOM     19  C   UNL     1      16.795  10.391  20.562  0.00  0.00    +0.001 A 
ATOM     20  C   UNL     1      17.988   9.826  21.012  0.00  0.00    +0.004 A 
BRANCH  15   3
ATOM      3  O   UNL     1      16.898   6.429  21.798  0.00  0.00    -0.506 OA
ATOM     28  H   UNL     1      15.994   6.068  21.811  0.00  0.00    +0.292 HD
ENDBRANCH  15   3
ENDBRANCH  11  13
ENDBRANCH   4  11
TORSDOF 7
ENDMDL
MODEL 8
REMARK VINA RESULT:      -6.8     25.793     28.542
REMARK  Name = 26744100
REMARK  7 active torsions:
REMARK  status: ('A' for Active; 'I' for Inactive)
REMARK    1  A    between atoms: O_1  and  C_9
REMARK    2  A    between atoms: O_3  and  C_15
REMARK    3  A    between atoms: N_4  and  C_11
REMARK    4  A    between atoms: C_7  and  C_12
REMARK    5  A    between atoms: C_11  and  C_13
REMARK    6  A    between atoms: C_14  and  C_17
REMARK    7  A    between atoms: C_17  and  C_21
REMARK                            x       y       z     vdW  Elec       q    Type
REMARK                         _______ _______ _______ _____ _____    ______ ____
ROOT
ATOM      4  N   UNL     1      -3.199 -10.627  14.241  0.00  0.00    -0.284 NA
ATOM      7  C   UNL     1      -3.417 -11.398  15.481  0.00  0.00    +0.149 C 
ATOM      8  C   UNL     1      -2.251 -10.996  16.404  0.00  0.00    +0.061 C 
ATOM      9  C   UNL     1      -1.408 -10.032  15.578  0.00  0.00    +0.130 C 
ATOM     10  C   UNL     1      -1.760 -10.390  14.146  0.00  0.00    +0.116 C 
ENDROOT
BRANCH   7  12
ATOM      2  O   UNL     1      -4.781 -10.425  17.261  0.00  0.00    -0.336 OA
ATOM      5  N   UNL     1      -5.960 -11.494  15.685  0.00  0.00    -0.194 NA
ATOM      6  N   UNL     1      -6.125 -10.313  17.637  0.00  0.00    -0.061 NA
ATOM     12  C   UNL     1      -4.772 -11.134  16.102  0.00  0.00    +0.245 A 
ATOM     14  C   UNL     1      -6.758 -10.967  16.658  0.00  0.00    +0.176 A 
BRANCH  14  17
ATOM     17  C   UNL     1      -8.218 -11.111  16.637  0.00  0.00    +0.114 C 
BRANCH  17  21
ATOM     21  C   UNL     1      -8.985  -9.813  16.409  0.00  0.00    -0.040 A 
ATOM     22  C   UNL     1      -9.332  -9.426  15.114  0.00  0.00    +0.004 A 
ATOM     23  C   UNL     1      -9.339  -9.012  17.495  0.00  0.00    +0.004 A 
ATOM     24  C   UNL     1     -10.034  -8.239  14.905  0.00  0.00    +0.000 A 
ATOM     25  C   UNL     1     -10.041  -7.824  17.286  0.00  0.00    +0.000 A 
ATOM     26  C   UNL     1     -10.388  -7.438  15.991  0.00  0.00    +0.000 A 
ENDBRANCH  17  21
ENDBRANCH  14  17
ENDBRANCH   7  12
BRANCH   9   1
ATOM      1  O   UNL     1      -0.031 -10.216  15.842  0.00  0.00    -0.390 OA
ATOM     27  H   UNL     1       0.058 -10.442  16.783  0.00  0.00    +0.210 HD
ENDBRANCH   9   1
BRANCH   4  11
ATOM     11  C   UNL     1      -3.726 -11.288  13.054  0.00  0.00    +0.124 C 
BRANCH  11  13
ATOM     13  C   UNL     1      -4.090 -10.301  11.977  0.00  0.00    +0.008 A 
ATOM     15  C   UNL     1      -5.241  -9.521  12.086  0.00  0.00    +0.121 A 
ATOM     16  C   UNL     1      -3.263 -10.173  10.861  0.00  0.00    +0.008 A 
ATOM     18  C   UNL     1      -5.565  -8.611  11.079  0.00  0.00    +0.046 A 
ATOM     19  C   UNL     1      -3.587  -9.263   9.854  0.00  0.00    +0.001 A 
ATOM     20  C   UNL     1      -4.738  -8.483   9.963  0.00  0.00    +0.004 A 
BRANCH  15   3
ATOM      3  O   UNL     1      -6.061  -9.634  13.169  0.00  0.00    -0.506 OA
ATOM     28  H   UNL     1      -6.348 -10.560  13.254  0.00  0.00    +0.292 HD
ENDBRANCH  15   3
ENDBRANCH  11  13
ENDBRANCH   4  11
TORSDOF 7
ENDMDL
MODEL 9
REMARK VINA RESULT:      -6.8     25.921     28.560
REMARK  Name = 26744100
REMARK  7 active torsions:
REMARK  status: ('A' for Active; 'I' for Inactive)
REMARK    1  A    between atoms: O_1  and  C_9
REMARK    2  A    between atoms: O_3  and  C_15
REMARK    3  A    between atoms: N_4  and  C_11
REMARK    4  A    between atoms: C_7  and  C_12
REMARK    5  A    between atoms: C_11  and  C_13
REMARK    6  A    between atoms: C_14  and  C_17
REMARK    7  A    between atoms: C_17  and  C_21
REMARK                            x       y       z     vdW  Elec       q    Type
REMARK                         _______ _______ _______ _____ _____    ______ ____
ROOT
ATOM      4  N   UNL     1      -5.347 -11.003  16.909  0.00  0.00    -0.284 NA
ATOM      7  C   UNL     1      -6.729 -11.398  16.571  0.00  0.00    +0.149 C 
ATOM      8  C   UNL     1      -7.595 -10.799  17.695  0.00  0.00    +0.061 C 
ATOM      9  C   UNL     1      -6.606 -10.127  18.640  0.00  0.00    +0.130 C 
ATOM     10  C   UNL     1      -5.302 -10.851  18.361  0.00  0.00    +0.116 C 
ENDROOT
BRANCH   7  12
ATOM      2  O   UNL     1      -8.252 -11.517  14.663  0.00  0.00    -0.336 OA
ATOM      5  N   UNL     1      -6.600 -10.024  14.423  0.00  0.00    -0.194 NA
ATOM      6  N   UNL     1      -8.439 -10.929  13.406  0.00  0.00    -0.061 NA
ATOM     12  C   UNL     1      -7.150 -10.928  15.195  0.00  0.00    +0.245 A 
ATOM     14  C   UNL     1      -7.427 -10.059  13.337  0.00  0.00    +0.176 A 
BRANCH  14  17
ATOM     17  C   UNL     1      -7.218  -9.201  12.166  0.00  0.00    +0.114 C 
BRANCH  17  21
ATOM     21  C   UNL     1      -5.982  -9.538  11.338  0.00  0.00    -0.040 A 
ATOM     22  C   UNL     1      -5.144  -8.517  10.889  0.00  0.00    +0.004 A 
ATOM     23  C   UNL     1      -5.691 -10.867  11.029  0.00  0.00    +0.004 A 
ATOM     24  C   UNL     1      -4.014  -8.825  10.132  0.00  0.00    +0.000 A 
ATOM     25  C   UNL     1      -4.560 -11.175  10.272  0.00  0.00    +0.000 A 
ATOM     26  C   UNL     1      -3.722 -10.154   9.823  0.00  0.00    +0.000 A 
ENDBRANCH  17  21
ENDBRANCH  14  17
ENDBRANCH   7  12
BRANCH   9   1
ATOM      1  O   UNL     1      -7.015 -10.279  19.985  0.00  0.00    -0.390 OA
ATOM     27  H   UNL     1      -6.462  -9.691  20.527  0.00  0.00    +0.210 HD
ENDBRANCH   9   1
BRANCH   4  11
ATOM     11  C   UNL     1      -4.346 -11.946  16.425  0.00  0.00    +0.124 C 
BRANCH  11  13
ATOM     13  C   UNL     1      -3.319 -11.274  15.553  0.00  0.00    +0.008 A 
ATOM     15  C   UNL     1      -2.086 -10.883  16.077  0.00  0.00    +0.121 A 
ATOM     16  C   UNL     1      -3.610 -11.045  14.209  0.00  0.00    +0.008 A 
ATOM     18  C   UNL     1      -1.145 -10.262  15.256  0.00  0.00    +0.046 A 
ATOM     19  C   UNL     1      -2.669 -10.423  13.387  0.00  0.00    +0.001 A 
ATOM     20  C   UNL     1      -1.437 -10.032  13.911  0.00  0.00    +0.004 A 
BRANCH  15   3
ATOM      3  O   UNL     1      -1.786 -11.099  17.388  0.00  0.00    -0.506 OA
ATOM     28  H   UNL     1      -1.120 -10.449  17.672  0.00  0.00    +0.292 HD
ENDBRANCH  15   3
ENDBRANCH  11  13
ENDBRANCH   4  11
TORSDOF 7
ENDMDL
MODEL 10
REMARK VINA RESULT:      -6.6     26.462     29.274
REMARK  Name = 26744100
REMARK  7 active torsions:
REMARK  status: ('A' for Active; 'I' for Inactive)
REMARK    1  A    between atoms: O_1  and  C_9
REMARK    2  A    between atoms: O_3  and  C_15
REMARK    3  A    between atoms: N_4  and  C_11
REMARK    4  A    between atoms: C_7  and  C_12
REMARK    5  A    between atoms: C_11  and  C_13
REMARK    6  A    between atoms: C_14  and  C_17
REMARK    7  A    between atoms: C_17  and  C_21
REMARK                            x       y       z     vdW  Elec       q    Type
REMARK                         _______ _______ _______ _____ _____    ______ ____
ROOT
ATOM      4  N   UNL     1      -4.039 -10.764  14.517  0.00  0.00    -0.284 NA
ATOM      7  C   UNL     1      -4.791 -11.308  15.666  0.00  0.00    +0.149 C 
ATOM      8  C   UNL     1      -3.848 -11.136  16.871  0.00  0.00    +0.061 C 
ATOM      9  C   UNL     1      -2.575 -10.529  16.293  0.00  0.00    +0.130 C 
ATOM     10  C   UNL     1      -2.622 -10.934  14.831  0.00  0.00    +0.116 C 
ENDROOT
BRANCH   7  12
ATOM      2  O   UNL     1      -7.113 -10.954  14.990  0.00  0.00    -0.336 OA
ATOM      5  N   UNL     1      -6.483  -9.745  16.768  0.00  0.00    -0.194 NA
ATOM      6  N   UNL     1      -8.234 -10.205  15.370  0.00  0.00    -0.061 NA
ATOM     12  C   UNL     1      -6.127 -10.625  15.865  0.00  0.00    +0.245 A 
ATOM     14  C   UNL     1      -7.783  -9.518  16.424  0.00  0.00    +0.176 A 
BRANCH  14  17
ATOM     17  C   UNL     1      -8.635  -8.578  17.161  0.00  0.00    +0.114 C 
BRANCH  17  21
ATOM     21  C   UNL     1      -9.885  -9.197  17.779  0.00  0.00    -0.040 A 
ATOM     22  C   UNL     1      -9.764 -10.213  18.727  0.00  0.00    +0.004 A 
ATOM     23  C   UNL     1     -11.148  -8.746  17.396  0.00  0.00    +0.004 A 
ATOM     24  C   UNL     1     -10.907 -10.779  19.292  0.00  0.00    +0.000 A 
ATOM     25  C   UNL     1     -12.291  -9.312  17.961  0.00  0.00    +0.000 A 
ATOM     26  C   UNL     1     -12.170 -10.329  18.909  0.00  0.00    +0.000 A 
ENDBRANCH  17  21
ENDBRANCH  14  17
ENDBRANCH   7  12
BRANCH   9   1
ATOM      1  O   UNL     1      -1.432 -11.045  16.945  0.00  0.00    -0.390 OA
ATOM     27  H   UNL     1      -1.227 -10.453  17.688  0.00  0.00    +0.210 HD
ENDBRANCH   9   1
BRANCH   4  11
ATOM     11  C   UNL     1      -4.398 -11.386  13.249  0.00  0.00    +0.124 C 
BRANCH  11  13
ATOM     13  C   UNL     1      -4.371 -10.399  12.113  0.00  0.00    +0.008 A 
ATOM     15  C   UNL     1      -5.422  -9.501  11.924  0.00  0.00    +0.121 A 
ATOM     16  C   UNL     1      -3.280 -10.389  11.244  0.00  0.00    +0.008 A 
ATOM     18  C   UNL     1      -5.382  -8.593  10.865  0.00  0.00    +0.046 A 
ATOM     19  C   UNL     1      -3.240  -9.481  10.185  0.00  0.00    +0.001 A 
ATOM     20  C   UNL     1      -4.291  -8.583   9.997  0.00  0.00    +0.004 A 
BRANCH  15   3
ATOM      3  O   UNL     1      -6.495  -9.498  12.763  0.00  0.00    -0.506 OA
ATOM     28  H   UNL     1      -6.931 -10.367  12.724  0.00  0.00    +0.292 HD
ENDBRANCH  15   3
ENDBRANCH  11  13
ENDBRANCH   4  11
TORSDOF 7
ENDMDL
