MODEL 1
REMARK VINA RESULT:      -6.7      0.000      0.000
REMARK  Name = 40780411
REMARK  9 active torsions:
REMARK  status: ('A' for Active; 'I' for Inactive)
REMARK    1  A    between atoms: O_2  and  C_25
REMARK    2  A    between atoms: O_2  and  C_29
REMARK    3  A    between atoms: N_3  and  C_8
REMARK    4  A    between atoms: N_3  and  C_14
REMARK    5  A    between atoms: N_4  and  C_17
REMARK    6  A    between atoms: C_6  and  C_9
REMARK    7  A    between atoms: C_12  and  C_15
REMARK    8  A    between atoms: C_13  and  C_16
REMARK    9  A    between atoms: C_14  and  C_18
REMARK                            x       y       z     vdW  Elec       q    Type
REMARK                         _______ _______ _______ _____ _____    ______ ____
ROOT
ATOM      6  C   UNL     1      15.334   8.571  20.403  0.00  0.00    +0.047 C 
ATOM      7  C   UNL     1      15.221   8.940  18.911  0.00  0.00    +0.035 C 
ATOM      8  C   UNL     1      14.001   8.173  18.371  0.00  0.00    +0.078 C 
ATOM     10  C   UNL     1      14.589   7.269  20.465  0.00  0.00    -0.021 C 
ATOM     11  C   UNL     1      13.860   7.062  19.363  0.00  0.00    -0.012 C 
ENDROOT
BRANCH   6   9
ATOM      4  N   UNL     1      18.814   7.899  21.331  0.00  0.00    -0.236 N 
ATOM      5  N   UNL     1      18.711   9.098  21.929  0.00  0.00    -0.171 NA
ATOM      9  C   UNL     1      16.761   8.507  20.896  0.00  0.00    +0.003 A 
ATOM     12  C   UNL     1      17.672   7.499  20.698  0.00  0.00    +0.046 A 
ATOM     13  C   UNL     1      17.455   9.465  21.659  0.00  0.00    +0.064 A 
ATOM     15  C   UNL     1      17.553   6.218  19.974  0.00  0.00    +0.066 C 
ATOM     16  C   UNL     1      16.955  10.758  22.159  0.00  0.00    +0.068 C 
BRANCH   4  17
ATOM     17  C   UNL     1      20.014   7.191  21.399  0.00  0.00    +0.066 A 
ATOM     19  C   UNL     1      20.219   6.262  22.418  0.00  0.00    +0.031 A 
ATOM     20  C   UNL     1      21.009   7.412  20.447  0.00  0.00    +0.031 A 
ATOM     23  C   UNL     1      21.419   5.554  22.486  0.00  0.00    +0.048 A 
ATOM     24  C   UNL     1      22.210   6.705  20.515  0.00  0.00    +0.048 A 
ATOM     25  C   UNL     1      22.414   5.777  21.534  0.00  0.00    +0.120 A 
BRANCH  25   2
ATOM      2  O   UNL     1      23.585   5.086  21.602  0.00  0.00    -0.495 OA
ATOM     29  C   UNL     1      24.288   4.880  20.377  0.00  0.00    +0.277 C 
ENDBRANCH  25   2
ENDBRANCH   4  17
ENDBRANCH   6   9
BRANCH   8   3
ATOM      3  N   UNL     1      12.806   9.007  18.331  0.00  0.00    -0.306 NA
ATOM     30  H   UNL     1      12.542   9.171  17.359  0.00  0.00    +0.123 HD
BRANCH   3  14
ATOM     14  C   UNL     1      11.696   8.363  19.022  0.00  0.00    +0.116 C 
BRANCH  14  18
ATOM      1  F   UNL     1      10.713  10.710  24.050  0.00  0.00    -0.205 F 
ATOM     18  C   UNL     1      11.433   8.990  20.365  0.00  0.00    -0.033 A 
ATOM     21  C   UNL     1      11.886  10.282  20.632  0.00  0.00    +0.008 A 
ATOM     22  C   UNL     1      10.736   8.279  21.343  0.00  0.00    +0.008 A 
ATOM     26  C   UNL     1      11.643  10.863  21.877  0.00  0.00    +0.038 A 
ATOM     27  C   UNL     1      10.494   8.860  22.588  0.00  0.00    +0.038 A 
ATOM     28  C   UNL     1      10.946  10.152  22.855  0.00  0.00    +0.123 A 
ENDBRANCH  14  18
ENDBRANCH   3  14
ENDBRANCH   8   3
TORSDOF 6
ENDMDL
MODEL 2
REMARK VINA RESULT:      -6.7     27.470     30.341
REMARK  Name = 40780411
REMARK  9 active torsions:
REMARK  status: ('A' for Active; 'I' for Inactive)
REMARK    1  A    between atoms: O_2  and  C_25
REMARK    2  A    between atoms: O_2  and  C_29
REMARK    3  A    between atoms: N_3  and  C_8
REMARK    4  A    between atoms: N_3  and  C_14
REMARK    5  A    between atoms: N_4  and  C_17
REMARK    6  A    between atoms: C_6  and  C_9
REMARK    7  A    between atoms: C_12  and  C_15
REMARK    8  A    between atoms: C_13  and  C_16
REMARK    9  A    between atoms: C_14  and  C_18
REMARK                            x       y       z     vdW  Elec       q    Type
REMARK                         _______ _______ _______ _____ _____    ______ ____
ROOT
ATOM      6  C   UNL     1      -2.882 -11.090  12.564  0.00  0.00    +0.047 C 
ATOM      7  C   UNL     1      -3.841 -10.904  13.756  0.00  0.00    +0.035 C 
ATOM      8  C   UNL     1      -3.820 -12.231  14.533  0.00  0.00    +0.078 C 
ATOM     10  C   UNL     1      -2.838 -12.583  12.421  0.00  0.00    -0.021 C 
ATOM     11  C   UNL     1      -3.341 -13.198  13.497  0.00  0.00    -0.012 C 
ENDROOT
BRANCH   6   9
ATOM      4  N   UNL     1      -4.442  -9.599   9.603  0.00  0.00    -0.236 N 
ATOM      5  N   UNL     1      -3.284  -8.921   9.540  0.00  0.00    -0.171 NA
ATOM      9  C   UNL     1      -3.322 -10.349  11.322  0.00  0.00    +0.003 A 
ATOM     12  C   UNL     1      -4.515 -10.468  10.653  0.00  0.00    +0.046 A 
ATOM     13  C   UNL     1      -2.604  -9.383  10.593  0.00  0.00    +0.064 A 
ATOM     15  C   UNL     1      -5.693 -11.318  10.922  0.00  0.00    +0.066 C 
ATOM     16  C   UNL     1      -1.252  -8.864  10.866  0.00  0.00    +0.068 C 
BRANCH   4  17
ATOM     17  C   UNL     1      -5.430  -9.377   8.643  0.00  0.00    +0.066 A 
ATOM     19  C   UNL     1      -5.360 -10.022   7.409  0.00  0.00    +0.031 A 
ATOM     20  C   UNL     1      -6.487  -8.508   8.917  0.00  0.00    +0.031 A 
ATOM     23  C   UNL     1      -6.347  -9.799   6.448  0.00  0.00    +0.048 A 
ATOM     24  C   UNL     1      -7.473  -8.285   7.957  0.00  0.00    +0.048 A 
ATOM     25  C   UNL     1      -7.403  -8.930   6.723  0.00  0.00    +0.120 A 
BRANCH  25   2
ATOM      2  O   UNL     1      -8.366  -8.713   5.785  0.00  0.00    -0.495 OA
ATOM     29  C   UNL     1      -8.922  -7.400   5.719  0.00  0.00    +0.277 C 
ENDBRANCH  25   2
ENDBRANCH   4  17
ENDBRANCH   6   9
BRANCH   8   3
ATOM      3  N   UNL     1      -2.915 -12.181  15.675  0.00  0.00    -0.306 NA
ATOM     30  H   UNL     1      -1.953 -12.280  15.348  0.00  0.00    +0.123 HD
BRANCH   3  14
ATOM     14  C   UNL     1      -3.044 -10.917  16.390  0.00  0.00    +0.116 C 
BRANCH  14  18
ATOM      1  F   UNL     1      -7.433 -10.953  19.925  0.00  0.00    -0.205 F 
ATOM     18  C   UNL     1      -4.217 -10.926  17.335  0.00  0.00    -0.033 A 
ATOM     21  C   UNL     1      -4.158 -11.673  18.511  0.00  0.00    +0.008 A 
ATOM     22  C   UNL     1      -5.362 -10.188  17.033  0.00  0.00    +0.008 A 
ATOM     26  C   UNL     1      -5.245 -11.683  19.386  0.00  0.00    +0.038 A 
ATOM     27  C   UNL     1      -6.448 -10.198  17.908  0.00  0.00    +0.038 A 
ATOM     28  C   UNL     1      -6.390 -10.944  19.085  0.00  0.00    +0.123 A 
ENDBRANCH  14  18
ENDBRANCH   3  14
ENDBRANCH   8   3
TORSDOF 6
ENDMDL
MODEL 3
REMARK VINA RESULT:      -6.6      4.612      9.876
REMARK  Name = 40780411
REMARK  9 active torsions:
REMARK  status: ('A' for Active; 'I' for Inactive)
REMARK    1  A    between atoms: O_2  and  C_25
REMARK    2  A    between atoms: O_2  and  C_29
REMARK    3  A    between atoms: N_3  and  C_8
REMARK    4  A    between atoms: N_3  and  C_14
REMARK    5  A    between atoms: N_4  and  C_17
REMARK    6  A    between atoms: C_6  and  C_9
REMARK    7  A    between atoms: C_12  and  C_15
REMARK    8  A    between atoms: C_13  and  C_16
REMARK    9  A    between atoms: C_14  and  C_18
REMARK                            x       y       z     vdW  Elec       q    Type
REMARK                         _______ _______ _______ _____ _____    ______ ____
ROOT
ATOM      6  C   UNL     1      19.087   7.748  21.746  0.00  0.00    +0.047 C 
ATOM      7  C   UNL     1      19.138   6.214  21.885  0.00  0.00    +0.035 C 
ATOM      8  C   UNL     1      20.592   5.805  21.597  0.00  0.00    +0.078 C 
ATOM     10  C   UNL     1      20.280   8.027  20.879  0.00  0.00    -0.021 C 
ATOM     11  C   UNL     1      21.099   6.972  20.809  0.00  0.00    -0.012 C 
ENDROOT
BRANCH   6   9
ATOM      4  N   UNL     1      15.860   8.451  20.160  0.00  0.00    -0.236 N 
ATOM      5  N   UNL     1      16.011   9.642  20.763  0.00  0.00    -0.171 NA
ATOM      9  C   UNL     1      17.774   8.254  21.195  0.00  0.00    +0.003 A 
ATOM     12  C   UNL     1      16.889   7.583  20.387  0.00  0.00    +0.046 A 
ATOM     13  C   UNL     1      17.182   9.515  21.394  0.00  0.00    +0.064 A 
ATOM     15  C   UNL     1      16.937   6.218  19.826  0.00  0.00    +0.066 C 
ATOM     16  C   UNL     1      17.702  10.643  22.188  0.00  0.00    +0.068 C 
BRANCH   4  17
ATOM     17  C   UNL     1      14.724   8.204  19.388  0.00  0.00    +0.066 A 
ATOM     19  C   UNL     1      13.649   7.504  19.933  0.00  0.00    +0.031 A 
ATOM     20  C   UNL     1      14.665   8.657  18.070  0.00  0.00    +0.031 A 
ATOM     23  C   UNL     1      12.513   7.258  19.161  0.00  0.00    +0.048 A 
ATOM     24  C   UNL     1      13.530   8.410  17.297  0.00  0.00    +0.048 A 
ATOM     25  C   UNL     1      12.455   7.710  17.843  0.00  0.00    +0.120 A 
BRANCH  25   2
ATOM      2  O   UNL     1      11.347   7.469  17.090  0.00  0.00    -0.495 OA
ATOM     29  C   UNL     1      10.591   8.603  16.666  0.00  0.00    +0.277 C 
ENDBRANCH  25   2
ENDBRANCH   4  17
ENDBRANCH   6   9
BRANCH   8   3
ATOM      3  N   UNL     1      21.360   5.616  22.821  0.00  0.00    -0.306 NA
ATOM     30  H   UNL     1      21.072   4.744  23.268  0.00  0.00    +0.123 HD
BRANCH   3  14
ATOM     14  C   UNL     1      22.789   5.553  22.538  0.00  0.00    +0.116 C 
BRANCH  14  18
ATOM      1  F   UNL     1      24.439   0.331  21.213  0.00  0.00    -0.205 F 
ATOM     18  C   UNL     1      23.229   4.158  22.184  0.00  0.00    -0.033 A 
ATOM     21  C   UNL     1      23.287   3.173  23.171  0.00  0.00    +0.008 A 
ATOM     22  C   UNL     1      23.579   3.849  20.869  0.00  0.00    +0.008 A 
ATOM     26  C   UNL     1      23.696   1.881  22.843  0.00  0.00    +0.038 A 
ATOM     27  C   UNL     1      23.989   2.556  20.542  0.00  0.00    +0.038 A 
ATOM     28  C   UNL     1      24.047   1.572  21.528  0.00  0.00    +0.123 A 
ENDBRANCH  14  18
ENDBRANCH   3  14
ENDBRANCH   8   3
TORSDOF 6
ENDMDL
MODEL 4
REMARK VINA RESULT:      -6.5     28.175     31.120
REMARK  Name = 40780411
REMARK  9 active torsions:
REMARK  status: ('A' for Active; 'I' for Inactive)
REMARK    1  A    between atoms: O_2  and  C_25
REMARK    2  A    between atoms: O_2  and  C_29
REMARK    3  A    between atoms: N_3  and  C_8
REMARK    4  A    between atoms: N_3  and  C_14
REMARK    5  A    between atoms: N_4  and  C_17
REMARK    6  A    between atoms: C_6  and  C_9
REMARK    7  A    between atoms: C_12  and  C_15
REMARK    8  A    between atoms: C_13  and  C_16
REMARK    9  A    between atoms: C_14  and  C_18
REMARK                            x       y       z     vdW  Elec       q    Type
REMARK                         _______ _______ _______ _____ _____    ______ ____
ROOT
ATOM      6  C   UNL     1      -4.746 -11.270  16.160  0.00  0.00    +0.047 C 
ATOM      7  C   UNL     1      -3.403 -10.592  16.496  0.00  0.00    +0.035 C 
ATOM      8  C   UNL     1      -2.384 -11.132  15.478  0.00  0.00    +0.078 C 
ATOM     10  C   UNL     1      -4.305 -12.494  15.413  0.00  0.00    -0.021 C 
ATOM     11  C   UNL     1      -3.024 -12.411  15.037  0.00  0.00    -0.012 C 
ENDROOT
BRANCH   6   9
ATOM      4  N   UNL     1      -7.262 -11.834  18.763  0.00  0.00    -0.236 N 
ATOM      5  N   UNL     1      -6.179 -12.063  19.526  0.00  0.00    -0.171 NA
ATOM      9  C   UNL     1      -5.597 -11.545  17.379  0.00  0.00    +0.003 A 
ATOM     12  C   UNL     1      -6.967 -11.519  17.468  0.00  0.00    +0.046 A 
ATOM     13  C   UNL     1      -5.166 -11.886  18.674  0.00  0.00    +0.064 A 
ATOM     15  C   UNL     1      -7.996 -11.227  16.450  0.00  0.00    +0.066 C 
ATOM     16  C   UNL     1      -3.781 -12.056  19.151  0.00  0.00    +0.068 C 
BRANCH   4  17
ATOM     17  C   UNL     1      -8.537 -11.928  19.322  0.00  0.00    +0.066 A 
ATOM     19  C   UNL     1      -9.301 -10.778  19.514  0.00  0.00    +0.031 A 
ATOM     20  C   UNL     1      -9.046 -13.174  19.690  0.00  0.00    +0.031 A 
ATOM     23  C   UNL     1     -10.576 -10.873  20.074  0.00  0.00    +0.048 A 
ATOM     24  C   UNL     1     -10.320 -13.269  20.250  0.00  0.00    +0.048 A 
ATOM     25  C   UNL     1     -11.084 -12.118  20.441  0.00  0.00    +0.120 A 
BRANCH  25   2
ATOM      2  O   UNL     1     -12.328 -12.210  20.988  0.00  0.00    -0.495 OA
ATOM     29  C   UNL     1     -12.624 -13.392  21.731  0.00  0.00    +0.277 C 
ENDBRANCH  25   2
ENDBRANCH   4  17
ENDBRANCH   6   9
BRANCH   8   3
ATOM      3  N   UNL     1      -2.192 -10.219  14.359  0.00  0.00    -0.306 NA
ATOM     30  H   UNL     1      -1.291  -9.749  14.457  0.00  0.00    +0.123 HD
BRANCH   3  14
ATOM     14  C   UNL     1      -2.217 -10.935  13.089  0.00  0.00    +0.116 C 
BRANCH  14  18
ATOM      1  F   UNL     1      -5.524  -8.380   9.309  0.00  0.00    -0.205 F 
ATOM     18  C   UNL     1      -3.101 -10.253  12.079  0.00  0.00    -0.033 A 
ATOM     21  C   UNL     1      -2.552  -9.751  10.898  0.00  0.00    +0.008 A 
ATOM     22  C   UNL     1      -4.468 -10.122  12.323  0.00  0.00    +0.008 A 
ATOM     26  C   UNL     1      -3.371  -9.119   9.963  0.00  0.00    +0.038 A 
ATOM     27  C   UNL     1      -5.286  -9.489  11.387  0.00  0.00    +0.038 A 
ATOM     28  C   UNL     1      -4.738  -8.988  10.207  0.00  0.00    +0.123 A 
ENDBRANCH  14  18
ENDBRANCH   3  14
ENDBRANCH   8   3
TORSDOF 6
ENDMDL
MODEL 5
REMARK VINA RESULT:      -6.5     29.690     33.120
REMARK  Name = 40780411
REMARK  9 active torsions:
REMARK  status: ('A' for Active; 'I' for Inactive)
REMARK    1  A    between atoms: O_2  and  C_25
REMARK    2  A    between atoms: O_2  and  C_29
REMARK    3  A    between atoms: N_3  and  C_8
REMARK    4  A    between atoms: N_3  and  C_14
REMARK    5  A    between atoms: N_4  and  C_17
REMARK    6  A    between atoms: C_6  and  C_9
REMARK    7  A    between atoms: C_12  and  C_15
REMARK    8  A    between atoms: C_13  and  C_16
REMARK    9  A    between atoms: C_14  and  C_18
REMARK                            x       y       z     vdW  Elec       q    Type
REMARK                         _______ _______ _______ _____ _____    ______ ____
ROOT
ATOM      6  C   UNL     1     -14.802   6.902  33.868  0.00  0.00    +0.047 C 
ATOM      7  C   UNL     1     -13.673   6.711  34.899  0.00  0.00    +0.035 C 
ATOM      8  C   UNL     1     -12.715   7.900  34.712  0.00  0.00    +0.078 C 
ATOM     10  C   UNL     1     -14.153   7.794  32.849  0.00  0.00    -0.021 C 
ATOM     11  C   UNL     1     -13.025   8.340  33.316  0.00  0.00    -0.012 C 
ENDROOT
BRANCH   6   9
ATOM      4  N   UNL     1     -15.552   3.653  32.350  0.00  0.00    -0.236 N 
ATOM      5  N   UNL     1     -16.789   3.913  32.807  0.00  0.00    -0.171 NA
ATOM      9  C   UNL     1     -15.336   5.599  33.319  0.00  0.00    +0.003 A 
ATOM     12  C   UNL     1     -14.644   4.633  32.631  0.00  0.00    +0.046 A 
ATOM     13  C   UNL     1     -16.650   5.102  33.399  0.00  0.00    +0.064 A 
ATOM     15  C   UNL     1     -13.225   4.563  32.227  0.00  0.00    +0.066 C 
ATOM     16  C   UNL     1     -17.819   5.735  34.037  0.00  0.00    +0.068 C 
BRANCH   4  17
ATOM     17  C   UNL     1     -15.303   2.467  31.660  0.00  0.00    +0.066 A 
ATOM     19  C   UNL     1     -14.893   1.329  32.354  0.00  0.00    +0.031 A 
ATOM     20  C   UNL     1     -15.464   2.419  30.275  0.00  0.00    +0.031 A 
ATOM     23  C   UNL     1     -14.644   0.142  31.663  0.00  0.00    +0.048 A 
ATOM     24  C   UNL     1     -15.214   1.234  29.584  0.00  0.00    +0.048 A 
ATOM     25  C   UNL     1     -14.804   0.096  30.278  0.00  0.00    +0.120 A 
BRANCH  25   2
ATOM      2  O   UNL     1     -14.560  -1.062  29.604  0.00  0.00    -0.495 OA
ATOM     29  C   UNL     1     -13.220  -1.287  29.167  0.00  0.00    +0.277 C 
ENDBRANCH  25   2
ENDBRANCH   4  17
ENDBRANCH   6   9
BRANCH   8   3
ATOM      3  N   UNL     1     -12.970   8.965  35.675  0.00  0.00    -0.306 NA
ATOM     30  H   UNL     1     -12.927   8.582  36.620  0.00  0.00    +0.123 HD
BRANCH   3  14
ATOM     14  C   UNL     1     -11.984  10.031  35.550  0.00  0.00    +0.116 C 
BRANCH  14  18
ATOM      1  F   UNL     1      -6.841   8.319  37.093  0.00  0.00    -0.205 F 
ATOM     18  C   UNL     1     -10.610   9.573  35.962  0.00  0.00    -0.033 A 
ATOM     21  C   UNL     1     -10.454   8.750  37.078  0.00  0.00    +0.008 A 
ATOM     22  C   UNL     1      -9.492   9.972  35.228  0.00  0.00    +0.008 A 
ATOM     26  C   UNL     1      -9.181   8.327  37.460  0.00  0.00    +0.038 A 
ATOM     27  C   UNL     1      -8.219   9.548  35.611  0.00  0.00    +0.038 A 
ATOM     28  C   UNL     1      -8.064   8.726  36.726  0.00  0.00    +0.123 A 
ENDBRANCH  14  18
ENDBRANCH   3  14
ENDBRANCH   8   3
TORSDOF 6
ENDMDL
MODEL 6
REMARK VINA RESULT:      -6.4     27.461     31.641
REMARK  Name = 40780411
REMARK  9 active torsions:
REMARK  status: ('A' for Active; 'I' for Inactive)
REMARK    1  A    between atoms: O_2  and  C_25
REMARK    2  A    between atoms: O_2  and  C_29
REMARK    3  A    between atoms: N_3  and  C_8
REMARK    4  A    between atoms: N_3  and  C_14
REMARK    5  A    between atoms: N_4  and  C_17
REMARK    6  A    between atoms: C_6  and  C_9
REMARK    7  A    between atoms: C_12  and  C_15
REMARK    8  A    between atoms: C_13  and  C_16
REMARK    9  A    between atoms: C_14  and  C_18
REMARK                            x       y       z     vdW  Elec       q    Type
REMARK                         _______ _______ _______ _____ _____    ______ ____
ROOT
ATOM      6  C   UNL     1      -7.203 -11.304  17.116  0.00  0.00    +0.047 C 
ATOM      7  C   UNL     1      -6.248 -11.145  18.315  0.00  0.00    +0.035 C 
ATOM      8  C   UNL     1      -5.559 -12.508  18.498  0.00  0.00    +0.078 C 
ATOM     10  C   UNL     1      -7.413 -12.790  17.072  0.00  0.00    -0.021 C 
ATOM     11  C   UNL     1      -6.512 -13.439  17.818  0.00  0.00    -0.012 C 
ENDROOT
BRANCH   6   9
ATOM      4  N   UNL     1     -10.159  -9.150  16.897  0.00  0.00    -0.236 N 
ATOM      5  N   UNL     1     -10.375  -9.603  18.143  0.00  0.00    -0.171 NA
ATOM      9  C   UNL     1      -8.470 -10.490  17.249  0.00  0.00    +0.003 A 
ATOM     12  C   UNL     1      -9.030  -9.651  16.316  0.00  0.00    +0.046 A 
ATOM     13  C   UNL     1      -9.341 -10.422  18.352  0.00  0.00    +0.064 A 
ATOM     15  C   UNL     1      -8.593  -9.295  14.951  0.00  0.00    +0.066 C 
ATOM     16  C   UNL     1      -9.224 -11.127  19.641  0.00  0.00    +0.068 C 
BRANCH   4  17
ATOM     17  C   UNL     1     -11.056  -8.249  16.320  0.00  0.00    +0.066 A 
ATOM     19  C   UNL     1     -12.159  -8.722  15.611  0.00  0.00    +0.031 A 
ATOM     20  C   UNL     1     -10.848  -6.876  16.454  0.00  0.00    +0.031 A 
ATOM     23  C   UNL     1     -13.056  -7.821  15.035  0.00  0.00    +0.048 A 
ATOM     24  C   UNL     1     -11.743  -5.976  15.878  0.00  0.00    +0.048 A 
ATOM     25  C   UNL     1     -12.847  -6.448  15.169  0.00  0.00    +0.120 A 
BRANCH  25   2
ATOM      2  O   UNL     1     -13.721  -5.570  14.606  0.00  0.00    -0.495 OA
ATOM     29  C   UNL     1     -13.244  -4.794  13.508  0.00  0.00    +0.277 C 
ENDBRANCH  25   2
ENDBRANCH   4  17
ENDBRANCH   6   9
BRANCH   8   3
ATOM      3  N   UNL     1      -4.243 -12.542  17.872  0.00  0.00    -0.306 NA
ATOM     30  H   UNL     1      -4.323 -12.946  16.938  0.00  0.00    +0.123 HD
BRANCH   3  14
ATOM     14  C   UNL     1      -3.680 -11.202  17.763  0.00  0.00    +0.116 C 
BRANCH  14  18
ATOM      1  F   UNL     1      -1.698 -10.172  12.590  0.00  0.00    -0.205 F 
ATOM     18  C   UNL     1      -3.151 -10.927  16.381  0.00  0.00    -0.033 A 
ATOM     21  C   UNL     1      -1.798 -10.640  16.197  0.00  0.00    +0.008 A 
ATOM     22  C   UNL     1      -4.012 -10.960  15.284  0.00  0.00    +0.008 A 
ATOM     26  C   UNL     1      -1.308 -10.384  14.916  0.00  0.00    +0.038 A 
ATOM     27  C   UNL     1      -3.521 -10.704  14.004  0.00  0.00    +0.038 A 
ATOM     28  C   UNL     1      -2.169 -10.417  13.820  0.00  0.00    +0.123 A 
ENDBRANCH  14  18
ENDBRANCH   3  14
ENDBRANCH   8   3
TORSDOF 6
ENDMDL
MODEL 7
REMARK VINA RESULT:      -6.4     29.454     33.030
REMARK  Name = 40780411
REMARK  9 active torsions:
REMARK  status: ('A' for Active; 'I' for Inactive)
REMARK    1  A    between atoms: O_2  and  C_25
REMARK    2  A    between atoms: O_2  and  C_29
REMARK    3  A    between atoms: N_3  and  C_8
REMARK    4  A    between atoms: N_3  and  C_14
REMARK    5  A    between atoms: N_4  and  C_17
REMARK    6  A    between atoms: C_6  and  C_9
REMARK    7  A    between atoms: C_12  and  C_15
REMARK    8  A    between atoms: C_13  and  C_16
REMARK    9  A    between atoms: C_14  and  C_18
REMARK                            x       y       z     vdW  Elec       q    Type
REMARK                         _______ _______ _______ _____ _____    ______ ____
ROOT
ATOM      6  C   UNL     1     -10.839  -8.913  15.483  0.00  0.00    +0.047 C 
ATOM      7  C   UNL     1      -9.638  -8.150  16.077  0.00  0.00    +0.035 C 
ATOM      8  C   UNL     1      -9.671  -8.411  17.592  0.00  0.00    +0.078 C 
ATOM     10  C   UNL     1     -11.741  -9.059  16.674  0.00  0.00    -0.021 C 
ATOM     11  C   UNL     1     -11.100  -8.793  17.817  0.00  0.00    -0.012 C 
ENDROOT
BRANCH   6   9
ATOM      4  N   UNL     1     -12.469  -6.787  12.985  0.00  0.00    -0.236 N 
ATOM      5  N   UNL     1     -12.174  -7.809  12.165  0.00  0.00    -0.171 NA
ATOM      9  C   UNL     1     -11.463  -8.214  14.298  0.00  0.00    +0.003 A 
ATOM     12  C   UNL     1     -12.065  -6.979  14.274  0.00  0.00    +0.046 A 
ATOM     13  C   UNL     1     -11.559  -8.677  12.973  0.00  0.00    +0.064 A 
ATOM     15  C   UNL     1     -12.283  -5.990  15.349  0.00  0.00    +0.066 C 
ATOM     16  C   UNL     1     -11.072  -9.956  12.425  0.00  0.00    +0.068 C 
BRANCH   4  17
ATOM     17  C   UNL     1     -13.133  -5.666  12.484  0.00  0.00    +0.066 A 
ATOM     19  C   UNL     1     -14.526  -5.621  12.486  0.00  0.00    +0.031 A 
ATOM     20  C   UNL     1     -12.401  -4.590  11.980  0.00  0.00    +0.031 A 
ATOM     23  C   UNL     1     -15.189  -4.500  11.985  0.00  0.00    +0.048 A 
ATOM     24  C   UNL     1     -13.063  -3.470  11.479  0.00  0.00    +0.048 A 
ATOM     25  C   UNL     1     -14.456  -3.425  11.481  0.00  0.00    +0.120 A 
BRANCH  25   2
ATOM      2  O   UNL     1     -15.104  -2.332  10.992  0.00  0.00    -0.495 OA
ATOM     29  C   UNL     1     -15.223  -2.231   9.573  0.00  0.00    +0.277 C 
ENDBRANCH  25   2
ENDBRANCH   4  17
ENDBRANCH   6   9
BRANCH   8   3
ATOM      3  N   UNL     1      -8.765  -9.484  17.982  0.00  0.00    -0.306 NA
ATOM     30  H   UNL     1      -9.203 -10.385  17.785  0.00  0.00    +0.123 HD
BRANCH   3  14
ATOM     14  C   UNL     1      -7.507  -9.399  17.249  0.00  0.00    +0.116 C 
BRANCH  14  18
ATOM      1  F   UNL     1      -3.440 -12.430  19.704  0.00  0.00    -0.205 F 
ATOM     18  C   UNL     1      -6.421 -10.208  17.905  0.00  0.00    -0.033 A 
ATOM     21  C   UNL     1      -5.264 -10.528  17.194  0.00  0.00    +0.008 A 
ATOM     22  C   UNL     1      -6.570 -10.638  19.224  0.00  0.00    +0.008 A 
ATOM     26  C   UNL     1      -4.257 -11.278  17.802  0.00  0.00    +0.038 A 
ATOM     27  C   UNL     1      -5.563 -11.389  19.831  0.00  0.00    +0.038 A 
ATOM     28  C   UNL     1      -4.407 -11.709  19.120  0.00  0.00    +0.123 A 
ENDBRANCH  14  18
ENDBRANCH   3  14
ENDBRANCH   8   3
TORSDOF 6
ENDMDL
MODEL 8
REMARK VINA RESULT:      -6.3     27.749     30.323
REMARK  Name = 40780411
REMARK  9 active torsions:
REMARK  status: ('A' for Active; 'I' for Inactive)
REMARK    1  A    between atoms: O_2  and  C_25
REMARK    2  A    between atoms: O_2  and  C_29
REMARK    3  A    between atoms: N_3  and  C_8
REMARK    4  A    between atoms: N_3  and  C_14
REMARK    5  A    between atoms: N_4  and  C_17
REMARK    6  A    between atoms: C_6  and  C_9
REMARK    7  A    between atoms: C_12  and  C_15
REMARK    8  A    between atoms: C_13  and  C_16
REMARK    9  A    between atoms: C_14  and  C_18
REMARK                            x       y       z     vdW  Elec       q    Type
REMARK                         _______ _______ _______ _____ _____    ______ ____
ROOT
ATOM      6  C   UNL     1      -5.078 -11.141  16.042  0.00  0.00    +0.047 C 
ATOM      7  C   UNL     1      -5.117 -12.638  16.410  0.00  0.00    +0.035 C 
ATOM      8  C   UNL     1      -4.887 -12.712  17.929  0.00  0.00    +0.078 C 
ATOM     10  C   UNL     1      -4.304 -10.554  17.187  0.00  0.00    -0.021 C 
ATOM     11  C   UNL     1      -4.210 -11.408  18.211  0.00  0.00    -0.012 C 
ENDROOT
BRANCH   6   9
ATOM      4  N   UNL     1      -4.196 -10.510  12.543  0.00  0.00    -0.236 N 
ATOM      5  N   UNL     1      -2.946 -10.495  13.035  0.00  0.00    -0.171 NA
ATOM      9  C   UNL     1      -4.487 -10.877  14.677  0.00  0.00    +0.003 A 
ATOM     12  C   UNL     1      -5.157 -10.736  13.486  0.00  0.00    +0.046 A 
ATOM     13  C   UNL     1      -3.130 -10.719  14.339  0.00  0.00    +0.064 A 
ATOM     15  C   UNL     1      -6.599 -10.794  13.176  0.00  0.00    +0.066 C 
ATOM     16  C   UNL     1      -1.963 -10.774  15.237  0.00  0.00    +0.068 C 
BRANCH   4  17
ATOM     17  C   UNL     1      -4.407 -10.307  11.179  0.00  0.00    +0.066 A 
ATOM     19  C   UNL     1      -4.703  -9.031  10.702  0.00  0.00    +0.031 A 
ATOM     20  C   UNL     1      -4.322 -11.380  10.292  0.00  0.00    +0.031 A 
ATOM     23  C   UNL     1      -4.914  -8.827   9.338  0.00  0.00    +0.048 A 
ATOM     24  C   UNL     1      -4.534 -11.178   8.929  0.00  0.00    +0.048 A 
ATOM     25  C   UNL     1      -4.829  -9.902   8.452  0.00  0.00    +0.120 A 
BRANCH  25   2
ATOM      2  O   UNL     1      -5.036  -9.702   7.121  0.00  0.00    -0.495 OA
ATOM     29  C   UNL     1      -5.631 -10.774   6.390  0.00  0.00    +0.277 C 
ENDBRANCH  25   2
ENDBRANCH   4  17
ENDBRANCH   6   9
BRANCH   8   3
ATOM      3  N   UNL     1      -6.138 -12.835  18.666  0.00  0.00    -0.306 NA
ATOM     30  H   UNL     1      -6.074 -13.622  19.312  0.00  0.00    +0.123 HD
BRANCH   3  14
ATOM     14  C   UNL     1      -6.419 -11.621  19.424  0.00  0.00    +0.116 C 
BRANCH  14  18
ATOM      1  F   UNL     1     -11.391  -9.373  18.017  0.00  0.00    -0.205 F 
ATOM     18  C   UNL     1      -7.748 -11.021  19.048  0.00  0.00    -0.033 A 
ATOM     21  C   UNL     1      -7.815 -10.040  18.058  0.00  0.00    +0.008 A 
ATOM     22  C   UNL     1      -8.912 -11.445  19.689  0.00  0.00    +0.008 A 
ATOM     26  C   UNL     1      -9.045  -9.483  17.710  0.00  0.00    +0.038 A 
ATOM     27  C   UNL     1     -10.142 -10.888  19.341  0.00  0.00    +0.038 A 
ATOM     28  C   UNL     1     -10.210  -9.908  18.351  0.00  0.00    +0.123 A 
ENDBRANCH  14  18
ENDBRANCH   3  14
ENDBRANCH   8   3
TORSDOF 6
ENDMDL
MODEL 9
REMARK VINA RESULT:      -6.3     27.904     31.275
REMARK  Name = 40780411
REMARK  9 active torsions:
REMARK  status: ('A' for Active; 'I' for Inactive)
REMARK    1  A    between atoms: O_2  and  C_25
REMARK    2  A    between atoms: O_2  and  C_29
REMARK    3  A    between atoms: N_3  and  C_8
REMARK    4  A    between atoms: N_3  and  C_14
REMARK    5  A    between atoms: N_4  and  C_17
REMARK    6  A    between atoms: C_6  and  C_9
REMARK    7  A    between atoms: C_12  and  C_15
REMARK    8  A    between atoms: C_13  and  C_16
REMARK    9  A    between atoms: C_14  and  C_18
REMARK                            x       y       z     vdW  Elec       q    Type
REMARK                         _______ _______ _______ _____ _____    ______ ____
ROOT
ATOM      6  C   UNL     1      -6.133 -11.098  16.003  0.00  0.00    +0.047 C 
ATOM      7  C   UNL     1      -4.760 -10.524  16.406  0.00  0.00    +0.035 C 
ATOM      8  C   UNL     1      -3.834 -11.734  16.618  0.00  0.00    +0.078 C 
ATOM     10  C   UNL     1      -6.062 -12.497  16.543  0.00  0.00    -0.021 C 
ATOM     11  C   UNL     1      -4.811 -12.840  16.867  0.00  0.00    -0.012 C 
ENDROOT
BRANCH   6   9
ATOM      4  N   UNL     1      -9.109  -9.075  16.685  0.00  0.00    -0.236 N 
ATOM      5  N   UNL     1      -8.703  -9.206  17.959  0.00  0.00    -0.171 NA
ATOM      9  C   UNL     1      -7.296 -10.281  16.515  0.00  0.00    +0.003 A 
ATOM     12  C   UNL     1      -8.301  -9.700  15.781  0.00  0.00    +0.046 A 
ATOM     13  C   UNL     1      -7.595  -9.944  17.848  0.00  0.00    +0.064 A 
ATOM     15  C   UNL     1      -8.552  -9.691  14.325  0.00  0.00    +0.066 C 
ATOM     16  C   UNL     1      -6.844 -10.309  19.063  0.00  0.00    +0.068 C 
BRANCH   4  17
ATOM     17  C   UNL     1     -10.265  -8.347  16.398  0.00  0.00    +0.066 A 
ATOM     19  C   UNL     1     -11.512  -8.968  16.455  0.00  0.00    +0.031 A 
ATOM     20  C   UNL     1     -10.172  -6.998  16.053  0.00  0.00    +0.031 A 
ATOM     23  C   UNL     1     -12.668  -8.240  16.167  0.00  0.00    +0.048 A 
ATOM     24  C   UNL     1     -11.327  -6.271  15.765  0.00  0.00    +0.048 A 
ATOM     25  C   UNL     1     -12.574  -6.892  15.822  0.00  0.00    +0.120 A 
BRANCH  25   2
ATOM      2  O   UNL     1     -13.702  -6.183  15.541  0.00  0.00    -0.495 OA
ATOM     29  C   UNL     1     -14.843  -6.924  15.111  0.00  0.00    +0.277 C 
ENDBRANCH  25   2
ENDBRANCH   4  17
ENDBRANCH   6   9
BRANCH   8   3
ATOM      3  N   UNL     1      -3.011 -12.004  15.445  0.00  0.00    -0.306 NA
ATOM     30  H   UNL     1      -3.601 -12.368  14.696  0.00  0.00    +0.123 HD
BRANCH   3  14
ATOM     14  C   UNL     1      -2.349 -10.790  14.981  0.00  0.00    +0.116 C 
BRANCH  14  18
ATOM      1  F   UNL     1      -3.415  -9.775   9.542  0.00  0.00    -0.205 F 
ATOM     18  C   UNL     1      -2.634 -10.518  13.528  0.00  0.00    -0.033 A 
ATOM     21  C   UNL     1      -3.926 -10.683  13.028  0.00  0.00    +0.008 A 
ATOM     22  C   UNL     1      -1.606 -10.102  12.681  0.00  0.00    +0.008 A 
ATOM     26  C   UNL     1      -4.190 -10.432  11.681  0.00  0.00    +0.038 A 
ATOM     27  C   UNL     1      -1.871  -9.852  11.335  0.00  0.00    +0.038 A 
ATOM     28  C   UNL     1      -3.162 -10.016  10.835  0.00  0.00    +0.123 A 
ENDBRANCH  14  18
ENDBRANCH   3  14
ENDBRANCH   8   3
TORSDOF 6
ENDMDL
MODEL 10
REMARK VINA RESULT:      -6.3     28.058     30.869
REMARK  Name = 40780411
REMARK  9 active torsions:
REMARK  status: ('A' for Active; 'I' for Inactive)
REMARK    1  A    between atoms: O_2  and  C_25
REMARK    2  A    between atoms: O_2  and  C_29
REMARK    3  A    between atoms: N_3  and  C_8
REMARK    4  A    between atoms: N_3  and  C_14
REMARK    5  A    between atoms: N_4  and  C_17
REMARK    6  A    between atoms: C_6  and  C_9
REMARK    7  A    between atoms: C_12  and  C_15
REMARK    8  A    between atoms: C_13  and  C_16
REMARK    9  A    between atoms: C_14  and  C_18
REMARK                            x       y       z     vdW  Elec       q    Type
REMARK                         _______ _______ _______ _____ _____    ______ ____
ROOT
ATOM      6  C   UNL     1      -3.624 -10.192  11.864  0.00  0.00    +0.047 C 
ATOM      7  C   UNL     1      -4.225 -10.854  13.119  0.00  0.00    +0.035 C 
ATOM      8  C   UNL     1      -3.032 -11.271  13.996  0.00  0.00    +0.078 C 
ATOM     10  C   UNL     1      -2.236 -10.762  11.839  0.00  0.00    -0.021 C 
ATOM     11  C   UNL     1      -1.916 -11.339  13.002  0.00  0.00    -0.012 C 
ENDROOT
BRANCH   6   9
ATOM      4  N   UNL     1      -5.674 -10.224   8.827  0.00  0.00    -0.236 N 
ATOM      5  N   UNL     1      -5.434 -11.545   8.879  0.00  0.00    -0.171 NA
ATOM      9  C   UNL     1      -4.433 -10.443  10.612  0.00  0.00    +0.003 A 
ATOM     12  C   UNL     1      -5.096  -9.518   9.843  0.00  0.00    +0.046 A 
ATOM     13  C   UNL     1      -4.675 -11.672   9.971  0.00  0.00    +0.064 A 
ATOM     15  C   UNL     1      -5.224  -8.054   9.988  0.00  0.00    +0.066 C 
ATOM     16  C   UNL     1      -4.197 -13.008  10.369  0.00  0.00    +0.068 C 
BRANCH   4  17
ATOM     17  C   UNL     1      -6.454  -9.701   7.795  0.00  0.00    +0.066 A 
ATOM     19  C   UNL     1      -7.745  -9.245   8.059  0.00  0.00    +0.031 A 
ATOM     20  C   UNL     1      -5.942  -9.635   6.499  0.00  0.00    +0.031 A 
ATOM     23  C   UNL     1      -8.525  -8.722   7.027  0.00  0.00    +0.048 A 
ATOM     24  C   UNL     1      -6.722  -9.113   5.467  0.00  0.00    +0.048 A 
ATOM     25  C   UNL     1      -8.012  -8.657   5.731  0.00  0.00    +0.120 A 
BRANCH  25   2
ATOM      2  O   UNL     1      -8.774  -8.148   4.724  0.00  0.00    -0.495 OA
ATOM     29  C   UNL     1      -8.198  -8.134   3.419  0.00  0.00    +0.277 C 
ENDBRANCH  25   2
ENDBRANCH   4  17
ENDBRANCH   6   9
BRANCH   8   3
ATOM      3  N   UNL     1      -2.755 -10.295  15.043  0.00  0.00    -0.306 NA
ATOM     30  H   UNL     1      -3.519  -9.619  15.084  0.00  0.00    +0.123 HD
BRANCH   3  14
ATOM     14  C   UNL     1      -2.625 -10.944  16.342  0.00  0.00    +0.116 C 
BRANCH  14  18
ATOM      1  F   UNL     1      -7.463 -10.839  19.230  0.00  0.00    -0.205 F 
ATOM     18  C   UNL     1      -3.918 -10.916  17.113  0.00  0.00    -0.033 A 
ATOM     21  C   UNL     1      -4.962 -10.091  16.695  0.00  0.00    +0.008 A 
ATOM     22  C   UNL     1      -4.072 -11.716  18.246  0.00  0.00    +0.008 A 
ATOM     26  C   UNL     1      -6.159 -10.065  17.410  0.00  0.00    +0.038 A 
ATOM     27  C   UNL     1      -5.269 -11.689  18.961  0.00  0.00    +0.038 A 
ATOM     28  C   UNL     1      -6.313 -10.864  18.543  0.00  0.00    +0.123 A 
ENDBRANCH  14  18
ENDBRANCH   3  14
ENDBRANCH   8   3
TORSDOF 6
ENDMDL
