MODEL 1
REMARK VINA RESULT:      -6.9      0.000      0.000
REMARK  Name = 25388766
REMARK  10 active torsions:
REMARK  status: ('A' for Active; 'I' for Inactive)
REMARK    1  A    between atoms: O_5  and  C_29
REMARK    2  A    between atoms: O_5  and  C_30
REMARK    3  A    between atoms: N_7  and  C_17
REMARK    4  A    between atoms: N_7  and  C_19
REMARK    5  A    between atoms: N_7  and  C_20
REMARK    6  A    between atoms: N_8  and  C_18
REMARK    7  A    between atoms: N_9  and  C_24
REMARK    8  A    between atoms: C_11  and  C_17
REMARK    9  A    between atoms: C_12  and  C_18
REMARK   10  A    between atoms: C_19  and  C_22
REMARK                            x       y       z     vdW  Elec       q    Type
REMARK                         _______ _______ _______ _____ _____    ______ ____
ROOT
ATOM      4  O   UNL     1      19.097   6.808  21.874  0.00  0.00    -0.253 OA
ATOM      8  N   UNL     1      17.780   6.699  19.978  0.00  0.00    -0.298 N 
ATOM      9  N   UNL     1      19.719   5.487  20.035  0.00  0.00    -0.269 N 
ATOM     21  C   UNL     1      18.897   6.368  20.744  0.00  0.00    +0.304 C 
ATOM     31  H   UNL     1      17.707   6.336  19.034  0.00  0.00    +0.150 HD
ATOM     32  H   UNL     1      19.406   5.221  19.105  0.00  0.00    +0.156 HD
ENDROOT
BRANCH   9  24
ATOM     24  C   UNL     1      20.942   4.915  20.453  0.00  0.00    +0.035 A 
ATOM     25  C   UNL     1      22.123   5.651  20.366  0.00  0.00    +0.027 A 
ATOM     26  C   UNL     1      20.967   3.612  20.953  0.00  0.00    +0.027 A 
ATOM     27  C   UNL     1      23.330   5.086  20.778  0.00  0.00    +0.048 A 
ATOM     28  C   UNL     1      22.174   3.047  21.366  0.00  0.00    +0.048 A 
ATOM     29  C   UNL     1      23.356   3.784  21.278  0.00  0.00    +0.130 A 
BRANCH  29   5
ATOM      5  O   UNL     1      24.533   3.232  21.680  0.00  0.00    -0.406 OA
BRANCH   5  30
ATOM      1  F   UNL     1      24.778   1.047  21.168  0.00  0.00    -0.133 F 
ATOM      2  F   UNL     1      24.809   2.496  19.532  0.00  0.00    -0.133 F 
ATOM      3  F   UNL     1      26.511   2.358  20.936  0.00  0.00    -0.133 F 
ATOM     30  C   UNL     1      25.168   2.294  20.818  0.00  0.00    +0.575 C 
ENDBRANCH   5  30
ENDBRANCH  29   5
ENDBRANCH   9  24
BRANCH   8  18
ATOM     18  C   UNL     1      16.742   7.600  20.450  0.00  0.00    +0.124 C 
BRANCH  18  12
ATOM      6  N   UNL     1      15.112   9.125  19.304  0.00  0.00    -0.298 NA
ATOM     10  C   UNL     1      13.126   7.456  19.496  0.00  0.00    -0.003 C 
ATOM     11  C   UNL     1      13.002   8.583  20.546  0.00  0.00    +0.020 C 
ATOM     12  C   UNL     1      15.625   7.732  19.411  0.00  0.00    +0.074 C 
ATOM     13  C   UNL     1      14.475   6.735  19.676  0.00  0.00    +0.024 C 
ATOM     14  C   UNL     1      14.275   9.458  20.482  0.00  0.00    +0.089 C 
ATOM     15  C   UNL     1      13.153   8.133  18.113  0.00  0.00    +0.019 C 
ATOM     16  C   UNL     1      14.258   9.204  18.094  0.00  0.00    +0.085 C 
BRANCH  11  17
ATOM     17  C   UNL     1      12.745   8.065  21.959  0.00  0.00    +0.089 C 
BRANCH  17   7
ATOM      7  N   UNL     1      11.353   8.254  22.335  0.00  0.00    -0.301 NA
ATOM     20  C   UNL     1      10.528   7.146  21.848  0.00  0.00    +0.105 C 
BRANCH   7  19
ATOM     19  C   UNL     1      10.843   9.527  21.819  0.00  0.00    +0.110 C 
BRANCH  19  22
ATOM     22  C   UNL     1      11.132  10.658  22.758  0.00  0.00    -0.019 C 
ATOM     23  C   UNL     1      11.187  11.943  22.386  0.00  0.00    +0.005 C 
ENDBRANCH  19  22
ENDBRANCH   7  19
ENDBRANCH  17   7
ENDBRANCH  11  17
ENDBRANCH  18  12
ENDBRANCH   8  18
TORSDOF 9
ENDMDL
MODEL 2
REMARK VINA RESULT:      -6.5      1.145      2.241
REMARK  Name = 25388766
REMARK  10 active torsions:
REMARK  status: ('A' for Active; 'I' for Inactive)
REMARK    1  A    between atoms: O_5  and  C_29
REMARK    2  A    between atoms: O_5  and  C_30
REMARK    3  A    between atoms: N_7  and  C_17
REMARK    4  A    between atoms: N_7  and  C_19
REMARK    5  A    between atoms: N_7  and  C_20
REMARK    6  A    between atoms: N_8  and  C_18
REMARK    7  A    between atoms: N_9  and  C_24
REMARK    8  A    between atoms: C_11  and  C_17
REMARK    9  A    between atoms: C_12  and  C_18
REMARK   10  A    between atoms: C_19  and  C_22
REMARK                            x       y       z     vdW  Elec       q    Type
REMARK                         _______ _______ _______ _____ _____    ______ ____
ROOT
ATOM      4  O   UNL     1      19.209   6.604  22.308  0.00  0.00    -0.253 OA
ATOM      8  N   UNL     1      17.811   6.685  20.470  0.00  0.00    -0.298 N 
ATOM      9  N   UNL     1      19.830   5.631  20.264  0.00  0.00    -0.269 N 
ATOM     21  C   UNL     1      18.984   6.328  21.132  0.00  0.00    +0.304 C 
ATOM     31  H   UNL     1      17.717   6.465  19.484  0.00  0.00    +0.150 HD
ATOM     32  H   UNL     1      19.491   5.486  19.316  0.00  0.00    +0.156 HD
ENDROOT
BRANCH   9  24
ATOM     24  C   UNL     1      21.109   5.097  20.541  0.00  0.00    +0.035 A 
ATOM     25  C   UNL     1      21.236   3.774  20.964  0.00  0.00    +0.027 A 
ATOM     26  C   UNL     1      22.245   5.893  20.389  0.00  0.00    +0.027 A 
ATOM     27  C   UNL     1      22.498   3.247  21.238  0.00  0.00    +0.048 A 
ATOM     28  C   UNL     1      23.508   5.365  20.662  0.00  0.00    +0.048 A 
ATOM     29  C   UNL     1      23.634   4.042  21.087  0.00  0.00    +0.130 A 
BRANCH  29   5
ATOM      5  O   UNL     1      24.866   3.528  21.353  0.00  0.00    -0.406 OA
BRANCH   5  30
ATOM      1  F   UNL     1      24.889   2.748  19.235  0.00  0.00    -0.133 F 
ATOM      2  F   UNL     1      26.732   2.609  20.401  0.00  0.00    -0.133 F 
ATOM      3  F   UNL     1      25.014   1.298  20.866  0.00  0.00    -0.133 F 
ATOM     30  C   UNL     1      25.386   2.536  20.475  0.00  0.00    +0.575 C 
ENDBRANCH   5  30
ENDBRANCH  29   5
ENDBRANCH   9  24
BRANCH   8  18
ATOM     18  C   UNL     1      16.737   7.421  21.115  0.00  0.00    +0.124 C 
BRANCH  18  12
ATOM      6  N   UNL     1      16.286   9.884  20.960  0.00  0.00    -0.298 NA
ATOM     10  C   UNL     1      14.022   9.583  19.715  0.00  0.00    -0.003 C 
ATOM     11  C   UNL     1      13.791   9.926  21.204  0.00  0.00    +0.020 C 
ATOM     12  C   UNL     1      16.271   8.585  20.236  0.00  0.00    +0.074 C 
ATOM     13  C   UNL     1      14.885   8.312  19.611  0.00  0.00    +0.024 C 
ATOM     14  C   UNL     1      15.160   9.950  21.922  0.00  0.00    +0.089 C 
ATOM     15  C   UNL     1      14.841  10.740  19.111  0.00  0.00    +0.019 C 
ATOM     16  C   UNL     1      16.104  10.965  19.961  0.00  0.00    +0.085 C 
BRANCH  11  17
ATOM     17  C   UNL     1      12.809   8.982  21.894  0.00  0.00    +0.089 C 
BRANCH  17   7
ATOM      7  N   UNL     1      11.449   9.229  21.444  0.00  0.00    -0.301 NA
ATOM     20  C   UNL     1      10.573   9.527  22.580  0.00  0.00    +0.105 C 
BRANCH   7  19
ATOM     19  C   UNL     1      10.932   8.078  20.698  0.00  0.00    +0.110 C 
BRANCH  19  22
ATOM     22  C   UNL     1      11.674   6.822  21.037  0.00  0.00    -0.019 C 
ATOM     23  C   UNL     1      11.102   5.737  21.573  0.00  0.00    +0.005 C 
ENDBRANCH  19  22
ENDBRANCH   7  19
ENDBRANCH  17   7
ENDBRANCH  11  17
ENDBRANCH  18  12
ENDBRANCH   8  18
TORSDOF 9
ENDMDL
MODEL 3
REMARK VINA RESULT:      -6.4     30.545     33.646
REMARK  Name = 25388766
REMARK  10 active torsions:
REMARK  status: ('A' for Active; 'I' for Inactive)
REMARK    1  A    between atoms: O_5  and  C_29
REMARK    2  A    between atoms: O_5  and  C_30
REMARK    3  A    between atoms: N_7  and  C_17
REMARK    4  A    between atoms: N_7  and  C_19
REMARK    5  A    between atoms: N_7  and  C_20
REMARK    6  A    between atoms: N_8  and  C_18
REMARK    7  A    between atoms: N_9  and  C_24
REMARK    8  A    between atoms: C_11  and  C_17
REMARK    9  A    between atoms: C_12  and  C_18
REMARK   10  A    between atoms: C_19  and  C_22
REMARK                            x       y       z     vdW  Elec       q    Type
REMARK                         _______ _______ _______ _____ _____    ______ ____
ROOT
ATOM      4  O   UNL     1     -15.466   5.192  31.586  0.00  0.00    -0.253 OA
ATOM      8  N   UNL     1     -14.366   5.811  33.521  0.00  0.00    -0.298 N 
ATOM      9  N   UNL     1     -14.069   3.688  32.725  0.00  0.00    -0.269 N 
ATOM     21  C   UNL     1     -14.709   4.913  32.512  0.00  0.00    +0.304 C 
ATOM     31  H   UNL     1     -13.773   5.494  34.281  0.00  0.00    +0.150 HD
ATOM     32  H   UNL     1     -13.471   3.622  33.545  0.00  0.00    +0.156 HD
ENDROOT
BRANCH   9  24
ATOM     24  C   UNL     1     -14.149   2.518  31.935  0.00  0.00    +0.035 A 
ATOM     25  C   UNL     1     -13.611   2.507  30.648  0.00  0.00    +0.027 A 
ATOM     26  C   UNL     1     -14.765   1.375  32.444  0.00  0.00    +0.027 A 
ATOM     27  C   UNL     1     -13.690   1.352  29.869  0.00  0.00    +0.048 A 
ATOM     28  C   UNL     1     -14.844   0.220  31.665  0.00  0.00    +0.048 A 
ATOM     29  C   UNL     1     -14.307   0.209  30.377  0.00  0.00    +0.130 A 
BRANCH  29   5
ATOM      5  O   UNL     1     -14.384  -0.917  29.617  0.00  0.00    -0.406 OA
BRANCH   5  30
ATOM      1  F   UNL     1     -13.378  -2.848  29.019  0.00  0.00    -0.133 F 
ATOM      2  F   UNL     1     -12.771  -1.014  27.998  0.00  0.00    -0.133 F 
ATOM      3  F   UNL     1     -12.194  -1.365  30.102  0.00  0.00    -0.133 F 
ATOM     30  C   UNL     1     -13.170  -1.522  29.183  0.00  0.00    +0.575 C 
ENDBRANCH   5  30
ENDBRANCH  29   5
ENDBRANCH   9  24
BRANCH   8  18
ATOM     18  C   UNL     1     -14.878   7.170  33.572  0.00  0.00    +0.124 C 
BRANCH  18  12
ATOM      6  N   UNL     1     -14.343   9.504  34.324  0.00  0.00    -0.298 NA
ATOM     10  C   UNL     1     -12.119   9.629  32.981  0.00  0.00    -0.003 C 
ATOM     11  C   UNL     1     -13.238  10.423  32.270  0.00  0.00    +0.020 C 
ATOM     12  C   UNL     1     -13.809   8.134  34.094  0.00  0.00    +0.074 C 
ATOM     13  C   UNL     1     -12.570   8.169  33.172  0.00  0.00    +0.024 C 
ATOM     14  C   UNL     1     -14.563  10.194  33.031  0.00  0.00    +0.089 C 
ATOM     15  C   UNL     1     -11.958  10.243  34.385  0.00  0.00    +0.019 C 
ATOM     16  C   UNL     1     -13.327  10.267  35.088  0.00  0.00    +0.085 C 
BRANCH  11  17
ATOM     17  C   UNL     1     -13.372  10.078  30.788  0.00  0.00    +0.089 C 
BRANCH  17   7
ATOM      7  N   UNL     1     -12.447  10.863  29.987  0.00  0.00    -0.301 NA
ATOM     20  C   UNL     1     -13.171  11.808  29.134  0.00  0.00    +0.105 C 
BRANCH   7  19
ATOM     19  C   UNL     1     -11.601   9.991  29.167  0.00  0.00    +0.110 C 
BRANCH  19  22
ATOM     22  C   UNL     1     -11.246  10.636  27.863  0.00  0.00    -0.019 C 
ATOM     23  C   UNL     1     -10.357  10.133  26.997  0.00  0.00    +0.005 C 
ENDBRANCH  19  22
ENDBRANCH   7  19
ENDBRANCH  17   7
ENDBRANCH  11  17
ENDBRANCH  18  12
ENDBRANCH   8  18
TORSDOF 9
ENDMDL
MODEL 4
REMARK VINA RESULT:      -6.4      2.340      3.744
REMARK  Name = 25388766
REMARK  10 active torsions:
REMARK  status: ('A' for Active; 'I' for Inactive)
REMARK    1  A    between atoms: O_5  and  C_29
REMARK    2  A    between atoms: O_5  and  C_30
REMARK    3  A    between atoms: N_7  and  C_17
REMARK    4  A    between atoms: N_7  and  C_19
REMARK    5  A    between atoms: N_7  and  C_20
REMARK    6  A    between atoms: N_8  and  C_18
REMARK    7  A    between atoms: N_9  and  C_24
REMARK    8  A    between atoms: C_11  and  C_17
REMARK    9  A    between atoms: C_12  and  C_18
REMARK   10  A    between atoms: C_19  and  C_22
REMARK                            x       y       z     vdW  Elec       q    Type
REMARK                         _______ _______ _______ _____ _____    ______ ____
ROOT
ATOM      4  O   UNL     1      18.795  10.185  21.687  0.00  0.00    -0.253 OA
ATOM      8  N   UNL     1      16.551   9.919  22.169  0.00  0.00    -0.298 N 
ATOM      9  N   UNL     1      17.860   8.053  21.990  0.00  0.00    -0.269 N 
ATOM     21  C   UNL     1      17.840   9.449  21.924  0.00  0.00    +0.304 C 
ATOM     31  H   UNL     1      15.802   9.249  22.309  0.00  0.00    +0.150 HD
ATOM     32  H   UNL     1      16.977   7.593  22.197  0.00  0.00    +0.156 HD
ENDROOT
BRANCH   9  24
ATOM     24  C   UNL     1      18.965   7.191  21.803  0.00  0.00    +0.035 A 
ATOM     25  C   UNL     1      19.113   6.496  20.602  0.00  0.00    +0.027 A 
ATOM     26  C   UNL     1      19.908   7.035  22.819  0.00  0.00    +0.027 A 
ATOM     27  C   UNL     1      20.203   5.645  20.418  0.00  0.00    +0.048 A 
ATOM     28  C   UNL     1      20.999   6.184  22.635  0.00  0.00    +0.048 A 
ATOM     29  C   UNL     1      21.146   5.489  21.434  0.00  0.00    +0.130 A 
BRANCH  29   5
ATOM      5  O   UNL     1      22.209   4.659  21.254  0.00  0.00    -0.406 OA
BRANCH   5  30
ATOM      1  F   UNL     1      23.107   2.603  21.011  0.00  0.00    -0.133 F 
ATOM      2  F   UNL     1      21.890   2.989  22.784  0.00  0.00    -0.133 F 
ATOM      3  F   UNL     1      20.942   2.812  20.795  0.00  0.00    -0.133 F 
ATOM     30  C   UNL     1      22.021   3.265  21.469  0.00  0.00    +0.575 C 
ENDBRANCH   5  30
ENDBRANCH  29   5
ENDBRANCH   9  24
BRANCH   8  18
ATOM     18  C   UNL     1      16.216  11.333  22.167  0.00  0.00    +0.124 C 
BRANCH  18  12
ATOM      6  N   UNL     1      13.990  12.193  21.392  0.00  0.00    -0.298 NA
ATOM     10  C   UNL     1      13.704  10.358  19.570  0.00  0.00    -0.003 C 
ATOM     11  C   UNL     1      12.830  10.047  20.807  0.00  0.00    +0.020 C 
ATOM     12  C   UNL     1      15.321  11.678  20.973  0.00  0.00    +0.074 C 
ATOM     13  C   UNL     1      15.176  10.484  20.003  0.00  0.00    +0.024 C 
ATOM     14  C   UNL     1      13.149  11.086  21.907  0.00  0.00    +0.089 C 
ATOM     15  C   UNL     1      13.262  11.737  19.045  0.00  0.00    +0.019 C 
ATOM     16  C   UNL     1      13.323  12.760  20.194  0.00  0.00    +0.085 C 
BRANCH  11  17
ATOM     17  C   UNL     1      12.995   8.618  21.317  0.00  0.00    +0.089 C 
BRANCH  17   7
ATOM      7  N   UNL     1      12.197   7.691  20.531  0.00  0.00    -0.301 NA
ATOM     20  C   UNL     1      11.339   6.880  21.398  0.00  0.00    +0.105 C 
BRANCH   7  19
ATOM     19  C   UNL     1      13.055   6.826  19.718  0.00  0.00    +0.110 C 
BRANCH  19  22
ATOM     22  C   UNL     1      14.450   6.768  20.260  0.00  0.00    -0.019 C 
ATOM     23  C   UNL     1      15.546   6.674  19.497  0.00  0.00    +0.005 C 
ENDBRANCH  19  22
ENDBRANCH   7  19
ENDBRANCH  17   7
ENDBRANCH  11  17
ENDBRANCH  18  12
ENDBRANCH   8  18
TORSDOF 9
ENDMDL
MODEL 5
REMARK VINA RESULT:      -6.3     30.659     33.985
REMARK  Name = 25388766
REMARK  10 active torsions:
REMARK  status: ('A' for Active; 'I' for Inactive)
REMARK    1  A    between atoms: O_5  and  C_29
REMARK    2  A    between atoms: O_5  and  C_30
REMARK    3  A    between atoms: N_7  and  C_17
REMARK    4  A    between atoms: N_7  and  C_19
REMARK    5  A    between atoms: N_7  and  C_20
REMARK    6  A    between atoms: N_8  and  C_18
REMARK    7  A    between atoms: N_9  and  C_24
REMARK    8  A    between atoms: C_11  and  C_17
REMARK    9  A    between atoms: C_12  and  C_18
REMARK   10  A    between atoms: C_19  and  C_22
REMARK                            x       y       z     vdW  Elec       q    Type
REMARK                         _______ _______ _______ _____ _____    ______ ____
ROOT
ATOM      4  O   UNL     1     -14.627   3.923  24.483  0.00  0.00    -0.253 OA
ATOM      8  N   UNL     1     -16.553   2.787  23.902  0.00  0.00    -0.298 N 
ATOM      9  N   UNL     1     -15.669   4.277  22.410  0.00  0.00    -0.269 N 
ATOM     21  C   UNL     1     -15.520   3.694  23.672  0.00  0.00    +0.304 C 
ATOM     31  H   UNL     1     -17.283   2.685  23.205  0.00  0.00    +0.150 HD
ATOM     32  H   UNL     1     -16.469   3.975  21.859  0.00  0.00    +0.156 HD
ENDROOT
BRANCH   9  24
ATOM     24  C   UNL     1     -14.839   5.243  21.796  0.00  0.00    +0.035 A 
ATOM     25  C   UNL     1     -15.395   6.212  20.961  0.00  0.00    +0.027 A 
ATOM     26  C   UNL     1     -13.463   5.227  22.027  0.00  0.00    +0.027 A 
ATOM     27  C   UNL     1     -14.576   7.165  20.355  0.00  0.00    +0.048 A 
ATOM     28  C   UNL     1     -12.644   6.181  21.421  0.00  0.00    +0.048 A 
ATOM     29  C   UNL     1     -13.200   7.149  20.585  0.00  0.00    +0.130 A 
BRANCH  29   5
ATOM      5  O   UNL     1     -12.401   8.079  19.994  0.00  0.00    -0.406 OA
BRANCH   5  30
ATOM      1  F   UNL     1     -11.202   6.541  18.858  0.00  0.00    -0.133 F 
ATOM      2  F   UNL     1     -12.712   7.680  17.763  0.00  0.00    -0.133 F 
ATOM      3  F   UNL     1     -10.840   8.652  18.424  0.00  0.00    -0.133 F 
ATOM     30  C   UNL     1     -11.793   7.753  18.750  0.00  0.00    +0.575 C 
ENDBRANCH   5  30
ENDBRANCH  29   5
ENDBRANCH   9  24
BRANCH   8  18
ATOM     18  C   UNL     1     -16.668   2.022  25.133  0.00  0.00    +0.124 C 
BRANCH  18  12
ATOM      6  N   UNL     1     -16.797   3.801  26.898  0.00  0.00    -0.298 NA
ATOM     10  C   UNL     1     -18.166   2.328  28.548  0.00  0.00    -0.003 C 
ATOM     11  C   UNL     1     -16.684   2.410  28.981  0.00  0.00    +0.020 C 
ATOM     12  C   UNL     1     -17.547   2.757  26.148  0.00  0.00    +0.074 C 
ATOM     13  C   UNL     1     -18.249   1.776  27.114  0.00  0.00    +0.024 C 
ATOM     14  C   UNL     1     -15.895   3.172  27.892  0.00  0.00    +0.089 C 
ATOM     15  C   UNL     1     -18.702   3.772  28.513  0.00  0.00    +0.019 C 
ATOM     16  C   UNL     1     -17.783   4.633  27.630  0.00  0.00    +0.085 C 
BRANCH  11  17
ATOM     17  C   UNL     1     -16.066   1.046  29.274  0.00  0.00    +0.089 C 
BRANCH  17   7
ATOM      7  N   UNL     1     -14.683   1.184  29.704  0.00  0.00    -0.301 NA
ATOM     20  C   UNL     1     -14.062  -0.131  29.883  0.00  0.00    +0.105 C 
BRANCH   7  19
ATOM     19  C   UNL     1     -14.600   1.955  30.947  0.00  0.00    +0.110 C 
BRANCH  19  22
ATOM     22  C   UNL     1     -14.768   1.079  32.151  0.00  0.00    -0.019 C 
ATOM     23  C   UNL     1     -14.754   1.530  33.411  0.00  0.00    +0.005 C 
ENDBRANCH  19  22
ENDBRANCH   7  19
ENDBRANCH  17   7
ENDBRANCH  11  17
ENDBRANCH  18  12
ENDBRANCH   8  18
TORSDOF 9
ENDMDL
MODEL 6
REMARK VINA RESULT:      -6.2     17.444     20.041
REMARK  Name = 25388766
REMARK  10 active torsions:
REMARK  status: ('A' for Active; 'I' for Inactive)
REMARK    1  A    between atoms: O_5  and  C_29
REMARK    2  A    between atoms: O_5  and  C_30
REMARK    3  A    between atoms: N_7  and  C_17
REMARK    4  A    between atoms: N_7  and  C_19
REMARK    5  A    between atoms: N_7  and  C_20
REMARK    6  A    between atoms: N_8  and  C_18
REMARK    7  A    between atoms: N_9  and  C_24
REMARK    8  A    between atoms: C_11  and  C_17
REMARK    9  A    between atoms: C_12  and  C_18
REMARK   10  A    between atoms: C_19  and  C_22
REMARK                            x       y       z     vdW  Elec       q    Type
REMARK                         _______ _______ _______ _____ _____    ______ ____
ROOT
ATOM      4  O   UNL     1      12.160   7.128   2.916  0.00  0.00    -0.253 OA
ATOM      8  N   UNL     1      11.974   5.864   4.841  0.00  0.00    -0.298 N 
ATOM      9  N   UNL     1      12.020   4.786   2.825  0.00  0.00    -0.269 N 
ATOM     21  C   UNL     1      12.062   6.030   3.461  0.00  0.00    +0.304 C 
ATOM     31  H   UNL     1      11.846   4.929   5.217  0.00  0.00    +0.150 HD
ATOM     32  H   UNL     1      11.936   3.970   3.426  0.00  0.00    +0.156 HD
ENDROOT
BRANCH   9  24
ATOM     24  C   UNL     1      12.081   4.516   1.439  0.00  0.00    +0.035 A 
ATOM     25  C   UNL     1      10.929   4.612   0.658  0.00  0.00    +0.027 A 
ATOM     26  C   UNL     1      13.294   4.155   0.851  0.00  0.00    +0.027 A 
ATOM     27  C   UNL     1      10.989   4.346  -0.710  0.00  0.00    +0.048 A 
ATOM     28  C   UNL     1      13.354   3.889  -0.518  0.00  0.00    +0.048 A 
ATOM     29  C   UNL     1      12.201   3.984  -1.298  0.00  0.00    +0.130 A 
BRANCH  29   5
ATOM      5  O   UNL     1      12.260   3.725  -2.633  0.00  0.00    -0.406 OA
BRANCH   5  30
ATOM      1  F   UNL     1      10.774   2.325  -3.595  0.00  0.00    -0.133 F 
ATOM      2  F   UNL     1      12.894   2.032  -4.034  0.00  0.00    -0.133 F 
ATOM      3  F   UNL     1      12.085   1.523  -2.042  0.00  0.00    -0.133 F 
ATOM     30  C   UNL     1      12.019   2.393  -3.072  0.00  0.00    +0.575 C 
ENDBRANCH   5  30
ENDBRANCH  29   5
ENDBRANCH   9  24
BRANCH   8  18
ATOM     18  C   UNL     1      11.991   6.980   5.771  0.00  0.00    +0.124 C 
BRANCH  18  12
ATOM      6  N   UNL     1      10.062   5.674   6.705  0.00  0.00    -0.298 NA
ATOM     10  C   UNL     1       9.028   7.720   7.934  0.00  0.00    -0.003 C 
ATOM     11  C   UNL     1       8.245   7.401   6.640  0.00  0.00    +0.020 C 
ATOM     12  C   UNL     1      11.117   6.683   6.993  0.00  0.00    +0.074 C 
ATOM     13  C   UNL     1      10.507   7.972   7.588  0.00  0.00    +0.024 C 
ATOM     14  C   UNL     1       8.986   6.277   5.881  0.00  0.00    +0.089 C 
ATOM     15  C   UNL     1       8.973   6.456   8.813  0.00  0.00    +0.019 C 
ATOM     16  C   UNL     1       9.472   5.250   7.997  0.00  0.00    +0.085 C 
BRANCH  11  17
ATOM     17  C   UNL     1       8.020   8.625   5.755  0.00  0.00    +0.089 C 
BRANCH  17   7
ATOM      7  N   UNL     1       8.762   8.508   4.510  0.00  0.00    -0.301 NA
ATOM     20  C   UNL     1       9.772   9.564   4.406  0.00  0.00    +0.105 C 
BRANCH   7  19
ATOM     19  C   UNL     1       7.857   8.560   3.359  0.00  0.00    +0.110 C 
BRANCH  19  22
ATOM     22  C   UNL     1       6.754   9.551   3.569  0.00  0.00    -0.019 C 
ATOM     23  C   UNL     1       6.130  10.196   2.576  0.00  0.00    +0.005 C 
ENDBRANCH  19  22
ENDBRANCH   7  19
ENDBRANCH  17   7
ENDBRANCH  11  17
ENDBRANCH  18  12
ENDBRANCH   8  18
TORSDOF 9
ENDMDL
MODEL 7
REMARK VINA RESULT:      -6.2     28.508     31.661
REMARK  Name = 25388766
REMARK  10 active torsions:
REMARK  status: ('A' for Active; 'I' for Inactive)
REMARK    1  A    between atoms: O_5  and  C_29
REMARK    2  A    between atoms: O_5  and  C_30
REMARK    3  A    between atoms: N_7  and  C_17
REMARK    4  A    between atoms: N_7  and  C_19
REMARK    5  A    between atoms: N_7  and  C_20
REMARK    6  A    between atoms: N_8  and  C_18
REMARK    7  A    between atoms: N_9  and  C_24
REMARK    8  A    between atoms: C_11  and  C_17
REMARK    9  A    between atoms: C_12  and  C_18
REMARK   10  A    between atoms: C_19  and  C_22
REMARK                            x       y       z     vdW  Elec       q    Type
REMARK                         _______ _______ _______ _____ _____    ______ ____
ROOT
ATOM      4  O   UNL     1      -8.628 -12.704  18.638  0.00  0.00    -0.253 OA
ATOM      8  N   UNL     1      -9.744 -11.213  20.006  0.00  0.00    -0.298 N 
ATOM      9  N   UNL     1      -7.712 -10.604  19.151  0.00  0.00    -0.269 N 
ATOM     21  C   UNL     1      -8.678 -11.614  19.203  0.00  0.00    +0.304 C 
ATOM     31  H   UNL     1      -9.693 -10.316  20.480  0.00  0.00    +0.150 HD
ATOM     32  H   UNL     1      -7.909  -9.757  19.679  0.00  0.00    +0.156 HD
ENDROOT
BRANCH   9  24
ATOM     24  C   UNL     1      -6.485 -10.611  18.450  0.00  0.00    +0.035 A 
ATOM     25  C   UNL     1      -6.372  -9.939  17.232  0.00  0.00    +0.027 A 
ATOM     26  C   UNL     1      -5.385 -11.291  18.975  0.00  0.00    +0.027 A 
ATOM     27  C   UNL     1      -5.162  -9.947  16.540  0.00  0.00    +0.048 A 
ATOM     28  C   UNL     1      -4.174 -11.298  18.283  0.00  0.00    +0.048 A 
ATOM     29  C   UNL     1      -4.062 -10.626  17.065  0.00  0.00    +0.130 A 
BRANCH  29   5
ATOM      5  O   UNL     1      -2.881 -10.633  16.390  0.00  0.00    -0.406 OA
BRANCH   5  30
ATOM      1  F   UNL     1      -3.113 -10.702  14.145  0.00  0.00    -0.133 F 
ATOM      2  F   UNL     1      -1.509 -11.880  15.049  0.00  0.00    -0.133 F 
ATOM      3  F   UNL     1      -3.619 -12.496  15.287  0.00  0.00    -0.133 F 
ATOM     30  C   UNL     1      -2.775 -11.444  15.225  0.00  0.00    +0.575 C 
ENDBRANCH   5  30
ENDBRANCH  29   5
ENDBRANCH   9  24
BRANCH   8  18
ATOM     18  C   UNL     1     -10.903 -12.054  20.252  0.00  0.00    +0.124 C 
BRANCH  18  12
ATOM      6  N   UNL     1     -12.740 -11.962  18.545  0.00  0.00    -0.298 NA
ATOM     10  C   UNL     1     -12.657  -9.371  18.320  0.00  0.00    -0.003 C 
ATOM     11  C   UNL     1     -11.965 -10.052  17.117  0.00  0.00    +0.020 C 
ATOM     12  C   UNL     1     -12.186 -11.359  19.788  0.00  0.00    +0.074 C 
ATOM     13  C   UNL     1     -11.986  -9.836  19.625  0.00  0.00    +0.024 C 
ATOM     14  C   UNL     1     -11.916 -11.575  17.374  0.00  0.00    +0.089 C 
ATOM     15  C   UNL     1     -14.110  -9.882  18.347  0.00  0.00    +0.019 C 
ATOM     16  C   UNL     1     -14.107 -11.421  18.346  0.00  0.00    +0.085 C 
BRANCH  11  17
ATOM     17  C   UNL     1     -10.578  -9.486  16.821  0.00  0.00    +0.089 C 
BRANCH  17   7
ATOM      7  N   UNL     1     -10.632  -8.522  15.734  0.00  0.00    -0.301 NA
ATOM     20  C   UNL     1      -9.829  -8.976  14.596  0.00  0.00    +0.105 C 
BRANCH   7  19
ATOM     19  C   UNL     1     -10.169  -7.206  16.184  0.00  0.00    +0.110 C 
BRANCH  19  22
ATOM     22  C   UNL     1     -11.304  -6.237  16.312  0.00  0.00    -0.019 C 
ATOM     23  C   UNL     1     -12.539  -6.466  15.850  0.00  0.00    +0.005 C 
ENDBRANCH  19  22
ENDBRANCH   7  19
ENDBRANCH  17   7
ENDBRANCH  11  17
ENDBRANCH  18  12
ENDBRANCH   8  18
TORSDOF 9
ENDMDL
MODEL 8
REMARK VINA RESULT:      -6.1     27.792     31.434
REMARK  Name = 25388766
REMARK  10 active torsions:
REMARK  status: ('A' for Active; 'I' for Inactive)
REMARK    1  A    between atoms: O_5  and  C_29
REMARK    2  A    between atoms: O_5  and  C_30
REMARK    3  A    between atoms: N_7  and  C_17
REMARK    4  A    between atoms: N_7  and  C_19
REMARK    5  A    between atoms: N_7  and  C_20
REMARK    6  A    between atoms: N_8  and  C_18
REMARK    7  A    between atoms: N_9  and  C_24
REMARK    8  A    between atoms: C_11  and  C_17
REMARK    9  A    between atoms: C_12  and  C_18
REMARK   10  A    between atoms: C_19  and  C_22
REMARK                            x       y       z     vdW  Elec       q    Type
REMARK                         _______ _______ _______ _____ _____    ______ ____
ROOT
ATOM      4  O   UNL     1      -8.689 -12.678  17.400  0.00  0.00    -0.253 OA
ATOM      8  N   UNL     1      -8.831 -12.863  19.699  0.00  0.00    -0.298 N 
ATOM      9  N   UNL     1      -6.858 -12.165  18.777  0.00  0.00    -0.269 N 
ATOM     21  C   UNL     1      -8.168 -12.575  18.507  0.00  0.00    +0.304 C 
ATOM     31  H   UNL     1      -8.320 -12.802  20.574  0.00  0.00    +0.150 HD
ATOM     32  H   UNL     1      -6.582 -12.134  19.755  0.00  0.00    +0.156 HD
ENDROOT
BRANCH   9  24
ATOM     24  C   UNL     1      -5.860 -11.784  17.851  0.00  0.00    +0.035 A 
ATOM     25  C   UNL     1      -5.296 -12.735  17.001  0.00  0.00    +0.027 A 
ATOM     26  C   UNL     1      -5.439 -10.455  17.788  0.00  0.00    +0.027 A 
ATOM     27  C   UNL     1      -4.311 -12.359  16.088  0.00  0.00    +0.048 A 
ATOM     28  C   UNL     1      -4.454 -10.078  16.874  0.00  0.00    +0.048 A 
ATOM     29  C   UNL     1      -3.890 -11.031  16.025  0.00  0.00    +0.130 A 
BRANCH  29   5
ATOM      5  O   UNL     1      -2.929 -10.664  15.133  0.00  0.00    -0.406 OA
BRANCH   5  30
ATOM      1  F   UNL     1      -0.975 -11.784  14.988  0.00  0.00    -0.133 F 
ATOM      2  F   UNL     1      -0.900  -9.607  15.150  0.00  0.00    -0.133 F 
ATOM      3  F   UNL     1      -1.478 -10.838  16.892  0.00  0.00    -0.133 F 
ATOM     30  C   UNL     1      -1.569 -10.708  15.552  0.00  0.00    +0.575 C 
ENDBRANCH   5  30
ENDBRANCH  29   5
ENDBRANCH   9  24
BRANCH   8  18
ATOM     18  C   UNL     1     -10.212 -13.316  19.740  0.00  0.00    +0.124 C 
BRANCH  18  12
ATOM      6  N   UNL     1     -12.510 -12.322  19.894  0.00  0.00    -0.298 NA
ATOM     10  C   UNL     1     -11.655  -9.865  19.853  0.00  0.00    -0.003 C 
ATOM     11  C   UNL     1     -12.235 -10.270  18.479  0.00  0.00    +0.020 C 
ATOM     12  C   UNL     1     -11.109 -12.261  20.392  0.00  0.00    +0.074 C 
ATOM     13  C   UNL     1     -10.526 -10.838  20.239  0.00  0.00    +0.024 C 
ATOM     14  C   UNL     1     -12.591 -11.773  18.518  0.00  0.00    +0.089 C 
ATOM     15  C   UNL     1     -12.785 -10.045  20.885  0.00  0.00    +0.019 C 
ATOM     16  C   UNL     1     -13.346 -11.474  20.778  0.00  0.00    +0.085 C 
BRANCH  11  17
ATOM     17  C   UNL     1     -11.305  -9.942  17.313  0.00  0.00    +0.089 C 
BRANCH  17   7
ATOM      7  N   UNL     1     -11.205  -8.505  17.117  0.00  0.00    -0.301 NA
ATOM     20  C   UNL     1     -11.784  -8.115  15.829  0.00  0.00    +0.105 C 
BRANCH   7  19
ATOM     19  C   UNL     1      -9.810  -8.065  17.197  0.00  0.00    +0.110 C 
BRANCH  19  22
ATOM     22  C   UNL     1      -8.860  -9.206  16.998  0.00  0.00    -0.019 C 
ATOM     23  C   UNL     1      -8.248  -9.477  15.839  0.00  0.00    +0.005 C 
ENDBRANCH  19  22
ENDBRANCH   7  19
ENDBRANCH  17   7
ENDBRANCH  11  17
ENDBRANCH  18  12
ENDBRANCH   8  18
TORSDOF 9
ENDMDL
MODEL 9
REMARK VINA RESULT:      -6.1     29.191     31.049
REMARK  Name = 25388766
REMARK  10 active torsions:
REMARK  status: ('A' for Active; 'I' for Inactive)
REMARK    1  A    between atoms: O_5  and  C_29
REMARK    2  A    between atoms: O_5  and  C_30
REMARK    3  A    between atoms: N_7  and  C_17
REMARK    4  A    between atoms: N_7  and  C_19
REMARK    5  A    between atoms: N_7  and  C_20
REMARK    6  A    between atoms: N_8  and  C_18
REMARK    7  A    between atoms: N_9  and  C_24
REMARK    8  A    between atoms: C_11  and  C_17
REMARK    9  A    between atoms: C_12  and  C_18
REMARK   10  A    between atoms: C_19  and  C_22
REMARK                            x       y       z     vdW  Elec       q    Type
REMARK                         _______ _______ _______ _____ _____    ______ ____
ROOT
ATOM      4  O   UNL     1      -4.600 -11.581  12.400  0.00  0.00    -0.253 OA
ATOM      8  N   UNL     1      -4.449 -10.597  14.485  0.00  0.00    -0.298 N 
ATOM      9  N   UNL     1      -5.504  -9.453  12.809  0.00  0.00    -0.269 N 
ATOM     21  C   UNL     1      -4.834 -10.633  13.146  0.00  0.00    +0.304 C 
ATOM     31  H   UNL     1      -4.634  -9.760  15.028  0.00  0.00    +0.150 HD
ATOM     32  H   UNL     1      -5.614  -8.765  13.549  0.00  0.00    +0.156 HD
ENDROOT
BRANCH   9  24
ATOM     24  C   UNL     1      -6.053  -9.094  11.557  0.00  0.00    +0.035 A 
ATOM     25  C   UNL     1      -5.225  -8.604  10.546  0.00  0.00    +0.027 A 
ATOM     26  C   UNL     1      -7.424  -9.229  11.333  0.00  0.00    +0.027 A 
ATOM     27  C   UNL     1      -5.767  -8.249   9.311  0.00  0.00    +0.048 A 
ATOM     28  C   UNL     1      -7.966  -8.874  10.096  0.00  0.00    +0.048 A 
ATOM     29  C   UNL     1      -7.138  -8.384   9.086  0.00  0.00    +0.130 A 
BRANCH  29   5
ATOM      5  O   UNL     1      -7.666  -8.038   7.881  0.00  0.00    -0.406 OA
BRANCH   5  30
ATOM      1  F   UNL     1      -8.578  -6.549   6.450  0.00  0.00    -0.133 F 
ATOM      2  F   UNL     1      -9.384  -6.650   8.479  0.00  0.00    -0.133 F 
ATOM      3  F   UNL     1      -7.385  -5.780   8.111  0.00  0.00    -0.133 F 
ATOM     30  C   UNL     1      -8.253  -6.748   7.748  0.00  0.00    +0.575 C 
ENDBRANCH   5  30
ENDBRANCH  29   5
ENDBRANCH   9  24
BRANCH   8  18
ATOM     18  C   UNL     1      -3.731 -11.686  15.126  0.00  0.00    +0.124 C 
BRANCH  18  12
ATOM      6  N   UNL     1      -4.867 -12.725  17.108  0.00  0.00    -0.298 NA
ATOM     10  C   UNL     1      -5.542 -10.441  18.155  0.00  0.00    -0.003 C 
ATOM     11  C   UNL     1      -6.754 -11.114  17.471  0.00  0.00    +0.020 C 
ATOM     12  C   UNL     1      -3.941 -11.656  16.642  0.00  0.00    +0.074 C 
ATOM     13  C   UNL     1      -4.408 -10.266  17.129  0.00  0.00    +0.024 C 
ATOM     14  C   UNL     1      -6.265 -12.388  16.745  0.00  0.00    +0.089 C 
ATOM     15  C   UNL     1      -5.037 -11.421  19.232  0.00  0.00    +0.019 C 
ATOM     16  C   UNL     1      -4.777 -12.794  18.586  0.00  0.00    +0.085 C 
BRANCH  11  17
ATOM     17  C   UNL     1      -7.505 -10.180  16.525  0.00  0.00    +0.089 C 
BRANCH  17   7
ATOM      7  N   UNL     1      -8.409  -9.312  17.262  0.00  0.00    -0.301 NA
ATOM     20  C   UNL     1      -9.288 -10.096  18.132  0.00  0.00    +0.105 C 
BRANCH   7  19
ATOM     19  C   UNL     1      -9.207  -8.494  16.344  0.00  0.00    +0.110 C 
BRANCH  19  22
ATOM     22  C   UNL     1     -10.225  -7.677  17.078  0.00  0.00    -0.019 C 
ATOM     23  C   UNL     1     -11.376  -7.255  16.539  0.00  0.00    +0.005 C 
ENDBRANCH  19  22
ENDBRANCH   7  19
ENDBRANCH  17   7
ENDBRANCH  11  17
ENDBRANCH  18  12
ENDBRANCH   8  18
TORSDOF 9
ENDMDL
MODEL 10
REMARK VINA RESULT:      -6.1     27.818     31.081
REMARK  Name = 25388766
REMARK  10 active torsions:
REMARK  status: ('A' for Active; 'I' for Inactive)
REMARK    1  A    between atoms: O_5  and  C_29
REMARK    2  A    between atoms: O_5  and  C_30
REMARK    3  A    between atoms: N_7  and  C_17
REMARK    4  A    between atoms: N_7  and  C_19
REMARK    5  A    between atoms: N_7  and  C_20
REMARK    6  A    between atoms: N_8  and  C_18
REMARK    7  A    between atoms: N_9  and  C_24
REMARK    8  A    between atoms: C_11  and  C_17
REMARK    9  A    between atoms: C_12  and  C_18
REMARK   10  A    between atoms: C_19  and  C_22
REMARK                            x       y       z     vdW  Elec       q    Type
REMARK                         _______ _______ _______ _____ _____    ______ ____
ROOT
ATOM      4  O   UNL     1      -8.309 -11.079  13.494  0.00  0.00    -0.253 OA
ATOM      8  N   UNL     1      -7.372  -9.140  12.657  0.00  0.00    -0.298 N 
ATOM      9  N   UNL     1      -7.256  -9.528  14.907  0.00  0.00    -0.269 N 
ATOM     21  C   UNL     1      -7.706 -10.025  13.680  0.00  0.00    +0.304 C 
ATOM     31  H   UNL     1      -6.916  -8.265  12.892  0.00  0.00    +0.150 HD
ATOM     32  H   UNL     1      -6.771  -8.634  14.887  0.00  0.00    +0.156 HD
ENDROOT
BRANCH   9  24
ATOM     24  C   UNL     1      -7.392 -10.117  16.185  0.00  0.00    +0.035 A 
ATOM     25  C   UNL     1      -8.511  -9.835  16.969  0.00  0.00    +0.027 A 
ATOM     26  C   UNL     1      -6.406 -10.982  16.662  0.00  0.00    +0.027 A 
ATOM     27  C   UNL     1      -8.645 -10.416  18.229  0.00  0.00    +0.048 A 
ATOM     28  C   UNL     1      -6.540 -11.564  17.924  0.00  0.00    +0.048 A 
ATOM     29  C   UNL     1      -7.659 -11.280  18.707  0.00  0.00    +0.130 A 
BRANCH  29   5
ATOM      5  O   UNL     1      -7.790 -11.848  19.937  0.00  0.00    -0.406 OA
BRANCH   5  30
ATOM      1  F   UNL     1      -9.894 -12.445  20.494  0.00  0.00    -0.133 F 
ATOM      2  F   UNL     1      -8.891 -13.571  18.913  0.00  0.00    -0.133 F 
ATOM      3  F   UNL     1      -8.266 -13.805  21.020  0.00  0.00    -0.133 F 
ATOM     30  C   UNL     1      -8.700 -12.932  20.086  0.00  0.00    +0.575 C 
ENDBRANCH   5  30
ENDBRANCH  29   5
ENDBRANCH   9  24
BRANCH   8  18
ATOM     18  C   UNL     1      -7.709  -9.385  11.264  0.00  0.00    +0.124 C 
BRANCH  18  12
ATOM      6  N   UNL     1      -5.992 -10.638   9.931  0.00  0.00    -0.298 NA
ATOM     10  C   UNL     1      -3.993  -9.252  10.853  0.00  0.00    -0.003 C 
ATOM     11  C   UNL     1      -4.060 -10.640  11.530  0.00  0.00    +0.020 C 
ATOM     12  C   UNL     1      -6.463  -9.299  10.380  0.00  0.00    +0.074 C 
ATOM     13  C   UNL     1      -5.325  -8.512  11.069  0.00  0.00    +0.024 C 
ATOM     14  C   UNL     1      -5.343 -11.358  11.053  0.00  0.00    +0.089 C 
ATOM     15  C   UNL     1      -3.848  -9.500   9.339  0.00  0.00    +0.019 C 
ATOM     16  C   UNL     1      -4.979 -10.432   8.868  0.00  0.00    +0.085 C 
BRANCH  11  17
ATOM     17  C   UNL     1      -3.986 -10.571  13.053  0.00  0.00    +0.089 C 
BRANCH  17   7
ATOM      7  N   UNL     1      -2.671 -10.969  13.528  0.00  0.00    -0.301 NA
ATOM     20  C   UNL     1      -2.031 -11.883  12.578  0.00  0.00    +0.105 C 
BRANCH   7  19
ATOM     19  C   UNL     1      -2.763 -11.598  14.848  0.00  0.00    +0.110 C 
BRANCH  19  22
ATOM     22  C   UNL     1      -2.105 -10.764  15.904  0.00  0.00    -0.019 C 
ATOM     23  C   UNL     1      -0.944 -10.120  15.732  0.00  0.00    +0.005 C 
ENDBRANCH  19  22
ENDBRANCH   7  19
ENDBRANCH  17   7
ENDBRANCH  11  17
ENDBRANCH  18  12
ENDBRANCH   8  18
TORSDOF 9
ENDMDL
