MODEL 1
REMARK VINA RESULT:      -6.7      0.000      0.000
REMARK  Name = 11912942
REMARK  11 active torsions:
REMARK  status: ('A' for Active; 'I' for Inactive)
REMARK    1  A    between atoms: O_4  and  C_24
REMARK    2  A    between atoms: N_6  and  C_13
REMARK    3  A    between atoms: N_7  and  C_16
REMARK    4  A    between atoms: C_10  and  C_17
REMARK    5  A    between atoms: C_10  and  C_21
REMARK    6  A    between atoms: C_17  and  C_23
REMARK    7  A    between atoms: C_21  and  C_24
REMARK    8  A    between atoms: C_26  and  C_27
REMARK    9  A    between atoms: C_27  and  C_30
REMARK   10  A    between atoms: C_27  and  C_31
REMARK   11  A    between atoms: C_27  and  C_32
REMARK                            x       y       z     vdW  Elec       q    Type
REMARK                         _______ _______ _______ _____ _____    ______ ____
ROOT
ATOM      1  O   UNL     1     -12.251  -7.863  14.411  0.00  0.00    -0.370 OA
ATOM      2  O   UNL     1     -11.022  -6.171  16.727  0.00  0.00    -0.370 OA
ATOM     11  C   UNL     1     -10.914  -6.105  15.294  0.00  0.00    +0.171 C 
ATOM     12  C   UNL     1     -10.901  -7.531  14.777  0.00  0.00    +0.171 C 
ATOM     13  C   UNL     1     -12.170  -5.509  14.699  0.00  0.00    +0.130 C 
ATOM     16  C   UNL     1     -10.464  -8.351  15.968  0.00  0.00    +0.130 C 
ATOM     20  C   UNL     1     -13.088  -6.714  14.605  0.00  0.00    +0.185 C 
ATOM     22  C   UNL     1     -10.991  -7.544  17.140  0.00  0.00    +0.185 C 
ENDROOT
BRANCH  16   7
ATOM      7  N   UNL     1      -9.020  -8.422  16.017  0.00  0.00    -0.306 N 
ATOM      8  N   UNL     1      -9.065 -10.200  17.510  0.00  0.00    -0.219 NA
ATOM      9  N   UNL     1      -6.981  -9.282  16.721  0.00  0.00    -0.223 NA
ATOM     25  C   UNL     1      -8.325  -9.342  16.783  0.00  0.00    +0.216 A 
ATOM     26  C   UNL     1      -8.354 -11.083  18.244  0.00  0.00    +0.052 A 
ATOM     28  C   UNL     1      -6.336 -10.193  17.479  0.00  0.00    +0.116 A 
ATOM     29  C   UNL     1      -6.976 -11.126  18.267  0.00  0.00    +0.043 A 
ATOM     34  H   UNL     1      -8.471  -7.808  15.427  0.00  0.00    +0.149 HD
BRANCH  26  27
ATOM     27  C   UNL     1      -9.135 -12.053  19.065  0.00  0.00    +0.005 C 
ATOM     30  C   UNL     1     -10.005 -12.984  18.164  0.00  0.00    +0.017 C 
ATOM     31  C   UNL     1     -10.097 -11.317  20.048  0.00  0.00    +0.017 C 
ATOM     32  C   UNL     1      -8.284 -13.015  19.959  0.00  0.00    +0.017 C 
ENDBRANCH  26  27
ENDBRANCH  16   7
BRANCH  13   6
ATOM      3  O   UNL     1     -13.691  -3.450  13.349  0.00  0.00    -0.276 OA
ATOM      6  N   UNL     1     -11.912  -4.945  13.396  0.00  0.00    -0.308 N 
ATOM     23  C   UNL     1     -12.701  -3.955  12.826  0.00  0.00    +0.214 C 
ATOM     33  H   UNL     1     -11.093  -5.277  12.895  0.00  0.00    +0.149 HD
BRANCH  23  17
ATOM     17  C   UNL     1     -12.193  -3.554  11.454  0.00  0.00    +0.103 C 
BRANCH  17  10
ATOM     10  C   UNL     1     -12.824  -4.378  10.329  0.00  0.00    -0.011 C 
ATOM     14  C   UNL     1     -13.254  -3.491   9.152  0.00  0.00    +0.008 C 
ATOM     15  C   UNL     1     -14.163  -4.992  10.761  0.00  0.00    +0.008 C 
ATOM     18  C   UNL     1     -14.333  -4.292   8.426  0.00  0.00    +0.001 C 
ATOM     19  C   UNL     1     -14.917  -5.255   9.460  0.00  0.00    +0.001 C 
BRANCH  10  21
ATOM     21  C   UNL     1     -11.832  -5.462   9.878  0.00  0.00    +0.127 C 
BRANCH  21  24
ATOM      5  O   UNL     1     -10.028  -4.085   8.987  0.00  0.00    -0.251 OA
ATOM     24  C   UNL     1     -10.888  -4.939   8.835  0.00  0.00    +0.305 C 
BRANCH  24   4
ATOM      4  O   UNL     1     -11.129  -5.565   7.655  0.00  0.00    -0.481 OA
ATOM     35  H   UNL     1     -11.072  -6.540   7.740  0.00  0.00    +0.295 HD
ENDBRANCH  24   4
ENDBRANCH  21  24
ENDBRANCH  10  21
ENDBRANCH  17  10
ENDBRANCH  23  17
ENDBRANCH  13   6
TORSDOF 8
ENDMDL
MODEL 2
REMARK VINA RESULT:      -6.5      6.784     11.433
REMARK  Name = 11912942
REMARK  11 active torsions:
REMARK  status: ('A' for Active; 'I' for Inactive)
REMARK    1  A    between atoms: O_4  and  C_24
REMARK    2  A    between atoms: N_6  and  C_13
REMARK    3  A    between atoms: N_7  and  C_16
REMARK    4  A    between atoms: C_10  and  C_17
REMARK    5  A    between atoms: C_10  and  C_21
REMARK    6  A    between atoms: C_17  and  C_23
REMARK    7  A    between atoms: C_21  and  C_24
REMARK    8  A    between atoms: C_26  and  C_27
REMARK    9  A    between atoms: C_27  and  C_30
REMARK   10  A    between atoms: C_27  and  C_31
REMARK   11  A    between atoms: C_27  and  C_32
REMARK                            x       y       z     vdW  Elec       q    Type
REMARK                         _______ _______ _______ _____ _____    ______ ____
ROOT
ATOM      1  O   UNL     1      -2.714 -12.896  12.653  0.00  0.00    -0.370 OA
ATOM      2  O   UNL     1      -1.750  -9.995  13.281  0.00  0.00    -0.370 OA
ATOM     11  C   UNL     1      -2.830 -10.803  13.778  0.00  0.00    +0.171 C 
ATOM     12  C   UNL     1      -3.362 -11.613  12.611  0.00  0.00    +0.171 C 
ATOM     13  C   UNL     1      -2.308 -11.844  14.742  0.00  0.00    +0.130 C 
ATOM     16  C   UNL     1      -2.916 -10.840  11.392  0.00  0.00    +0.130 C 
ATOM     20  C   UNL     1      -1.865 -12.957  13.809  0.00  0.00    +0.185 C 
ATOM     22  C   UNL     1      -1.631 -10.187  11.864  0.00  0.00    +0.185 C 
ENDROOT
BRANCH  16   7
ATOM      7  N   UNL     1      -3.898  -9.832  11.059  0.00  0.00    -0.306 N 
ATOM      8  N   UNL     1      -4.484 -10.918   9.092  0.00  0.00    -0.219 NA
ATOM      9  N   UNL     1      -5.549  -8.859   9.749  0.00  0.00    -0.223 NA
ATOM     25  C   UNL     1      -4.678  -9.872   9.916  0.00  0.00    +0.216 A 
ATOM     26  C   UNL     1      -5.262 -10.925   7.988  0.00  0.00    +0.052 A 
ATOM     28  C   UNL     1      -6.293  -8.929   8.625  0.00  0.00    +0.116 A 
ATOM     29  C   UNL     1      -6.192  -9.947   7.700  0.00  0.00    +0.043 A 
ATOM     34  H   UNL     1      -4.076  -9.076  11.710  0.00  0.00    +0.149 HD
BRANCH  26  27
ATOM     27  C   UNL     1      -5.080 -12.067   7.048  0.00  0.00    +0.005 C 
ATOM     30  C   UNL     1      -4.606 -11.575   5.645  0.00  0.00    +0.017 C 
ATOM     31  C   UNL     1      -6.414 -12.851   6.845  0.00  0.00    +0.017 C 
ATOM     32  C   UNL     1      -4.030 -13.141   7.488  0.00  0.00    +0.017 C 
ENDBRANCH  26  27
ENDBRANCH  16   7
BRANCH  13   6
ATOM      3  O   UNL     1      -3.399 -10.424  17.015  0.00  0.00    -0.276 OA
ATOM      6  N   UNL     1      -3.346 -12.295  15.636  0.00  0.00    -0.308 N 
ATOM     23  C   UNL     1      -3.808 -11.540  16.707  0.00  0.00    +0.214 C 
ATOM     33  H   UNL     1      -3.772 -13.197  15.445  0.00  0.00    +0.149 HD
BRANCH  23  17
ATOM     17  C   UNL     1      -4.902 -12.263  17.471  0.00  0.00    +0.103 C 
BRANCH  17  10
ATOM     10  C   UNL     1      -6.283 -11.638  17.253  0.00  0.00    -0.011 C 
ATOM     14  C   UNL     1      -6.849 -11.988  15.870  0.00  0.00    +0.008 C 
ATOM     15  C   UNL     1      -6.205 -10.107  17.180  0.00  0.00    +0.008 C 
ATOM     18  C   UNL     1      -7.868 -10.891  15.571  0.00  0.00    +0.001 C 
ATOM     19  C   UNL     1      -7.454  -9.683  16.411  0.00  0.00    +0.001 C 
BRANCH  10  21
ATOM     21  C   UNL     1      -7.228 -12.096  18.375  0.00  0.00    +0.127 C 
BRANCH  21  24
ATOM      5  O   UNL     1      -6.069 -11.263  20.353  0.00  0.00    -0.251 OA
ATOM     24  C   UNL     1      -7.043 -11.271  19.616  0.00  0.00    +0.305 C 
BRANCH  24   4
ATOM      4  O   UNL     1      -8.146 -10.506  19.816  0.00  0.00    -0.481 OA
ATOM     35  H   UNL     1      -8.937 -10.881  19.374  0.00  0.00    +0.295 HD
ENDBRANCH  24   4
ENDBRANCH  21  24
ENDBRANCH  10  21
ENDBRANCH  17  10
ENDBRANCH  23  17
ENDBRANCH  13   6
TORSDOF 8
ENDMDL
MODEL 3
REMARK VINA RESULT:      -6.5     29.679     33.059
REMARK  Name = 11912942
REMARK  11 active torsions:
REMARK  status: ('A' for Active; 'I' for Inactive)
REMARK    1  A    between atoms: O_4  and  C_24
REMARK    2  A    between atoms: N_6  and  C_13
REMARK    3  A    between atoms: N_7  and  C_16
REMARK    4  A    between atoms: C_10  and  C_17
REMARK    5  A    between atoms: C_10  and  C_21
REMARK    6  A    between atoms: C_17  and  C_23
REMARK    7  A    between atoms: C_21  and  C_24
REMARK    8  A    between atoms: C_26  and  C_27
REMARK    9  A    between atoms: C_27  and  C_30
REMARK   10  A    between atoms: C_27  and  C_31
REMARK   11  A    between atoms: C_27  and  C_32
REMARK                            x       y       z     vdW  Elec       q    Type
REMARK                         _______ _______ _______ _____ _____    ______ ____
ROOT
ATOM      1  O   UNL     1      17.899 -10.092  -2.384  0.00  0.00    -0.370 OA
ATOM      2  O   UNL     1      20.547  -9.174  -1.010  0.00  0.00    -0.370 OA
ATOM     11  C   UNL     1      19.180  -9.241  -0.569  0.00  0.00    +0.171 C 
ATOM     12  C   UNL     1      18.305  -8.867  -1.750  0.00  0.00    +0.171 C 
ATOM     13  C   UNL     1      18.795 -10.671  -0.263  0.00  0.00    +0.130 C 
ATOM     16  C   UNL     1      19.227  -8.087  -2.658  0.00  0.00    +0.130 C 
ATOM     20  C   UNL     1      18.410 -11.203  -1.632  0.00  0.00    +0.185 C 
ATOM     22  C   UNL     1      20.583  -8.701  -2.364  0.00  0.00    +0.185 C 
ENDROOT
BRANCH  16   7
ATOM      7  N   UNL     1      19.219  -6.689  -2.289  0.00  0.00    -0.306 N 
ATOM      8  N   UNL     1      17.108  -6.363  -3.199  0.00  0.00    -0.219 NA
ATOM      9  N   UNL     1      18.309  -4.558  -2.147  0.00  0.00    -0.223 NA
ATOM     25  C   UNL     1      18.166  -5.832  -2.557  0.00  0.00    +0.216 A 
ATOM     26  C   UNL     1      16.099  -5.500  -3.443  0.00  0.00    +0.052 A 
ATOM     28  C   UNL     1      17.264  -3.750  -2.424  0.00  0.00    +0.116 A 
ATOM     29  C   UNL     1      16.122  -4.170  -3.075  0.00  0.00    +0.043 A 
ATOM     34  H   UNL     1      19.996  -6.309  -1.760  0.00  0.00    +0.149 HD
BRANCH  26  27
ATOM     27  C   UNL     1      14.906  -6.046  -4.152  0.00  0.00    +0.005 C 
ATOM     30  C   UNL     1      13.584  -5.633  -3.435  0.00  0.00    +0.017 C 
ATOM     31  C   UNL     1      14.945  -7.605  -4.206  0.00  0.00    +0.017 C 
ATOM     32  C   UNL     1      14.737  -5.583  -5.637  0.00  0.00    +0.017 C 
ENDBRANCH  26  27
ENDBRANCH  16   7
BRANCH  13   6
ATOM      3  O   UNL     1      18.891 -10.529   2.626  0.00  0.00    -0.276 OA
ATOM      6  N   UNL     1      17.680 -10.727   0.651  0.00  0.00    -0.308 N 
ATOM     23  C   UNL     1      17.823 -10.651   2.030  0.00  0.00    +0.214 C 
ATOM     33  H   UNL     1      16.748 -10.797   0.252  0.00  0.00    +0.149 HD
BRANCH  23  17
ATOM     17  C   UNL     1      16.483 -10.734   2.738  0.00  0.00    +0.103 C 
BRANCH  17  10
ATOM     10  C   UNL     1      16.264 -12.086   3.423  0.00  0.00    -0.011 C 
ATOM     14  C   UNL     1      15.868 -11.914   4.896  0.00  0.00    +0.008 C 
ATOM     15  C   UNL     1      17.573 -12.878   3.543  0.00  0.00    +0.008 C 
ATOM     18  C   UNL     1      16.247 -13.234   5.565  0.00  0.00    +0.001 C 
ATOM     19  C   UNL     1      17.343 -13.852   4.696  0.00  0.00    +0.001 C 
BRANCH  10  21
ATOM     21  C   UNL     1      15.200 -12.879   2.647  0.00  0.00    +0.127 C 
BRANCH  21  24
ATOM      5  O   UNL     1      16.438 -14.490   1.300  0.00  0.00    -0.251 OA
ATOM     24  C   UNL     1      15.769 -13.472   1.392  0.00  0.00    +0.305 C 
BRANCH  24   4
ATOM      4  O   UNL     1      15.428 -12.697   0.332  0.00  0.00    -0.481 OA
ATOM     35  H   UNL     1      15.810 -11.796   0.399  0.00  0.00    +0.295 HD
ENDBRANCH  24   4
ENDBRANCH  21  24
ENDBRANCH  10  21
ENDBRANCH  17  10
ENDBRANCH  23  17
ENDBRANCH  13   6
TORSDOF 8
ENDMDL
MODEL 4
REMARK VINA RESULT:      -6.5     26.204     29.591
REMARK  Name = 11912942
REMARK  11 active torsions:
REMARK  status: ('A' for Active; 'I' for Inactive)
REMARK    1  A    between atoms: O_4  and  C_24
REMARK    2  A    between atoms: N_6  and  C_13
REMARK    3  A    between atoms: N_7  and  C_16
REMARK    4  A    between atoms: C_10  and  C_17
REMARK    5  A    between atoms: C_10  and  C_21
REMARK    6  A    between atoms: C_17  and  C_23
REMARK    7  A    between atoms: C_21  and  C_24
REMARK    8  A    between atoms: C_26  and  C_27
REMARK    9  A    between atoms: C_27  and  C_30
REMARK   10  A    between atoms: C_27  and  C_31
REMARK   11  A    between atoms: C_27  and  C_32
REMARK                            x       y       z     vdW  Elec       q    Type
REMARK                         _______ _______ _______ _____ _____    ______ ____
ROOT
ATOM      1  O   UNL     1      14.319   6.298   2.814  0.00  0.00    -0.370 OA
ATOM      2  O   UNL     1      13.198   9.210   2.837  0.00  0.00    -0.370 OA
ATOM     11  C   UNL     1      12.789   7.992   3.483  0.00  0.00    +0.171 C 
ATOM     12  C   UNL     1      13.032   6.859   2.505  0.00  0.00    +0.171 C 
ATOM     13  C   UNL     1      13.705   7.679   4.644  0.00  0.00    +0.130 C 
ATOM     16  C   UNL     1      13.067   7.538   1.156  0.00  0.00    +0.130 C 
ATOM     20  C   UNL     1      14.860   6.966   3.964  0.00  0.00    +0.185 C 
ATOM     22  C   UNL     1      13.600   8.919   1.492  0.00  0.00    +0.185 C 
ENDROOT
BRANCH  16   7
ATOM      7  N   UNL     1      11.729   7.635   0.615  0.00  0.00    -0.306 N 
ATOM      8  N   UNL     1      11.992   5.694  -0.633  0.00  0.00    -0.219 NA
ATOM      9  N   UNL     1       9.933   6.946  -0.684  0.00  0.00    -0.223 NA
ATOM     25  C   UNL     1      11.194   6.718  -0.273  0.00  0.00    +0.216 A 
ATOM     26  C   UNL     1      11.437   4.819  -1.498  0.00  0.00    +0.052 A 
ATOM     28  C   UNL     1       9.443   6.032  -1.549  0.00  0.00    +0.116 A 
ATOM     29  C   UNL     1      10.156   4.939  -1.994  0.00  0.00    +0.043 A 
ATOM     34  H   UNL     1      11.117   8.379   0.930  0.00  0.00    +0.149 HD
BRANCH  26  27
ATOM     27  C   UNL     1      12.286   3.668  -1.923  0.00  0.00    +0.005 C 
ATOM     30  C   UNL     1      11.412   2.463  -2.389  0.00  0.00    +0.017 C 
ATOM     31  C   UNL     1      13.189   3.169  -0.752  0.00  0.00    +0.017 C 
ATOM     32  C   UNL     1      13.265   3.957  -3.109  0.00  0.00    +0.017 C 
ENDBRANCH  26  27
ENDBRANCH  16   7
BRANCH  13   6
ATOM      3  O   UNL     1      12.286   8.486   7.034  0.00  0.00    -0.276 OA
ATOM      6  N   UNL     1      13.054   6.821   5.605  0.00  0.00    -0.308 N 
ATOM     23  C   UNL     1      12.394   7.301   6.729  0.00  0.00    +0.214 C 
ATOM     33  H   UNL     1      13.063   5.822   5.423  0.00  0.00    +0.149 HD
BRANCH  23  17
ATOM     17  C   UNL     1      11.805   6.174   7.556  0.00  0.00    +0.103 C 
BRANCH  17  10
ATOM     10  C   UNL     1      10.292   6.036   7.370  0.00  0.00    -0.011 C 
ATOM     14  C   UNL     1       9.910   5.977   5.884  0.00  0.00    +0.008 C 
ATOM     15  C   UNL     1       9.548   7.295   7.833  0.00  0.00    +0.008 C 
ATOM     18  C   UNL     1       8.450   6.420   5.833  0.00  0.00    +0.001 C 
ATOM     19  C   UNL     1       8.218   7.268   7.085  0.00  0.00    +0.001 C 
BRANCH  10  21
ATOM     21  C   UNL     1       9.802   4.789   8.122  0.00  0.00    +0.127 C 
BRANCH  21  24
ATOM      5  O   UNL     1      10.613   5.134  10.396  0.00  0.00    -0.251 OA
ATOM     24  C   UNL     1       9.693   5.048   9.597  0.00  0.00    +0.305 C 
BRANCH  24   4
ATOM      4  O   UNL     1       8.385   5.179   9.936  0.00  0.00    -0.481 OA
ATOM     35  H   UNL     1       7.941   5.882   9.416  0.00  0.00    +0.295 HD
ENDBRANCH  24   4
ENDBRANCH  21  24
ENDBRANCH  10  21
ENDBRANCH  17  10
ENDBRANCH  23  17
ENDBRANCH  13   6
TORSDOF 8
ENDMDL
MODEL 5
REMARK VINA RESULT:      -6.3      6.514     10.644
REMARK  Name = 11912942
REMARK  11 active torsions:
REMARK  status: ('A' for Active; 'I' for Inactive)
REMARK    1  A    between atoms: O_4  and  C_24
REMARK    2  A    between atoms: N_6  and  C_13
REMARK    3  A    between atoms: N_7  and  C_16
REMARK    4  A    between atoms: C_10  and  C_17
REMARK    5  A    between atoms: C_10  and  C_21
REMARK    6  A    between atoms: C_17  and  C_23
REMARK    7  A    between atoms: C_21  and  C_24
REMARK    8  A    between atoms: C_26  and  C_27
REMARK    9  A    between atoms: C_27  and  C_30
REMARK   10  A    between atoms: C_27  and  C_31
REMARK   11  A    between atoms: C_27  and  C_32
REMARK                            x       y       z     vdW  Elec       q    Type
REMARK                         _______ _______ _______ _____ _____    ______ ____
ROOT
ATOM      1  O   UNL     1      -4.815 -12.690  14.660  0.00  0.00    -0.370 OA
ATOM      2  O   UNL     1      -2.236 -10.966  15.005  0.00  0.00    -0.370 OA
ATOM     11  C   UNL     1      -3.618 -10.750  15.340  0.00  0.00    +0.171 C 
ATOM     12  C   UNL     1      -4.452 -11.365  14.234  0.00  0.00    +0.171 C 
ATOM     13  C   UNL     1      -3.991 -11.547  16.570  0.00  0.00    +0.130 C 
ATOM     16  C   UNL     1      -3.510 -11.433  13.056  0.00  0.00    +0.130 C 
ATOM     20  C   UNL     1      -4.314 -12.911  15.987  0.00  0.00    +0.185 C 
ATOM     22  C   UNL     1      -2.156 -11.600  13.721  0.00  0.00    +0.185 C 
ENDROOT
BRANCH  16   7
ATOM      7  N   UNL     1      -3.554 -10.192  12.314  0.00  0.00    -0.306 N 
ATOM      8  N   UNL     1      -4.197 -11.273  10.361  0.00  0.00    -0.219 NA
ATOM      9  N   UNL     1      -3.894  -8.883  10.427  0.00  0.00    -0.223 NA
ATOM     25  C   UNL     1      -3.897 -10.112  10.976  0.00  0.00    +0.216 A 
ATOM     26  C   UNL     1      -4.527 -11.157   9.058  0.00  0.00    +0.052 A 
ATOM     28  C   UNL     1      -4.233  -8.841   9.121  0.00  0.00    +0.116 A 
ATOM     29  C   UNL     1      -4.562  -9.956   8.379  0.00  0.00    +0.043 A 
ATOM     34  H   UNL     1      -3.379  -9.318  12.796  0.00  0.00    +0.149 HD
BRANCH  26  27
ATOM     27  C   UNL     1      -4.867 -12.419   8.339  0.00  0.00    +0.005 C 
ATOM     30  C   UNL     1      -4.318 -12.403   6.878  0.00  0.00    +0.017 C 
ATOM     31  C   UNL     1      -6.412 -12.625   8.258  0.00  0.00    +0.017 C 
ATOM     32  C   UNL     1      -4.306 -13.731   8.980  0.00  0.00    +0.017 C 
ENDBRANCH  26  27
ENDBRANCH  16   7
BRANCH  13   6
ATOM      3  O   UNL     1      -4.660 -11.729  19.380  0.00  0.00    -0.276 OA
ATOM      6  N   UNL     1      -5.138 -10.976  17.233  0.00  0.00    -0.308 N 
ATOM     23  C   UNL     1      -5.378 -11.117  18.594  0.00  0.00    +0.214 C 
ATOM     33  H   UNL     1      -5.778 -10.423  16.671  0.00  0.00    +0.149 HD
BRANCH  23  17
ATOM     17  C   UNL     1      -6.655 -10.412  19.013  0.00  0.00    +0.103 C 
BRANCH  17  10
ATOM     10  C   UNL     1      -7.912 -11.209  18.654  0.00  0.00    -0.011 C 
ATOM     14  C   UNL     1      -9.033 -10.989  19.680  0.00  0.00    +0.008 C 
ATOM     15  C   UNL     1      -7.675 -12.721  18.773  0.00  0.00    +0.008 C 
ATOM     18  C   UNL     1      -9.935 -12.213  19.550  0.00  0.00    +0.001 C 
ATOM     19  C   UNL     1      -9.063 -13.326  18.968  0.00  0.00    +0.001 C 
BRANCH  10  21
ATOM     21  C   UNL     1      -8.367 -10.825  17.238  0.00  0.00    +0.127 C 
BRANCH  21  24
ATOM      5  O   UNL     1      -9.027  -8.488  17.458  0.00  0.00    -0.251 OA
ATOM     24  C   UNL     1      -8.274  -9.343  17.017  0.00  0.00    +0.305 C 
BRANCH  24   4
ATOM      4  O   UNL     1      -7.201  -9.071  16.232  0.00  0.00    -0.481 OA
ATOM     35  H   UNL     1      -6.688  -9.879  16.021  0.00  0.00    +0.295 HD
ENDBRANCH  24   4
ENDBRANCH  21  24
ENDBRANCH  10  21
ENDBRANCH  17  10
ENDBRANCH  23  17
ENDBRANCH  13   6
TORSDOF 8
ENDMDL
MODEL 6
REMARK VINA RESULT:      -6.2     23.338     26.860
REMARK  Name = 11912942
REMARK  11 active torsions:
REMARK  status: ('A' for Active; 'I' for Inactive)
REMARK    1  A    between atoms: O_4  and  C_24
REMARK    2  A    between atoms: N_6  and  C_13
REMARK    3  A    between atoms: N_7  and  C_16
REMARK    4  A    between atoms: C_10  and  C_17
REMARK    5  A    between atoms: C_10  and  C_21
REMARK    6  A    between atoms: C_17  and  C_23
REMARK    7  A    between atoms: C_21  and  C_24
REMARK    8  A    between atoms: C_26  and  C_27
REMARK    9  A    between atoms: C_27  and  C_30
REMARK   10  A    between atoms: C_27  and  C_31
REMARK   11  A    between atoms: C_27  and  C_32
REMARK                            x       y       z     vdW  Elec       q    Type
REMARK                         _______ _______ _______ _____ _____    ______ ____
ROOT
ATOM      1  O   UNL     1       4.670  10.331   3.336  0.00  0.00    -0.370 OA
ATOM      2  O   UNL     1       6.765  12.481   4.188  0.00  0.00    -0.370 OA
ATOM     11  C   UNL     1       6.507  11.133   4.617  0.00  0.00    +0.171 C 
ATOM     12  C   UNL     1       5.004  10.934   4.598  0.00  0.00    +0.171 C 
ATOM     13  C   UNL     1       7.022  10.148   3.592  0.00  0.00    +0.130 C 
ATOM     16  C   UNL     1       4.445  12.335   4.674  0.00  0.00    +0.130 C 
ATOM     20  C   UNL     1       5.876  10.083   2.599  0.00  0.00    +0.185 C 
ATOM     22  C   UNL     1       5.517  13.159   3.985  0.00  0.00    +0.185 C 
ENDROOT
BRANCH  16   7
ATOM      7  N   UNL     1       4.311  12.741   6.056  0.00  0.00    -0.306 N 
ATOM      8  N   UNL     1       2.045  12.235   6.083  0.00  0.00    -0.219 NA
ATOM      9  N   UNL     1       3.158  13.101   8.038  0.00  0.00    -0.223 NA
ATOM     25  C   UNL     1       3.119  12.690   6.756  0.00  0.00    +0.216 A 
ATOM     26  C   UNL     1       0.900  12.198   6.798  0.00  0.00    +0.052 A 
ATOM     28  C   UNL     1       1.978  13.038   8.691  0.00  0.00    +0.116 A 
ATOM     29  C   UNL     1       0.807  12.591   8.117  0.00  0.00    +0.043 A 
ATOM     34  H   UNL     1       5.134  13.032   6.571  0.00  0.00    +0.149 HD
BRANCH  26  27
ATOM     27  C   UNL     1      -0.315  11.700   6.090  0.00  0.00    +0.005 C 
ATOM     30  C   UNL     1      -0.029  11.463   4.575  0.00  0.00    +0.017 C 
ATOM     31  C   UNL     1      -1.488  12.724   6.193  0.00  0.00    +0.017 C 
ATOM     32  C   UNL     1      -0.895  10.348   6.622  0.00  0.00    +0.017 C 
ENDBRANCH  26  27
ENDBRANCH  16   7
BRANCH  13   6
ATOM      3  O   UNL     1       9.138   8.289   2.928  0.00  0.00    -0.276 OA
ATOM      6  N   UNL     1       7.270   8.857   4.188  0.00  0.00    -0.308 N 
ATOM     23  C   UNL     1       8.316   8.029   3.803  0.00  0.00    +0.214 C 
ATOM     33  H   UNL     1       6.660   8.566   4.946  0.00  0.00    +0.149 HD
BRANCH  23  17
ATOM     17  C   UNL     1       8.333   6.739   4.601  0.00  0.00    +0.103 C 
BRANCH  17  10
ATOM     10  C   UNL     1       9.134   6.862   5.900  0.00  0.00    -0.011 C 
ATOM     14  C   UNL     1       9.308   5.501   6.588  0.00  0.00    +0.008 C 
ATOM     15  C   UNL     1       8.364   7.653   6.967  0.00  0.00    +0.008 C 
ATOM     18  C   UNL     1       9.572   5.829   8.055  0.00  0.00    +0.001 C 
ATOM     19  C   UNL     1       8.964   7.211   8.299  0.00  0.00    +0.001 C 
BRANCH  10  21
ATOM     21  C   UNL     1      10.493   7.512   5.596  0.00  0.00    +0.127 C 
BRANCH  21  24
ATOM      5  O   UNL     1      11.466   5.928   4.018  0.00  0.00    -0.251 OA
ATOM     24  C   UNL     1      11.483   6.500   5.098  0.00  0.00    +0.305 C 
BRANCH  24   4
ATOM      4  O   UNL     1      12.436   6.299   6.043  0.00  0.00    -0.481 OA
ATOM     35  H   UNL     1      13.183   5.762   5.701  0.00  0.00    +0.295 HD
ENDBRANCH  24   4
ENDBRANCH  21  24
ENDBRANCH  10  21
ENDBRANCH  17  10
ENDBRANCH  23  17
ENDBRANCH  13   6
TORSDOF 8
ENDMDL
MODEL 7
REMARK VINA RESULT:      -6.2     31.319     34.097
REMARK  Name = 11912942
REMARK  11 active torsions:
REMARK  status: ('A' for Active; 'I' for Inactive)
REMARK    1  A    between atoms: O_4  and  C_24
REMARK    2  A    between atoms: N_6  and  C_13
REMARK    3  A    between atoms: N_7  and  C_16
REMARK    4  A    between atoms: C_10  and  C_17
REMARK    5  A    between atoms: C_10  and  C_21
REMARK    6  A    between atoms: C_17  and  C_23
REMARK    7  A    between atoms: C_21  and  C_24
REMARK    8  A    between atoms: C_26  and  C_27
REMARK    9  A    between atoms: C_27  and  C_30
REMARK   10  A    between atoms: C_27  and  C_31
REMARK   11  A    between atoms: C_27  and  C_32
REMARK                            x       y       z     vdW  Elec       q    Type
REMARK                         _______ _______ _______ _____ _____    ______ ____
ROOT
ATOM      1  O   UNL     1      19.882   7.538  23.224  0.00  0.00    -0.370 OA
ATOM      2  O   UNL     1      20.735   6.921  20.286  0.00  0.00    -0.370 OA
ATOM     11  C   UNL     1      19.564   6.606  21.059  0.00  0.00    +0.171 C 
ATOM     12  C   UNL     1      20.021   6.318  22.475  0.00  0.00    +0.171 C 
ATOM     13  C   UNL     1      18.681   7.826  21.197  0.00  0.00    +0.130 C 
ATOM     16  C   UNL     1      21.481   5.959  22.326  0.00  0.00    +0.130 C 
ATOM     20  C   UNL     1      19.305   8.545  22.380  0.00  0.00    +0.185 C 
ATOM     22  C   UNL     1      21.899   6.764  21.110  0.00  0.00    +0.185 C 
ENDROOT
BRANCH  16   7
ATOM      7  N   UNL     1      21.618   4.543  22.060  0.00  0.00    -0.306 N 
ATOM      8  N   UNL     1      23.746   4.820  21.172  0.00  0.00    -0.219 NA
ATOM      9  N   UNL     1      22.719   2.643  21.307  0.00  0.00    -0.223 NA
ATOM     25  C   UNL     1      22.744   3.978  21.488  0.00  0.00    +0.216 A 
ATOM     26  C   UNL     1      24.827   4.234  20.617  0.00  0.00    +0.052 A 
ATOM     28  C   UNL     1      23.833   2.125  20.747  0.00  0.00    +0.116 A 
ATOM     29  C   UNL     1      24.928   2.879  20.379  0.00  0.00    +0.043 A 
ATOM     34  H   UNL     1      20.882   3.909  22.349  0.00  0.00    +0.149 HD
BRANCH  26  27
ATOM     27  C   UNL     1      25.961   5.131  20.252  0.00  0.00    +0.005 C 
ATOM     30  C   UNL     1      26.576   4.733  18.874  0.00  0.00    +0.017 C 
ATOM     31  C   UNL     1      27.103   5.061  21.313  0.00  0.00    +0.017 C 
ATOM     32  C   UNL     1      25.604   6.649  20.126  0.00  0.00    +0.017 C 
ENDBRANCH  26  27
ENDBRANCH  16   7
BRANCH  13   6
ATOM      3  O   UNL     1      16.764   6.702  19.343  0.00  0.00    -0.276 OA
ATOM      6  N   UNL     1      17.315   7.453  21.473  0.00  0.00    -0.308 N 
ATOM     23  C   UNL     1      16.464   6.918  20.515  0.00  0.00    +0.214 C 
ATOM     33  H   UNL     1      16.981   7.566  22.426  0.00  0.00    +0.149 HD
BRANCH  23  17
ATOM     17  C   UNL     1      15.091   6.621  21.088  0.00  0.00    +0.103 C 
BRANCH  17  10
ATOM     10  C   UNL     1      14.036   7.639  20.645  0.00  0.00    -0.011 C 
ATOM     14  C   UNL     1      13.455   7.287  19.269  0.00  0.00    +0.008 C 
ATOM     15  C   UNL     1      14.657   9.017  20.378  0.00  0.00    +0.008 C 
ATOM     18  C   UNL     1      12.910   8.604  18.721  0.00  0.00    +0.001 C 
ATOM     19  C   UNL     1      13.683   9.715  19.434  0.00  0.00    +0.001 C 
BRANCH  10  21
ATOM     21  C   UNL     1      12.933   7.720  21.713  0.00  0.00    +0.127 C 
BRANCH  21  24
ATOM      5  O   UNL     1      10.698   7.244  20.863  0.00  0.00    -0.251 OA
ATOM     24  C   UNL     1      11.755   6.866  21.346  0.00  0.00    +0.305 C 
BRANCH  24   4
ATOM      4  O   UNL     1      12.031   5.569  21.634  0.00  0.00    -0.481 OA
ATOM     35  H   UNL     1      12.663   5.486  22.380  0.00  0.00    +0.295 HD
ENDBRANCH  24   4
ENDBRANCH  21  24
ENDBRANCH  10  21
ENDBRANCH  17  10
ENDBRANCH  23  17
ENDBRANCH  13   6
TORSDOF 8
ENDMDL
MODEL 8
REMARK VINA RESULT:      -6.2     21.239     23.451
REMARK  Name = 11912942
REMARK  11 active torsions:
REMARK  status: ('A' for Active; 'I' for Inactive)
REMARK    1  A    between atoms: O_4  and  C_24
REMARK    2  A    between atoms: N_6  and  C_13
REMARK    3  A    between atoms: N_7  and  C_16
REMARK    4  A    between atoms: C_10  and  C_17
REMARK    5  A    between atoms: C_10  and  C_21
REMARK    6  A    between atoms: C_17  and  C_23
REMARK    7  A    between atoms: C_21  and  C_24
REMARK    8  A    between atoms: C_26  and  C_27
REMARK    9  A    between atoms: C_27  and  C_30
REMARK   10  A    between atoms: C_27  and  C_31
REMARK   11  A    between atoms: C_27  and  C_32
REMARK                            x       y       z     vdW  Elec       q    Type
REMARK                         _______ _______ _______ _____ _____    ______ ____
ROOT
ATOM      1  O   UNL     1     -14.072   5.835  34.193  0.00  0.00    -0.370 OA
ATOM      2  O   UNL     1     -15.505   8.121  32.623  0.00  0.00    -0.370 OA
ATOM     11  C   UNL     1     -14.755   6.964  32.213  0.00  0.00    +0.171 C 
ATOM     12  C   UNL     1     -13.626   6.783  33.208  0.00  0.00    +0.171 C 
ATOM     13  C   UNL     1     -15.590   5.713  32.372  0.00  0.00    +0.130 C 
ATOM     16  C   UNL     1     -13.462   8.149  33.832  0.00  0.00    +0.130 C 
ATOM     20  C   UNL     1     -15.381   5.367  33.835  0.00  0.00    +0.185 C 
ATOM     22  C   UNL     1     -14.866   8.720  33.759  0.00  0.00    +0.185 C 
ENDROOT
BRANCH  16   7
ATOM      7  N   UNL     1     -12.553   8.950  33.040  0.00  0.00    -0.306 N 
ATOM      8  N   UNL     1     -11.009   9.079  34.770  0.00  0.00    -0.219 NA
ATOM      9  N   UNL     1     -10.601  10.143  32.647  0.00  0.00    -0.223 NA
ATOM     25  C   UNL     1     -11.334   9.410  33.506  0.00  0.00    +0.216 A 
ATOM     26  C   UNL     1      -9.814   9.544  35.191  0.00  0.00    +0.052 A 
ATOM     28  C   UNL     1      -9.419  10.576  33.134  0.00  0.00    +0.116 A 
ATOM     29  C   UNL     1      -8.969  10.304  34.409  0.00  0.00    +0.043 A 
ATOM     34  H   UNL     1     -12.780   9.150  32.073  0.00  0.00    +0.149 HD
BRANCH  26  27
ATOM     27  C   UNL     1      -9.415   9.200  36.586  0.00  0.00    +0.005 C 
ATOM     30  C   UNL     1      -9.604  10.416  37.545  0.00  0.00    +0.017 C 
ATOM     31  C   UNL     1      -7.915   8.774  36.656  0.00  0.00    +0.017 C 
ATOM     32  C   UNL     1     -10.212   8.024  37.243  0.00  0.00    +0.017 C 
ENDBRANCH  26  27
ENDBRANCH  16   7
BRANCH  13   6
ATOM      3  O   UNL     1     -16.223   5.311  29.577  0.00  0.00    -0.276 OA
ATOM      6  N   UNL     1     -15.114   4.656  31.512  0.00  0.00    -0.308 N 
ATOM     23  C   UNL     1     -15.474   4.543  30.176  0.00  0.00    +0.214 C 
ATOM     33  H   UNL     1     -14.461   3.986  31.909  0.00  0.00    +0.149 HD
BRANCH  23  17
ATOM     17  C   UNL     1     -14.822   3.339  29.520  0.00  0.00    +0.103 C 
BRANCH  17  10
ATOM     10  C   UNL     1     -15.845   2.379  28.906  0.00  0.00    -0.011 C 
ATOM     14  C   UNL     1     -16.114   2.709  27.432  0.00  0.00    +0.008 C 
ATOM     15  C   UNL     1     -17.237   2.564  29.526  0.00  0.00    +0.008 C 
ATOM     18  C   UNL     1     -17.489   2.114  27.137  0.00  0.00    +0.001 C 
ATOM     19  C   UNL     1     -18.210   2.022  28.483  0.00  0.00    +0.001 C 
BRANCH  10  21
ATOM     21  C   UNL     1     -15.346   0.935  29.074  0.00  0.00    +0.127 C 
BRANCH  21  24
ATOM      5  O   UNL     1     -14.952   0.818  31.477  0.00  0.00    -0.251 OA
ATOM     24  C   UNL     1     -14.537   0.778  30.329  0.00  0.00    +0.305 C 
BRANCH  24   4
ATOM      4  O   UNL     1     -13.235   0.579  30.004  0.00  0.00    -0.481 OA
ATOM     35  H   UNL     1     -12.715   1.409  30.051  0.00  0.00    +0.295 HD
ENDBRANCH  24   4
ENDBRANCH  21  24
ENDBRANCH  10  21
ENDBRANCH  17  10
ENDBRANCH  23  17
ENDBRANCH  13   6
TORSDOF 8
ENDMDL
MODEL 9
REMARK VINA RESULT:      -6.1     30.688     34.764
REMARK  Name = 11912942
REMARK  11 active torsions:
REMARK  status: ('A' for Active; 'I' for Inactive)
REMARK    1  A    between atoms: O_4  and  C_24
REMARK    2  A    between atoms: N_6  and  C_13
REMARK    3  A    between atoms: N_7  and  C_16
REMARK    4  A    between atoms: C_10  and  C_17
REMARK    5  A    between atoms: C_10  and  C_21
REMARK    6  A    between atoms: C_17  and  C_23
REMARK    7  A    between atoms: C_21  and  C_24
REMARK    8  A    between atoms: C_26  and  C_27
REMARK    9  A    between atoms: C_27  and  C_30
REMARK   10  A    between atoms: C_27  and  C_31
REMARK   11  A    between atoms: C_27  and  C_32
REMARK                            x       y       z     vdW  Elec       q    Type
REMARK                         _______ _______ _______ _____ _____    ______ ____
ROOT
ATOM      1  O   UNL     1      22.575  -2.353  25.774  0.00  0.00    -0.370 OA
ATOM      2  O   UNL     1      21.194  -0.541  27.907  0.00  0.00    -0.370 OA
ATOM     11  C   UNL     1      20.718  -1.212  26.728  0.00  0.00    +0.171 C 
ATOM     12  C   UNL     1      21.818  -1.133  25.688  0.00  0.00    +0.171 C 
ATOM     13  C   UNL     1      20.565  -2.693  26.991  0.00  0.00    +0.130 C 
ATOM     16  C   UNL     1      22.662   0.038  26.133  0.00  0.00    +0.130 C 
ATOM     20  C   UNL     1      21.972  -3.212  26.754  0.00  0.00    +0.185 C 
ATOM     22  C   UNL     1      22.485   0.023  27.640  0.00  0.00    +0.185 C 
ENDROOT
BRANCH  16   7
ATOM      7  N   UNL     1      22.136   1.266  25.578  0.00  0.00    -0.306 N 
ATOM      8  N   UNL     1      23.887   1.443  24.063  0.00  0.00    -0.219 NA
ATOM      9  N   UNL     1      22.129   3.090  24.141  0.00  0.00    -0.223 NA
ATOM     25  C   UNL     1      22.744   1.964  24.549  0.00  0.00    +0.216 A 
ATOM     26  C   UNL     1      24.452   2.149  23.060  0.00  0.00    +0.052 A 
ATOM     28  C   UNL     1      22.749   3.745  23.137  0.00  0.00    +0.116 A 
ATOM     29  C   UNL     1      23.922   3.317  22.552  0.00  0.00    +0.043 A 
ATOM     34  H   UNL     1      21.248   1.623  25.913  0.00  0.00    +0.149 HD
BRANCH  26  27
ATOM     27  C   UNL     1      25.720   1.607  22.492  0.00  0.00    +0.005 C 
ATOM     30  C   UNL     1      26.188   2.441  21.259  0.00  0.00    +0.017 C 
ATOM     31  C   UNL     1      25.543   0.130  22.022  0.00  0.00    +0.017 C 
ATOM     32  C   UNL     1      26.941   1.589  23.470  0.00  0.00    +0.017 C 
ENDBRANCH  26  27
ENDBRANCH  16   7
BRANCH  13   6
ATOM      3  O   UNL     1      17.676  -2.566  27.109  0.00  0.00    -0.276 OA
ATOM      6  N   UNL     1      19.626  -3.292  26.073  0.00  0.00    -0.308 N 
ATOM     23  C   UNL     1      18.249  -3.177  26.211  0.00  0.00    +0.214 C 
ATOM     33  H   UNL     1      20.005  -3.795  25.276  0.00  0.00    +0.149 HD
BRANCH  23  17
ATOM     17  C   UNL     1      17.513  -3.905  25.102  0.00  0.00    +0.103 C 
BRANCH  17  10
ATOM     10  C   UNL     1      17.379  -3.061  23.832  0.00  0.00    -0.011 C 
ATOM     14  C   UNL     1      17.608  -1.570  24.118  0.00  0.00    +0.008 C 
ATOM     15  C   UNL     1      15.939  -3.058  23.303  0.00  0.00    +0.008 C 
ATOM     18  C   UNL     1      16.900  -0.835  22.982  0.00  0.00    +0.001 C 
ATOM     19  C   UNL     1      15.827  -1.791  22.459  0.00  0.00    +0.001 C 
BRANCH  10  21
ATOM     21  C   UNL     1      18.362  -3.583  22.772  0.00  0.00    +0.127 C 
BRANCH  21  24
ATOM      5  O   UNL     1      17.881  -5.972  22.679  0.00  0.00    -0.251 OA
ATOM     24  C   UNL     1      18.633  -5.048  22.952  0.00  0.00    +0.305 C 
BRANCH  24   4
ATOM      4  O   UNL     1      19.871  -5.216  23.481  0.00  0.00    -0.481 OA
ATOM     35  H   UNL     1      20.494  -4.519  23.183  0.00  0.00    +0.295 HD
ENDBRANCH  24   4
ENDBRANCH  21  24
ENDBRANCH  10  21
ENDBRANCH  17  10
ENDBRANCH  23  17
ENDBRANCH  13   6
TORSDOF 8
ENDMDL
MODEL 10
REMARK VINA RESULT:      -6.1     25.098     28.353
REMARK  Name = 11912942
REMARK  11 active torsions:
REMARK  status: ('A' for Active; 'I' for Inactive)
REMARK    1  A    between atoms: O_4  and  C_24
REMARK    2  A    between atoms: N_6  and  C_13
REMARK    3  A    between atoms: N_7  and  C_16
REMARK    4  A    between atoms: C_10  and  C_17
REMARK    5  A    between atoms: C_10  and  C_21
REMARK    6  A    between atoms: C_17  and  C_23
REMARK    7  A    between atoms: C_21  and  C_24
REMARK    8  A    between atoms: C_26  and  C_27
REMARK    9  A    between atoms: C_27  and  C_30
REMARK   10  A    between atoms: C_27  and  C_31
REMARK   11  A    between atoms: C_27  and  C_32
REMARK                            x       y       z     vdW  Elec       q    Type
REMARK                         _______ _______ _______ _____ _____    ______ ____
ROOT
ATOM      1  O   UNL     1       7.088   6.435  -2.933  0.00  0.00    -0.370 OA
ATOM      2  O   UNL     1       8.182   6.462  -5.856  0.00  0.00    -0.370 OA
ATOM     11  C   UNL     1       7.303   5.576  -5.141  0.00  0.00    +0.171 C 
ATOM     12  C   UNL     1       7.820   5.479  -3.719  0.00  0.00    +0.171 C 
ATOM     13  C   UNL     1       5.934   6.201  -4.994  0.00  0.00    +0.130 C 
ATOM     16  C   UNL     1       9.270   5.887  -3.824  0.00  0.00    +0.130 C 
ATOM     20  C   UNL     1       6.105   7.072  -3.763  0.00  0.00    +0.185 C 
ATOM     22  C   UNL     1       9.259   6.854  -4.994  0.00  0.00    +0.185 C 
ENDROOT
BRANCH  16   7
ATOM      7  N   UNL     1      10.088   4.735  -4.134  0.00  0.00    -0.306 N 
ATOM      8  N   UNL     1      10.874   4.589  -1.954  0.00  0.00    -0.219 NA
ATOM      9  N   UNL     1      11.585   3.029  -3.648  0.00  0.00    -0.223 NA
ATOM     25  C   UNL     1      10.884   4.089  -3.205  0.00  0.00    +0.216 A 
ATOM     26  C   UNL     1      11.661   3.934  -1.074  0.00  0.00    +0.052 A 
ATOM     28  C   UNL     1      12.351   2.423  -2.716  0.00  0.00    +0.116 A 
ATOM     29  C   UNL     1      12.428   2.835  -1.402  0.00  0.00    +0.043 A 
ATOM     34  H   UNL     1      10.049   4.333  -5.064  0.00  0.00    +0.149 HD
BRANCH  26  27
ATOM     27  C   UNL     1      11.680   4.455   0.323  0.00  0.00    +0.005 C 
ATOM     30  C   UNL     1      10.236   4.569   0.903  0.00  0.00    +0.017 C 
ATOM     31  C   UNL     1      12.327   5.873   0.390  0.00  0.00    +0.017 C 
ATOM     32  C   UNL     1      12.475   3.586   1.354  0.00  0.00    +0.017 C 
ENDBRANCH  26  27
ENDBRANCH  16   7
BRANCH  13   6
ATOM      3  O   UNL     1       3.108   6.408  -5.583  0.00  0.00    -0.276 OA
ATOM      6  N   UNL     1       4.922   5.194  -4.784  0.00  0.00    -0.308 N 
ATOM     23  C   UNL     1       3.582   5.384  -5.099  0.00  0.00    +0.214 C 
ATOM     33  H   UNL     1       5.222   4.296  -4.415  0.00  0.00    +0.149 HD
BRANCH  23  17
ATOM     17  C   UNL     1       2.751   4.157  -4.773  0.00  0.00    +0.103 C 
BRANCH  17  10
ATOM     10  C   UNL     1       2.269   3.424  -6.028  0.00  0.00    -0.011 C 
ATOM     14  C   UNL     1       3.377   3.325  -7.085  0.00  0.00    +0.008 C 
ATOM     15  C   UNL     1       1.197   4.228  -6.776  0.00  0.00    +0.008 C 
ATOM     18  C   UNL     1       2.645   3.132  -8.411  0.00  0.00    +0.001 C 
ATOM     19  C   UNL     1       1.244   3.713  -8.212  0.00  0.00    +0.001 C 
BRANCH  10  21
ATOM     21  C   UNL     1       1.749   2.033  -5.632  0.00  0.00    +0.127 C 
BRANCH  21  24
ATOM      5  O   UNL     1       0.092   2.603  -3.936  0.00  0.00    -0.251 OA
ATOM     24  C   UNL     1       0.382   2.115  -5.018  0.00  0.00    +0.305 C 
BRANCH  24   4
ATOM      4  O   UNL     1      -0.524   1.554  -5.858  0.00  0.00    -0.481 OA
ATOM     35  H   UNL     1      -1.424   1.920  -5.723  0.00  0.00    +0.295 HD
ENDBRANCH  24   4
ENDBRANCH  21  24
ENDBRANCH  10  21
ENDBRANCH  17  10
ENDBRANCH  23  17
ENDBRANCH  13   6
TORSDOF 8
ENDMDL
