MODEL 1
REMARK VINA RESULT:      -7.0      0.000      0.000
REMARK  Name = 75536926
REMARK  5 active torsions:
REMARK  status: ('A' for Active; 'I' for Inactive)
REMARK    1  A    between atoms: O_2  and  C_7
REMARK    2  A    between atoms: O_2  and  C_18
REMARK    3  A    between atoms: N_3  and  C_9
REMARK    4  A    between atoms: C_9  and  C_12
REMARK    5  A    between atoms: C_15  and  C_19
REMARK                            x       y       z     vdW  Elec       q    Type
REMARK                         _______ _______ _______ _____ _____    ______ ____
ROOT
ATOM      1  O   UNL     1     -17.198   0.783  24.306  0.00  0.00    -0.375 OA
ATOM      3  N   UNL     1     -16.996   3.590  24.908  0.00  0.00    -0.292 NA
ATOM      6  C   UNL     1     -17.428   3.095  26.214  0.00  0.00    +0.131 C 
ATOM      7  C   UNL     1     -16.769   1.747  26.535  0.00  0.00    +0.215 C 
ATOM      8  C   UNL     1     -17.787   3.093  23.776  0.00  0.00    +0.113 C 
ATOM     10  C   UNL     1     -17.261   0.561  25.710  0.00  0.00    +0.205 C 
ATOM     11  C   UNL     1     -18.240   1.637  23.848  0.00  0.00    +0.175 C 
ENDROOT
BRANCH   7   2
ATOM      2  O   UNL     1     -16.998   1.464  27.916  0.00  0.00    -0.468 OA
BRANCH   2  18
ATOM      4  N   UNL     1     -15.421   0.167  29.028  0.00  0.00    -0.219 NA
ATOM      5  N   UNL     1     -14.202   2.511  29.970  0.00  0.00    -0.256 NA
ATOM     18  C   UNL     1     -15.892   1.391  28.717  0.00  0.00    +0.234 A 
ATOM     20  C   UNL     1     -15.293   2.542  29.179  0.00  0.00    +0.177 A 
ATOM     25  C   UNL     1     -14.331   0.136  29.819  0.00  0.00    +0.134 A 
ATOM     27  C   UNL     1     -13.732   1.287  30.282  0.00  0.00    +0.130 A 
ENDBRANCH   2  18
ENDBRANCH   7   2
BRANCH   3   9
ATOM      9  C   UNL     1     -16.946   5.053  24.879  0.00  0.00    +0.119 C 
BRANCH   9  12
ATOM     12  C   UNL     1     -16.042   5.562  23.787  0.00  0.00    -0.033 A 
ATOM     13  C   UNL     1     -16.486   6.564  22.924  0.00  0.00    +0.005 A 
ATOM     14  C   UNL     1     -14.761   5.029  23.637  0.00  0.00    +0.005 A 
ATOM     15  C   UNL     1     -14.369   6.502  21.763  0.00  0.00    -0.018 A 
ATOM     16  C   UNL     1     -15.650   7.034  21.912  0.00  0.00    +0.009 A 
ATOM     17  C   UNL     1     -13.925   5.499  22.625  0.00  0.00    +0.009 A 
BRANCH  15  19
ATOM     19  C   UNL     1     -13.501   6.990  20.713  0.00  0.00    -0.018 A 
ATOM     21  C   UNL     1     -12.117   6.872  20.842  0.00  0.00    +0.008 A 
ATOM     22  C   UNL     1     -14.048   7.579  19.573  0.00  0.00    +0.008 A 
ATOM     23  C   UNL     1     -11.280   7.343  19.830  0.00  0.00    +0.001 A 
ATOM     24  C   UNL     1     -13.211   8.049  18.562  0.00  0.00    +0.001 A 
ATOM     26  C   UNL     1     -11.826   7.931  18.690  0.00  0.00    +0.000 A 
ENDBRANCH  15  19
ENDBRANCH   9  12
ENDBRANCH   3   9
TORSDOF 5
ENDMDL
MODEL 2
REMARK VINA RESULT:      -6.9     28.688     32.385
REMARK  Name = 75536926
REMARK  5 active torsions:
REMARK  status: ('A' for Active; 'I' for Inactive)
REMARK    1  A    between atoms: O_2  and  C_7
REMARK    2  A    between atoms: O_2  and  C_18
REMARK    3  A    between atoms: N_3  and  C_9
REMARK    4  A    between atoms: C_9  and  C_12
REMARK    5  A    between atoms: C_15  and  C_19
REMARK                            x       y       z     vdW  Elec       q    Type
REMARK                         _______ _______ _______ _____ _____    ______ ____
ROOT
ATOM      1  O   UNL     1      14.614  10.561  16.684  0.00  0.00    -0.375 OA
ATOM      3  N   UNL     1      15.243  10.326  19.483  0.00  0.00    -0.292 NA
ATOM      6  C   UNL     1      13.786  10.223  19.555  0.00  0.00    +0.131 C 
ATOM      7  C   UNL     1      13.235   9.411  18.375  0.00  0.00    +0.215 C 
ATOM      8  C   UNL     1      15.734  11.442  18.668  0.00  0.00    +0.113 C 
ATOM     10  C   UNL     1      13.310  10.096  17.013  0.00  0.00    +0.205 C 
ATOM     11  C   UNL     1      14.956  11.748  17.390  0.00  0.00    +0.175 C 
ENDROOT
BRANCH   7   2
ATOM      2  O   UNL     1      11.868   9.104  18.653  0.00  0.00    -0.468 OA
BRANCH   2  18
ATOM      4  N   UNL     1      12.224   6.990  19.552  0.00  0.00    -0.219 NA
ATOM      5  N   UNL     1      10.570   7.663  21.714  0.00  0.00    -0.256 NA
ATOM     18  C   UNL     1      11.635   8.198  19.650  0.00  0.00    +0.234 A 
ATOM     20  C   UNL     1      10.822   8.529  20.712  0.00  0.00    +0.177 A 
ATOM     25  C   UNL     1      11.970   6.124  20.552  0.00  0.00    +0.134 A 
ATOM     27  C   UNL     1      11.158   6.455  21.614  0.00  0.00    +0.130 A 
ENDBRANCH   2  18
ENDBRANCH   7   2
BRANCH   3   9
ATOM      9  C   UNL     1      15.842  10.379  20.817  0.00  0.00    +0.119 C 
BRANCH   9  12
ATOM     12  C   UNL     1      16.906   9.329  20.996  0.00  0.00    -0.033 A 
ATOM     13  C   UNL     1      16.640   8.001  20.662  0.00  0.00    +0.005 A 
ATOM     14  C   UNL     1      18.159   9.684  21.498  0.00  0.00    +0.005 A 
ATOM     15  C   UNL     1      18.877   7.383  21.330  0.00  0.00    -0.018 A 
ATOM     16  C   UNL     1      17.625   7.029  20.830  0.00  0.00    +0.009 A 
ATOM     17  C   UNL     1      19.144   8.711  21.666  0.00  0.00    +0.009 A 
BRANCH  15  19
ATOM     19  C   UNL     1      19.900   6.374  21.503  0.00  0.00    -0.018 A 
ATOM     21  C   UNL     1      20.699   6.380  22.647  0.00  0.00    +0.008 A 
ATOM     22  C   UNL     1      20.087   5.395  20.527  0.00  0.00    +0.008 A 
ATOM     23  C   UNL     1      21.685   5.407  22.813  0.00  0.00    +0.001 A 
ATOM     24  C   UNL     1      21.072   4.423  20.694  0.00  0.00    +0.001 A 
ATOM     26  C   UNL     1      21.871   4.429  21.838  0.00  0.00    +0.000 A 
ENDBRANCH  15  19
ENDBRANCH   9  12
ENDBRANCH   3   9
TORSDOF 5
ENDMDL
MODEL 3
REMARK VINA RESULT:      -6.6     19.648     21.902
REMARK  Name = 75536926
REMARK  5 active torsions:
REMARK  status: ('A' for Active; 'I' for Inactive)
REMARK    1  A    between atoms: O_2  and  C_7
REMARK    2  A    between atoms: O_2  and  C_18
REMARK    3  A    between atoms: N_3  and  C_9
REMARK    4  A    between atoms: C_9  and  C_12
REMARK    5  A    between atoms: C_15  and  C_19
REMARK                            x       y       z     vdW  Elec       q    Type
REMARK                         _______ _______ _______ _____ _____    ______ ____
ROOT
ATOM      1  O   UNL     1      -2.893 -13.198  12.453  0.00  0.00    -0.375 OA
ATOM      3  N   UNL     1      -2.999 -11.309  14.622  0.00  0.00    -0.292 NA
ATOM      6  C   UNL     1      -2.645 -10.403  13.531  0.00  0.00    +0.131 C 
ATOM      7  C   UNL     1      -3.374 -10.788  12.237  0.00  0.00    +0.215 C 
ATOM      8  C   UNL     1      -2.183 -12.526  14.691  0.00  0.00    +0.113 C 
ATOM     10  C   UNL     1      -2.899 -12.079  11.575  0.00  0.00    +0.205 C 
ATOM     11  C   UNL     1      -1.797 -13.166  13.359  0.00  0.00    +0.175 C 
ENDROOT
BRANCH   7   2
ATOM      2  O   UNL     1      -3.216  -9.716  11.307  0.00  0.00    -0.468 OA
BRANCH   2  18
ATOM      4  N   UNL     1      -4.100  -9.568   9.162  0.00  0.00    -0.219 NA
ATOM      5  N   UNL     1      -6.567  -8.812  10.263  0.00  0.00    -0.256 NA
ATOM     18  C   UNL     1      -4.282  -9.452  10.492  0.00  0.00    +0.234 A 
ATOM     20  C   UNL     1      -5.493  -9.081  11.034  0.00  0.00    +0.177 A 
ATOM     25  C   UNL     1      -5.173  -9.299   8.392  0.00  0.00    +0.134 A 
ATOM     27  C   UNL     1      -6.384  -8.928   8.933  0.00  0.00    +0.130 A 
ENDBRANCH   2  18
ENDBRANCH   7   2
BRANCH   3   9
ATOM      9  C   UNL     1      -2.986 -10.623  15.915  0.00  0.00    +0.119 C 
BRANCH   9  12
ATOM     12  C   UNL     1      -4.365 -10.518  16.509  0.00  0.00    -0.033 A 
ATOM     13  C   UNL     1      -5.385  -9.886  15.798  0.00  0.00    +0.005 A 
ATOM     14  C   UNL     1      -4.623 -11.052  17.772  0.00  0.00    +0.005 A 
ATOM     15  C   UNL     1      -6.921 -10.322  17.611  0.00  0.00    -0.018 A 
ATOM     16  C   UNL     1      -6.663  -9.788  16.349  0.00  0.00    +0.009 A 
ATOM     17  C   UNL     1      -5.900 -10.954  18.323  0.00  0.00    +0.009 A 
BRANCH  15  19
ATOM     19  C   UNL     1      -8.246 -10.221  18.183  0.00  0.00    -0.018 A 
ATOM     21  C   UNL     1      -9.202  -9.400  17.584  0.00  0.00    +0.008 A 
ATOM     22  C   UNL     1      -8.568 -10.944  19.332  0.00  0.00    +0.008 A 
ATOM     23  C   UNL     1     -10.480  -9.303  18.136  0.00  0.00    +0.001 A 
ATOM     24  C   UNL     1      -9.845 -10.846  19.882  0.00  0.00    +0.001 A 
ATOM     26  C   UNL     1     -10.802 -10.026  19.284  0.00  0.00    +0.000 A 
ENDBRANCH  15  19
ENDBRANCH   9  12
ENDBRANCH   3   9
TORSDOF 5
ENDMDL
MODEL 4
REMARK VINA RESULT:      -6.2     26.917     29.190
REMARK  Name = 75536926
REMARK  5 active torsions:
REMARK  status: ('A' for Active; 'I' for Inactive)
REMARK    1  A    between atoms: O_2  and  C_7
REMARK    2  A    between atoms: O_2  and  C_18
REMARK    3  A    between atoms: N_3  and  C_9
REMARK    4  A    between atoms: C_9  and  C_12
REMARK    5  A    between atoms: C_15  and  C_19
REMARK                            x       y       z     vdW  Elec       q    Type
REMARK                         _______ _______ _______ _____ _____    ______ ____
ROOT
ATOM      1  O   UNL     1      10.022  -7.146  36.042  0.00  0.00    -0.375 OA
ATOM      3  N   UNL     1       7.955  -7.100  34.040  0.00  0.00    -0.292 NA
ATOM      6  C   UNL     1       8.709  -5.916  33.634  0.00  0.00    +0.131 C 
ATOM      7  C   UNL     1      10.218  -6.142  33.798  0.00  0.00    +0.215 C 
ATOM      8  C   UNL     1       7.647  -7.164  35.473  0.00  0.00    +0.113 C 
ATOM     10  C   UNL     1      10.721  -6.204  35.238  0.00  0.00    +0.205 C 
ATOM     11  C   UNL     1       8.736  -6.677  36.427  0.00  0.00    +0.175 C 
ENDROOT
BRANCH   7   2
ATOM      2  O   UNL     1      10.897  -5.081  33.125  0.00  0.00    -0.468 OA
BRANCH   2  18
ATOM      4  N   UNL     1      11.652  -6.476  31.425  0.00  0.00    -0.219 NA
ATOM      5  N   UNL     1      14.091  -5.092  31.413  0.00  0.00    -0.256 NA
ATOM     18  C   UNL     1      11.891  -5.444  32.258  0.00  0.00    +0.234 A 
ATOM     20  C   UNL     1      13.089  -4.764  32.252  0.00  0.00    +0.177 A 
ATOM     25  C   UNL     1      12.655  -6.805  30.587  0.00  0.00    +0.134 A 
ATOM     27  C   UNL     1      13.853  -6.124  30.581  0.00  0.00    +0.130 A 
ENDBRANCH   2  18
ENDBRANCH   7   2
BRANCH   3   9
ATOM      9  C   UNL     1       6.727  -7.249  33.257  0.00  0.00    +0.119 C 
BRANCH   9  12
ATOM     12  C   UNL     1       6.755  -8.485  32.398  0.00  0.00    -0.033 A 
ATOM     13  C   UNL     1       6.766  -9.747  32.991  0.00  0.00    +0.005 A 
ATOM     14  C   UNL     1       6.772  -8.367  31.007  0.00  0.00    +0.005 A 
ATOM     15  C   UNL     1       6.810 -10.774  30.805  0.00  0.00    -0.018 A 
ATOM     16  C   UNL     1       6.793 -10.891  32.194  0.00  0.00    +0.009 A 
ATOM     17  C   UNL     1       6.800  -9.511  30.211  0.00  0.00    +0.009 A 
BRANCH  15  19
ATOM     19  C   UNL     1       6.838 -11.961  29.979  0.00  0.00    -0.018 A 
ATOM     21  C   UNL     1       7.861 -12.139  29.047  0.00  0.00    +0.008 A 
ATOM     22  C   UNL     1       5.841 -12.929  30.113  0.00  0.00    +0.008 A 
ATOM     23  C   UNL     1       7.887 -13.283  28.250  0.00  0.00    +0.001 A 
ATOM     24  C   UNL     1       5.868 -14.073  29.316  0.00  0.00    +0.001 A 
ATOM     26  C   UNL     1       6.892 -14.251  28.385  0.00  0.00    +0.000 A 
ENDBRANCH  15  19
ENDBRANCH   9  12
ENDBRANCH   3   9
TORSDOF 5
ENDMDL
MODEL 5
REMARK VINA RESULT:      -6.1     31.015     35.622
REMARK  Name = 75536926
REMARK  5 active torsions:
REMARK  status: ('A' for Active; 'I' for Inactive)
REMARK    1  A    between atoms: O_2  and  C_7
REMARK    2  A    between atoms: O_2  and  C_18
REMARK    3  A    between atoms: N_3  and  C_9
REMARK    4  A    between atoms: C_9  and  C_12
REMARK    5  A    between atoms: C_15  and  C_19
REMARK                            x       y       z     vdW  Elec       q    Type
REMARK                         _______ _______ _______ _____ _____    ______ ____
ROOT
ATOM      1  O   UNL     1      12.197   4.230   2.358  0.00  0.00    -0.375 OA
ATOM      3  N   UNL     1      12.628   6.920   3.285  0.00  0.00    -0.292 NA
ATOM      6  C   UNL     1      11.194   6.805   3.540  0.00  0.00    +0.131 C 
ATOM      7  C   UNL     1      10.836   5.402   4.049  0.00  0.00    +0.215 C 
ATOM      8  C   UNL     1      13.046   6.482   1.949  0.00  0.00    +0.113 C 
ATOM     10  C   UNL     1      10.936   4.283   3.015  0.00  0.00    +0.205 C 
ATOM     11  C   UNL     1      12.340   5.253   1.381  0.00  0.00    +0.175 C 
ENDROOT
BRANCH   7   2
ATOM      2  O   UNL     1       9.498   5.442   4.545  0.00  0.00    -0.468 OA
BRANCH   2  18
ATOM      4  N   UNL     1      10.091   5.615   6.786  0.00  0.00    -0.219 NA
ATOM      5  N   UNL     1       8.158   7.621   7.112  0.00  0.00    -0.256 NA
ATOM     18  C   UNL     1       9.316   6.031   5.766  0.00  0.00    +0.234 A 
ATOM     20  C   UNL     1       8.367   7.017   5.925  0.00  0.00    +0.177 A 
ATOM     25  C   UNL     1       9.882   6.218   7.973  0.00  0.00    +0.134 A 
ATOM     27  C   UNL     1       8.933   7.204   8.133  0.00  0.00    +0.130 A 
ENDBRANCH   2  18
ENDBRANCH   7   2
BRANCH   3   9
ATOM      9  C   UNL     1      13.111   8.278   3.542  0.00  0.00    +0.119 C 
BRANCH   9  12
ATOM     12  C   UNL     1      14.542   8.285   4.011  0.00  0.00    -0.033 A 
ATOM     13  C   UNL     1      15.575   8.507   3.100  0.00  0.00    +0.005 A 
ATOM     14  C   UNL     1      14.835   8.068   5.358  0.00  0.00    +0.005 A 
ATOM     15  C   UNL     1      17.193   8.296   4.881  0.00  0.00    -0.018 A 
ATOM     16  C   UNL     1      16.899   8.512   3.535  0.00  0.00    +0.009 A 
ATOM     17  C   UNL     1      16.160   8.073   5.793  0.00  0.00    +0.009 A 
BRANCH  15  19
ATOM     19  C   UNL     1      18.567   8.302   5.332  0.00  0.00    -0.018 A 
ATOM     21  C   UNL     1      18.875   8.737   6.621  0.00  0.00    +0.008 A 
ATOM     22  C   UNL     1      19.584   7.873   4.479  0.00  0.00    +0.008 A 
ATOM     23  C   UNL     1      20.201   8.743   7.057  0.00  0.00    +0.001 A 
ATOM     24  C   UNL     1      20.908   7.879   4.915  0.00  0.00    +0.001 A 
ATOM     26  C   UNL     1      21.217   8.314   6.204  0.00  0.00    +0.000 A 
ENDBRANCH  15  19
ENDBRANCH   9  12
ENDBRANCH   3   9
TORSDOF 5
ENDMDL
MODEL 6
REMARK VINA RESULT:      -6.1     21.032     23.335
REMARK  Name = 75536926
REMARK  5 active torsions:
REMARK  status: ('A' for Active; 'I' for Inactive)
REMARK    1  A    between atoms: O_2  and  C_7
REMARK    2  A    between atoms: O_2  and  C_18
REMARK    3  A    between atoms: N_3  and  C_9
REMARK    4  A    between atoms: C_9  and  C_12
REMARK    5  A    between atoms: C_15  and  C_19
REMARK                            x       y       z     vdW  Elec       q    Type
REMARK                         _______ _______ _______ _____ _____    ______ ____
ROOT
ATOM      1  O   UNL     1      -5.839 -13.102   9.055  0.00  0.00    -0.375 OA
ATOM      3  N   UNL     1      -4.320 -11.026  10.347  0.00  0.00    -0.292 NA
ATOM      6  C   UNL     1      -4.359 -10.486   8.989  0.00  0.00    +0.131 C 
ATOM      7  C   UNL     1      -5.721 -10.747   8.333  0.00  0.00    +0.215 C 
ATOM      8  C   UNL     1      -3.932 -12.439  10.429  0.00  0.00    +0.113 C 
ATOM     10  C   UNL     1      -6.007 -12.201   7.968  0.00  0.00    +0.205 C 
ATOM     11  C   UNL     1      -4.468 -13.359   9.335  0.00  0.00    +0.175 C 
ENDROOT
BRANCH   7   2
ATOM      2  O   UNL     1      -5.795  -9.958   7.144  0.00  0.00    -0.468 OA
BRANCH   2  18
ATOM      4  N   UNL     1      -7.172  -8.470   8.281  0.00  0.00    -0.219 NA
ATOM      5  N   UNL     1      -8.253  -7.644   5.828  0.00  0.00    -0.256 NA
ATOM     18  C   UNL     1      -6.765  -8.996   7.109  0.00  0.00    +0.234 A 
ATOM     20  C   UNL     1      -7.296  -8.590   5.904  0.00  0.00    +0.177 A 
ATOM     25  C   UNL     1      -8.130  -7.525   8.205  0.00  0.00    +0.134 A 
ATOM     27  C   UNL     1      -8.661  -7.119   7.000  0.00  0.00    +0.130 A 
ENDBRANCH   2  18
ENDBRANCH   7   2
BRANCH   3   9
ATOM      9  C   UNL     1      -3.465 -10.221  11.220  0.00  0.00    +0.119 C 
BRANCH   9  12
ATOM     12  C   UNL     1      -3.838 -10.378  12.670  0.00  0.00    -0.033 A 
ATOM     13  C   UNL     1      -2.851 -10.637  13.621  0.00  0.00    +0.005 A 
ATOM     14  C   UNL     1      -5.173 -10.266  13.063  0.00  0.00    +0.005 A 
ATOM     15  C   UNL     1      -4.530 -10.671  15.357  0.00  0.00    -0.018 A 
ATOM     16  C   UNL     1      -3.197 -10.784  14.964  0.00  0.00    +0.009 A 
ATOM     17  C   UNL     1      -5.519 -10.413  14.406  0.00  0.00    +0.009 A 
BRANCH  15  19
ATOM     19  C   UNL     1      -4.889 -10.823  16.750  0.00  0.00    -0.018 A 
ATOM     21  C   UNL     1      -4.048 -11.525  17.614  0.00  0.00    +0.008 A 
ATOM     22  C   UNL     1      -6.075 -10.268  17.230  0.00  0.00    +0.008 A 
ATOM     23  C   UNL     1      -4.395 -11.671  18.958  0.00  0.00    +0.001 A 
ATOM     24  C   UNL     1      -6.421 -10.414  18.573  0.00  0.00    +0.001 A 
ATOM     26  C   UNL     1      -5.580 -11.115  19.437  0.00  0.00    +0.000 A 
ENDBRANCH  15  19
ENDBRANCH   9  12
ENDBRANCH   3   9
TORSDOF 5
ENDMDL
MODEL 7
REMARK VINA RESULT:      -6.1     18.611     20.930
REMARK  Name = 75536926
REMARK  5 active torsions:
REMARK  status: ('A' for Active; 'I' for Inactive)
REMARK    1  A    between atoms: O_2  and  C_7
REMARK    2  A    between atoms: O_2  and  C_18
REMARK    3  A    between atoms: N_3  and  C_9
REMARK    4  A    between atoms: C_9  and  C_12
REMARK    5  A    between atoms: C_15  and  C_19
REMARK                            x       y       z     vdW  Elec       q    Type
REMARK                         _______ _______ _______ _____ _____    ______ ____
ROOT
ATOM      1  O   UNL     1      -4.681 -13.460  13.868  0.00  0.00    -0.375 OA
ATOM      3  N   UNL     1      -4.773 -11.246  15.704  0.00  0.00    -0.292 NA
ATOM      6  C   UNL     1      -3.833 -10.706  14.724  0.00  0.00    +0.131 C 
ATOM      7  C   UNL     1      -4.238 -11.102  13.297  0.00  0.00    +0.215 C 
ATOM      8  C   UNL     1      -4.472 -12.612  16.148  0.00  0.00    +0.113 C 
ATOM     10  C   UNL     1      -4.053 -12.576  12.947  0.00  0.00    +0.205 C 
ATOM     11  C   UNL     1      -3.953 -13.576  15.084  0.00  0.00    +0.175 C 
ENDROOT
BRANCH   7   2
ATOM      2  O   UNL     1      -3.465 -10.319  12.387  0.00  0.00    -0.468 OA
BRANCH   2  18
ATOM      4  N   UNL     1      -3.479  -9.448  10.232  0.00  0.00    -0.219 NA
ATOM      5  N   UNL     1      -6.185  -8.783  10.550  0.00  0.00    -0.256 NA
ATOM     18  C   UNL     1      -4.148  -9.710  11.371  0.00  0.00    +0.234 A 
ATOM     20  C   UNL     1      -5.478  -9.384  11.528  0.00  0.00    +0.177 A 
ATOM     25  C   UNL     1      -4.185  -8.847   9.255  0.00  0.00    +0.134 A 
ATOM     27  C   UNL     1      -5.514  -8.520   9.411  0.00  0.00    +0.130 A 
ENDBRANCH   2  18
ENDBRANCH   7   2
BRANCH   3   9
ATOM      9  C   UNL     1      -4.907 -10.361  16.862  0.00  0.00    +0.119 C 
BRANCH   9  12
ATOM     12  C   UNL     1      -6.337 -10.248  17.320  0.00  0.00    -0.033 A 
ATOM     13  C   UNL     1      -7.247  -9.488  16.586  0.00  0.00    +0.005 A 
ATOM     14  C   UNL     1      -6.752 -10.904  18.480  0.00  0.00    +0.005 A 
ATOM     15  C   UNL     1      -8.986 -10.038  18.169  0.00  0.00    -0.018 A 
ATOM     16  C   UNL     1      -8.571  -9.383  17.010  0.00  0.00    +0.009 A 
ATOM     17  C   UNL     1      -8.076 -10.799  18.905  0.00  0.00    +0.009 A 
BRANCH  15  19
ATOM     19  C   UNL     1     -10.360  -9.930  18.610  0.00  0.00    -0.018 A 
ATOM     21  C   UNL     1     -10.698 -10.254  19.924  0.00  0.00    +0.008 A 
ATOM     22  C   UNL     1     -11.346  -9.501  17.721  0.00  0.00    +0.008 A 
ATOM     23  C   UNL     1     -12.023 -10.150  20.348  0.00  0.00    +0.001 A 
ATOM     24  C   UNL     1     -12.670  -9.397  18.146  0.00  0.00    +0.001 A 
ATOM     26  C   UNL     1     -13.009  -9.721  19.460  0.00  0.00    +0.000 A 
ENDBRANCH  15  19
ENDBRANCH   9  12
ENDBRANCH   3   9
TORSDOF 5
ENDMDL
MODEL 8
REMARK VINA RESULT:      -6.0     18.032     19.866
REMARK  Name = 75536926
REMARK  5 active torsions:
REMARK  status: ('A' for Active; 'I' for Inactive)
REMARK    1  A    between atoms: O_2  and  C_7
REMARK    2  A    between atoms: O_2  and  C_18
REMARK    3  A    between atoms: N_3  and  C_9
REMARK    4  A    between atoms: C_9  and  C_12
REMARK    5  A    between atoms: C_15  and  C_19
REMARK                            x       y       z     vdW  Elec       q    Type
REMARK                         _______ _______ _______ _____ _____    ______ ____
ROOT
ATOM      1  O   UNL     1      -5.239 -13.828  15.890  0.00  0.00    -0.375 OA
ATOM      3  N   UNL     1      -6.058 -11.700  17.646  0.00  0.00    -0.292 NA
ATOM      6  C   UNL     1      -4.777 -11.160  17.195  0.00  0.00    +0.131 C 
ATOM      7  C   UNL     1      -4.542 -11.469  15.711  0.00  0.00    +0.215 C 
ATOM      8  C   UNL     1      -6.007 -13.098  18.090  0.00  0.00    +0.113 C 
ATOM     10  C   UNL     1      -4.258 -12.932  15.381  0.00  0.00    +0.205 C 
ATOM     11  C   UNL     1      -5.104 -14.035  17.291  0.00  0.00    +0.175 C 
ENDROOT
BRANCH   7   2
ATOM      2  O   UNL     1      -3.436 -10.682  15.268  0.00  0.00    -0.468 OA
BRANCH   2  18
ATOM      4  N   UNL     1      -4.372 -10.283  13.177  0.00  0.00    -0.219 NA
ATOM      5  N   UNL     1      -1.837 -10.591  12.017  0.00  0.00    -0.256 NA
ATOM     18  C   UNL     1      -3.278 -10.556  13.915  0.00  0.00    +0.234 A 
ATOM     20  C   UNL     1      -2.033 -10.707  13.345  0.00  0.00    +0.177 A 
ATOM     25  C   UNL     1      -4.177 -10.168  11.849  0.00  0.00    +0.134 A 
ATOM     27  C   UNL     1      -2.931 -10.319  11.279  0.00  0.00    +0.130 A 
ENDBRANCH   2  18
ENDBRANCH   7   2
BRANCH   3   9
ATOM      9  C   UNL     1      -6.655 -10.865  18.689  0.00  0.00    +0.119 C 
BRANCH   9  12
ATOM     12  C   UNL     1      -7.901 -10.170  18.208  0.00  0.00    -0.033 A 
ATOM     13  C   UNL     1      -7.806  -9.119  17.296  0.00  0.00    +0.005 A 
ATOM     14  C   UNL     1      -9.152 -10.577  18.675  0.00  0.00    +0.005 A 
ATOM     15  C   UNL     1     -10.209  -8.881  17.317  0.00  0.00    -0.018 A 
ATOM     16  C   UNL     1      -8.959  -8.475  16.851  0.00  0.00    +0.009 A 
ATOM     17  C   UNL     1     -10.305  -9.933  18.231  0.00  0.00    +0.009 A 
BRANCH  15  19
ATOM     19  C   UNL     1     -11.407  -8.214  16.855  0.00  0.00    -0.018 A 
ATOM     21  C   UNL     1     -12.654  -8.806  17.049  0.00  0.00    +0.008 A 
ATOM     22  C   UNL     1     -11.314  -6.977  16.216  0.00  0.00    +0.008 A 
ATOM     23  C   UNL     1     -13.809  -8.162  16.603  0.00  0.00    +0.001 A 
ATOM     24  C   UNL     1     -12.467  -6.334  15.771  0.00  0.00    +0.001 A 
ATOM     26  C   UNL     1     -13.716  -6.926  15.965  0.00  0.00    +0.000 A 
ENDBRANCH  15  19
ENDBRANCH   9  12
ENDBRANCH   3   9
TORSDOF 5
ENDMDL
MODEL 9
REMARK VINA RESULT:      -6.0      6.908     11.056
REMARK  Name = 75536926
REMARK  5 active torsions:
REMARK  status: ('A' for Active; 'I' for Inactive)
REMARK    1  A    between atoms: O_2  and  C_7
REMARK    2  A    between atoms: O_2  and  C_18
REMARK    3  A    between atoms: N_3  and  C_9
REMARK    4  A    between atoms: C_9  and  C_12
REMARK    5  A    between atoms: C_15  and  C_19
REMARK                            x       y       z     vdW  Elec       q    Type
REMARK                         _______ _______ _______ _____ _____    ______ ____
ROOT
ATOM      1  O   UNL     1     -10.811  10.025  32.512  0.00  0.00    -0.375 OA
ATOM      3  N   UNL     1     -13.437   8.851  32.610  0.00  0.00    -0.292 NA
ATOM      6  C   UNL     1     -13.698   9.945  31.677  0.00  0.00    +0.131 C 
ATOM      7  C   UNL     1     -12.510  10.153  30.728  0.00  0.00    +0.215 C 
ATOM      8  C   UNL     1     -12.716   9.247  33.826  0.00  0.00    +0.113 C 
ATOM     10  C   UNL     1     -11.255  10.743  31.366  0.00  0.00    +0.205 C 
ATOM     11  C   UNL     1     -11.613  10.289  33.656  0.00  0.00    +0.175 C 
ENDROOT
BRANCH   7   2
ATOM      2  O   UNL     1     -12.934  11.021  29.676  0.00  0.00    -0.468 OA
BRANCH   2  18
ATOM      4  N   UNL     1     -11.430   9.860  28.337  0.00  0.00    -0.219 NA
ATOM      5  N   UNL     1     -11.930  11.672  26.255  0.00  0.00    -0.256 NA
ATOM     18  C   UNL     1     -12.294  10.884  28.475  0.00  0.00    +0.234 A 
ATOM     20  C   UNL     1     -12.540  11.775  27.453  0.00  0.00    +0.177 A 
ATOM     25  C   UNL     1     -10.819   9.759  27.140  0.00  0.00    +0.134 A 
ATOM     27  C   UNL     1     -11.065  10.649  26.118  0.00  0.00    +0.130 A 
ENDBRANCH   2  18
ENDBRANCH   7   2
BRANCH   3   9
ATOM      9  C   UNL     1     -14.668   8.144  32.966  0.00  0.00    +0.119 C 
BRANCH   9  12
ATOM     12  C   UNL     1     -14.714   6.762  32.371  0.00  0.00    -0.033 A 
ATOM     13  C   UNL     1     -13.756   5.815  32.733  0.00  0.00    +0.005 A 
ATOM     14  C   UNL     1     -15.714   6.429  31.456  0.00  0.00    +0.005 A 
ATOM     15  C   UNL     1     -14.797   4.202  31.267  0.00  0.00    -0.018 A 
ATOM     16  C   UNL     1     -13.797   4.535  32.181  0.00  0.00    +0.009 A 
ATOM     17  C   UNL     1     -15.755   5.149  30.904  0.00  0.00    +0.009 A 
BRANCH  15  19
ATOM     19  C   UNL     1     -14.840   2.874  30.695  0.00  0.00    -0.018 A 
ATOM     21  C   UNL     1     -13.679   2.104  30.630  0.00  0.00    +0.008 A 
ATOM     22  C   UNL     1     -16.044   2.363  30.207  0.00  0.00    +0.008 A 
ATOM     23  C   UNL     1     -13.721   0.823  30.078  0.00  0.00    +0.001 A 
ATOM     24  C   UNL     1     -16.085   1.083  29.656  0.00  0.00    +0.001 A 
ATOM     26  C   UNL     1     -14.924   0.312  29.592  0.00  0.00    +0.000 A 
ENDBRANCH  15  19
ENDBRANCH   9  12
ENDBRANCH   3   9
TORSDOF 5
ENDMDL
MODEL 10
REMARK VINA RESULT:      -5.9     16.378     17.949
REMARK  Name = 75536926
REMARK  5 active torsions:
REMARK  status: ('A' for Active; 'I' for Inactive)
REMARK    1  A    between atoms: O_2  and  C_7
REMARK    2  A    between atoms: O_2  and  C_18
REMARK    3  A    between atoms: N_3  and  C_9
REMARK    4  A    between atoms: C_9  and  C_12
REMARK    5  A    between atoms: C_15  and  C_19
REMARK                            x       y       z     vdW  Elec       q    Type
REMARK                         _______ _______ _______ _____ _____    ______ ____
ROOT
ATOM      1  O   UNL     1     -15.614  -4.594  11.781  0.00  0.00    -0.375 OA
ATOM      3  N   UNL     1     -13.108  -3.856  10.573  0.00  0.00    -0.292 NA
ATOM      6  C   UNL     1     -12.741  -3.732  11.983  0.00  0.00    +0.131 C 
ATOM      7  C   UNL     1     -13.391  -4.843  12.819  0.00  0.00    +0.215 C 
ATOM      8  C   UNL     1     -14.368  -3.197  10.212  0.00  0.00    +0.113 C 
ATOM     10  C   UNL     1     -14.902  -4.728  13.005  0.00  0.00    +0.205 C 
ATOM     11  C   UNL     1     -15.502  -3.287  11.232  0.00  0.00    +0.175 C 
ENDROOT
BRANCH   7   2
ATOM      2  O   UNL     1     -12.775  -4.841  14.107  0.00  0.00    -0.468 OA
BRANCH   2  18
ATOM      4  N   UNL     1     -11.174  -5.847  15.460  0.00  0.00    -0.219 NA
ATOM      5  N   UNL     1     -11.510  -8.237  14.030  0.00  0.00    -0.256 NA
ATOM     18  C   UNL     1     -12.045  -5.950  14.437  0.00  0.00    +0.234 A 
ATOM     20  C   UNL     1     -12.211  -7.123  13.735  0.00  0.00    +0.177 A 
ATOM     25  C   UNL     1     -10.473  -6.960  15.755  0.00  0.00    +0.134 A 
ATOM     27  C   UNL     1     -10.638  -8.133  15.052  0.00  0.00    +0.130 A 
ENDBRANCH   2  18
ENDBRANCH   7   2
BRANCH   3   9
ATOM      9  C   UNL     1     -12.032  -3.392   9.697  0.00  0.00    +0.119 C 
BRANCH   9  12
ATOM     12  C   UNL     1     -11.099  -4.509   9.313  0.00  0.00    -0.033 A 
ATOM     13  C   UNL     1     -11.507  -5.836   9.448  0.00  0.00    +0.005 A 
ATOM     14  C   UNL     1      -9.824  -4.218   8.825  0.00  0.00    +0.005 A 
ATOM     15  C   UNL     1      -9.369  -6.580   8.606  0.00  0.00    -0.018 A 
ATOM     16  C   UNL     1     -10.642  -6.871   9.094  0.00  0.00    +0.009 A 
ATOM     17  C   UNL     1      -8.959  -5.253   8.472  0.00  0.00    +0.009 A 
BRANCH  15  19
ATOM     19  C   UNL     1      -8.472  -7.654   8.238  0.00  0.00    -0.018 A 
ATOM     21  C   UNL     1      -8.264  -7.959   6.893  0.00  0.00    +0.008 A 
ATOM     22  C   UNL     1      -7.814  -8.384   9.228  0.00  0.00    +0.008 A 
ATOM     23  C   UNL     1      -7.399  -8.995   6.538  0.00  0.00    +0.001 A 
ATOM     24  C   UNL     1      -6.950  -9.419   8.874  0.00  0.00    +0.001 A 
ATOM     26  C   UNL     1      -6.741  -9.724   7.528  0.00  0.00    +0.000 A 
ENDBRANCH  15  19
ENDBRANCH   9  12
ENDBRANCH   3   9
TORSDOF 5
ENDMDL
