MODEL 1
REMARK VINA RESULT:      -7.6      0.000      0.000
REMARK  Name = 11867238
REMARK  6 active torsions:
REMARK  status: ('A' for Active; 'I' for Inactive)
REMARK    1  A    between atoms: S_1  and  N_11
REMARK    2  A    between atoms: S_1  and  C_25
REMARK    3  A    between atoms: O_7  and  C_35
REMARK    4  A    between atoms: O_7  and  C_36
REMARK    5  A    between atoms: N_10  and  C_24
REMARK    6  A    between atoms: N_11  and  C_22
REMARK                            x       y       z     vdW  Elec       q    Type
REMARK                         _______ _______ _______ _____ _____    ______ ____
ROOT
ATOM      3  O   UNL     1      12.092   9.194  16.934  0.00  0.00    -0.266 OA
ATOM      4  O   UNL     1      10.506   9.143  21.942  0.00  0.00    -0.252 OA
ATOM      8  N   UNL     1      12.694   8.395  21.855  0.00  0.00    -0.284 N 
ATOM      9  N   UNL     1      13.449   8.638  18.762  0.00  0.00    -0.310 N 
ATOM     10  N   UNL     1      12.209  10.607  22.519  0.00  0.00    -0.269 N 
ATOM     12  C   UNL     1      13.069   6.558  20.201  0.00  0.00    +0.027 C 
ATOM     13  C   UNL     1      14.905   8.097  20.747  0.00  0.00    +0.054 C 
ATOM     14  C   UNL     1      14.567   6.635  20.467  0.00  0.00    +0.018 C 
ATOM     15  C   UNL     1      12.282   7.057  21.424  0.00  0.00    +0.114 C 
ATOM     16  C   UNL     1      12.744   7.362  18.937  0.00  0.00    +0.130 C 
ATOM     17  C   UNL     1      14.150   8.578  22.004  0.00  0.00    +0.119 C 
ATOM     18  C   UNL     1      14.545   8.979  19.565  0.00  0.00    +0.027 A 
ATOM     19  C   UNL     1      15.251  10.097  19.314  0.00  0.00    +0.024 A 
ATOM     20  C   UNL     1      13.034   9.448  17.684  0.00  0.00    +0.274 A 
ATOM     21  C   UNL     1      11.707   9.378  22.090  0.00  0.00    +0.306 C 
ATOM     22  C   UNL     1      13.837  10.679  17.473  0.00  0.00    +0.112 A 
ATOM     23  C   UNL     1      14.889  10.977  18.237  0.00  0.00    +0.031 A 
ATOM     37  H   UNL     1      13.086  10.618  23.027  0.00  0.00    +0.156 HD
ENDROOT
BRANCH  10  24
ATOM      2  F   UNL     1       9.830  15.578  21.945  0.00  0.00    -0.205 F 
ATOM     24  C   UNL     1      11.599  11.878  22.372  0.00  0.00    +0.035 A 
ATOM     26  C   UNL     1      11.757  12.587  21.185  0.00  0.00    +0.026 A 
ATOM     27  C   UNL     1      10.848  12.411  23.416  0.00  0.00    +0.026 A 
ATOM     30  C   UNL     1      11.158  13.839  21.040  0.00  0.00    +0.040 A 
ATOM     31  C   UNL     1      10.249  13.662  23.272  0.00  0.00    +0.040 A 
ATOM     32  C   UNL     1      10.404  14.376  22.084  0.00  0.00    +0.124 A 
ENDBRANCH  10  24
BRANCH  22  11
ATOM     11  N   UNL     1      13.511  11.567  16.434  0.00  0.00    -0.211 N 
ATOM     38  H   UNL     1      12.509  11.809  16.414  0.00  0.00    +0.174 HD
BRANCH  11   1
ATOM      1  S   UNL     1      14.190  11.258  14.915  0.00  0.00    +0.073 S 
ATOM      5  O   UNL     1      14.649   9.883  14.856  0.00  0.00    -0.150 OA
ATOM      6  O   UNL     1      13.324  11.783  13.877  0.00  0.00    -0.150 OA
BRANCH   1  25
ATOM     25  C   UNL     1      15.625  12.289  14.978  0.00  0.00    +0.109 A 
ATOM     28  C   UNL     1      15.470  13.646  15.205  0.00  0.00    +0.032 A 
ATOM     29  C   UNL     1      16.874  11.721  14.802  0.00  0.00    +0.032 A 
ATOM     33  C   UNL     1      16.602  14.460  15.255  0.00  0.00    +0.047 A 
ATOM     34  C   UNL     1      18.006  12.535  14.853  0.00  0.00    +0.047 A 
ATOM     35  C   UNL     1      17.869  13.904  15.079  0.00  0.00    +0.120 A 
BRANCH  35   7
ATOM      7  O   UNL     1      18.974  14.699  15.129  0.00  0.00    -0.495 OA
ATOM     36  C   UNL     1      20.053  14.365  14.259  0.00  0.00    +0.277 C 
ENDBRANCH  35   7
ENDBRANCH   1  25
ENDBRANCH  11   1
ENDBRANCH  22  11
TORSDOF 5
ENDMDL
MODEL 2
REMARK VINA RESULT:      -7.5      2.087      3.185
REMARK  Name = 11867238
REMARK  6 active torsions:
REMARK  status: ('A' for Active; 'I' for Inactive)
REMARK    1  A    between atoms: S_1  and  N_11
REMARK    2  A    between atoms: S_1  and  C_25
REMARK    3  A    between atoms: O_7  and  C_35
REMARK    4  A    between atoms: O_7  and  C_36
REMARK    5  A    between atoms: N_10  and  C_24
REMARK    6  A    between atoms: N_11  and  C_22
REMARK                            x       y       z     vdW  Elec       q    Type
REMARK                         _______ _______ _______ _____ _____    ______ ____
ROOT
ATOM      3  O   UNL     1      12.482   9.892  17.125  0.00  0.00    -0.266 OA
ATOM      4  O   UNL     1      10.620   8.687  21.888  0.00  0.00    -0.252 OA
ATOM      8  N   UNL     1      12.848   8.067  21.789  0.00  0.00    -0.284 N 
ATOM      9  N   UNL     1      13.762   9.007  18.878  0.00  0.00    -0.310 N 
ATOM     10  N   UNL     1      12.206  10.059  22.878  0.00  0.00    -0.269 N 
ATOM     12  C   UNL     1      13.415   6.650  19.808  0.00  0.00    +0.027 C 
ATOM     13  C   UNL     1      15.131   8.107  20.793  0.00  0.00    +0.054 C 
ATOM     14  C   UNL     1      14.890   6.729  20.184  0.00  0.00    +0.018 C 
ATOM     15  C   UNL     1      12.534   6.838  21.054  0.00  0.00    +0.114 C 
ATOM     16  C   UNL     1      13.119   7.696  18.727  0.00  0.00    +0.130 C 
ATOM     17  C   UNL     1      14.281   8.272  22.071  0.00  0.00    +0.119 C 
ATOM     18  C   UNL     1      14.790   9.210  19.807  0.00  0.00    +0.027 A 
ATOM     19  C   UNL     1      15.448  10.384  19.850  0.00  0.00    +0.024 A 
ATOM     20  C   UNL     1      13.365  10.015  17.973  0.00  0.00    +0.274 A 
ATOM     21  C   UNL     1      11.797   8.933  22.163  0.00  0.00    +0.306 C 
ATOM     22  C   UNL     1      14.110  11.294  18.086  0.00  0.00    +0.112 A 
ATOM     23  C   UNL     1      15.099  11.462  18.964  0.00  0.00    +0.031 A 
ATOM     37  H   UNL     1      13.051   9.995  23.434  0.00  0.00    +0.156 HD
ENDROOT
BRANCH  10  24
ATOM      2  F   UNL     1       9.596  14.934  23.225  0.00  0.00    -0.205 F 
ATOM     24  C   UNL     1      11.537  11.306  22.966  0.00  0.00    +0.035 A 
ATOM     26  C   UNL     1      11.436  12.117  21.841  0.00  0.00    +0.026 A 
ATOM     27  C   UNL     1      10.988  11.711  24.180  0.00  0.00    +0.026 A 
ATOM     30  C   UNL     1      10.779  13.345  21.928  0.00  0.00    +0.040 A 
ATOM     31  C   UNL     1      10.330  12.939  24.267  0.00  0.00    +0.040 A 
ATOM     32  C   UNL     1      10.226  13.755  23.142  0.00  0.00    +0.124 A 
ENDBRANCH  10  24
BRANCH  22  11
ATOM     11  N   UNL     1      13.795  12.373  17.242  0.00  0.00    -0.211 N 
ATOM     38  H   UNL     1      12.798  12.399  16.981  0.00  0.00    +0.174 HD
BRANCH  11   1
ATOM      1  S   UNL     1      14.864  12.692  15.969  0.00  0.00    +0.073 S 
ATOM      5  O   UNL     1      15.693  13.835  16.301  0.00  0.00    -0.150 OA
ATOM      6  O   UNL     1      15.472  11.454  15.520  0.00  0.00    -0.150 OA
BRANCH   1  25
ATOM     25  C   UNL     1      13.733  13.211  14.712  0.00  0.00    +0.109 A 
ATOM     28  C   UNL     1      13.326  12.300  13.753  0.00  0.00    +0.032 A 
ATOM     29  C   UNL     1      13.276  14.518  14.711  0.00  0.00    +0.032 A 
ATOM     33  C   UNL     1      12.433  12.709  12.761  0.00  0.00    +0.047 A 
ATOM     34  C   UNL     1      12.384  14.927  13.720  0.00  0.00    +0.047 A 
ATOM     35  C   UNL     1      11.963  14.022  12.745  0.00  0.00    +0.120 A 
BRANCH  35   7
ATOM      7  O   UNL     1      11.092  14.421  11.778  0.00  0.00    -0.495 OA
ATOM     36  C   UNL     1      10.237  13.423  11.224  0.00  0.00    +0.277 C 
ENDBRANCH  35   7
ENDBRANCH   1  25
ENDBRANCH  11   1
ENDBRANCH  22  11
TORSDOF 5
ENDMDL
MODEL 3
REMARK VINA RESULT:      -7.3      9.163     11.419
REMARK  Name = 11867238
REMARK  6 active torsions:
REMARK  status: ('A' for Active; 'I' for Inactive)
REMARK    1  A    between atoms: S_1  and  N_11
REMARK    2  A    between atoms: S_1  and  C_25
REMARK    3  A    between atoms: O_7  and  C_35
REMARK    4  A    between atoms: O_7  and  C_36
REMARK    5  A    between atoms: N_10  and  C_24
REMARK    6  A    between atoms: N_11  and  C_22
REMARK                            x       y       z     vdW  Elec       q    Type
REMARK                         _______ _______ _______ _____ _____    ______ ____
ROOT
ATOM      3  O   UNL     1      20.708   4.089  20.397  0.00  0.00    -0.266 OA
ATOM      4  O   UNL     1      22.290   2.292  25.073  0.00  0.00    -0.252 OA
ATOM      8  N   UNL     1      24.160   2.732  23.782  0.00  0.00    -0.284 N 
ATOM      9  N   UNL     1      22.945   3.913  21.076  0.00  0.00    -0.310 N 
ATOM     10  N   UNL     1      23.471   4.252  25.451  0.00  0.00    -0.269 N 
ATOM     12  C   UNL     1      24.096   1.673  21.518  0.00  0.00    +0.027 C 
ATOM     13  C   UNL     1      25.340   3.767  21.848  0.00  0.00    +0.054 C 
ATOM     14  C   UNL     1      25.376   2.412  21.145  0.00  0.00    +0.018 C 
ATOM     15  C   UNL     1      24.017   1.476  23.041  0.00  0.00    +0.114 C 
ATOM     16  C   UNL     1      22.894   2.450  20.972  0.00  0.00    +0.130 C 
ATOM     17  C   UNL     1      25.308   3.563  23.377  0.00  0.00    +0.119 C 
ATOM     18  C   UNL     1      24.131   4.577  21.415  0.00  0.00    +0.027 A 
ATOM     19  C   UNL     1      24.190   5.921  21.391  0.00  0.00    +0.024 A 
ATOM     20  C   UNL     1      21.774   4.615  20.719  0.00  0.00    +0.274 A 
ATOM     21  C   UNL     1      23.226   3.045  24.795  0.00  0.00    +0.306 C 
ATOM     22  C   UNL     1      21.894   6.094  20.736  0.00  0.00    +0.112 A 
ATOM     23  C   UNL     1      23.038   6.708  21.042  0.00  0.00    +0.031 A 
ATOM     37  H   UNL     1      24.427   4.586  25.503  0.00  0.00    +0.156 HD
ENDROOT
BRANCH  10  24
ATOM      2  F   UNL     1      19.780   7.449  28.067  0.00  0.00    -0.205 F 
ATOM     24  C   UNL     1      22.526   5.069  26.120  0.00  0.00    +0.035 A 
ATOM     26  C   UNL     1      21.963   6.157  25.460  0.00  0.00    +0.026 A 
ATOM     27  C   UNL     1      22.168   4.780  27.434  0.00  0.00    +0.026 A 
ATOM     30  C   UNL     1      21.033   6.962  26.119  0.00  0.00    +0.040 A 
ATOM     31  C   UNL     1      21.238   5.585  28.093  0.00  0.00    +0.040 A 
ATOM     32  C   UNL     1      20.672   6.676  27.435  0.00  0.00    +0.124 A 
ENDBRANCH  10  24
BRANCH  22  11
ATOM     11  N   UNL     1      20.789   6.898  20.406  0.00  0.00    -0.211 N 
ATOM     38  H   UNL     1      21.032   7.668  19.765  0.00  0.00    +0.174 HD
BRANCH  11   1
ATOM      1  S   UNL     1      19.751   7.336  21.669  0.00  0.00    +0.073 S 
ATOM      5  O   UNL     1      19.773   6.313  22.697  0.00  0.00    -0.150 OA
ATOM      6  O   UNL     1      19.967   8.727  22.018  0.00  0.00    -0.150 OA
BRANCH   1  25
ATOM     25  C   UNL     1      18.183   7.232  20.858  0.00  0.00    +0.109 A 
ATOM     28  C   UNL     1      17.971   6.232  19.926  0.00  0.00    +0.032 A 
ATOM     29  C   UNL     1      17.197   8.152  21.172  0.00  0.00    +0.032 A 
ATOM     33  C   UNL     1      16.733   6.149  19.286  0.00  0.00    +0.047 A 
ATOM     34  C   UNL     1      15.961   8.069  20.533  0.00  0.00    +0.047 A 
ATOM     35  C   UNL     1      15.729   7.068  19.590  0.00  0.00    +0.120 A 
BRANCH  35   7
ATOM      7  O   UNL     1      14.522   6.987  18.966  0.00  0.00    -0.495 OA
ATOM     36  C   UNL     1      13.362   6.972  19.797  0.00  0.00    +0.277 C 
ENDBRANCH  35   7
ENDBRANCH   1  25
ENDBRANCH  11   1
ENDBRANCH  22  11
TORSDOF 5
ENDMDL
MODEL 4
REMARK VINA RESULT:      -7.2     28.357     30.936
REMARK  Name = 11867238
REMARK  6 active torsions:
REMARK  status: ('A' for Active; 'I' for Inactive)
REMARK    1  A    between atoms: S_1  and  N_11
REMARK    2  A    between atoms: S_1  and  C_25
REMARK    3  A    between atoms: O_7  and  C_35
REMARK    4  A    between atoms: O_7  and  C_36
REMARK    5  A    between atoms: N_10  and  C_24
REMARK    6  A    between atoms: N_11  and  C_22
REMARK                            x       y       z     vdW  Elec       q    Type
REMARK                         _______ _______ _______ _____ _____    ______ ____
ROOT
ATOM      3  O   UNL     1      -8.458  -8.611  16.552  0.00  0.00    -0.266 OA
ATOM      4  O   UNL     1      -3.391  -9.997  16.495  0.00  0.00    -0.252 OA
ATOM      8  N   UNL     1      -4.636 -11.788  17.270  0.00  0.00    -0.284 N 
ATOM      9  N   UNL     1      -7.648 -10.743  17.092  0.00  0.00    -0.310 N 
ATOM     10  N   UNL     1      -3.863 -11.741  15.041  0.00  0.00    -0.269 N 
ATOM     12  C   UNL     1      -6.189 -11.204  19.141  0.00  0.00    +0.027 C 
ATOM     13  C   UNL     1      -6.760 -13.043  17.615  0.00  0.00    +0.054 C 
ATOM     14  C   UNL     1      -6.780 -12.607  19.077  0.00  0.00    +0.018 C 
ATOM     15  C   UNL     1      -4.746 -11.207  18.611  0.00  0.00    +0.114 C 
ATOM     16  C   UNL     1      -7.091 -10.246  18.356  0.00  0.00    +0.130 C 
ATOM     17  C   UNL     1      -5.305 -13.091  17.102  0.00  0.00    +0.119 C 
ATOM     18  C   UNL     1      -7.575 -12.099  16.749  0.00  0.00    +0.027 A 
ATOM     19  C   UNL     1      -8.193 -12.557  15.645  0.00  0.00    +0.024 A 
ATOM     20  C   UNL     1      -8.345  -9.809  16.296  0.00  0.00    +0.274 A 
ATOM     21  C   UNL     1      -3.924 -11.087  16.272  0.00  0.00    +0.306 C 
ATOM     22  C   UNL     1      -8.984 -10.370  15.079  0.00  0.00    +0.112 A 
ATOM     23  C   UNL     1      -8.921 -11.668  14.780  0.00  0.00    +0.031 A 
ATOM     37  H   UNL     1      -3.912 -12.754  15.032  0.00  0.00    +0.156 HD
ENDROOT
BRANCH  10  24
ATOM      2  F   UNL     1      -3.160  -9.434  10.053  0.00  0.00    -0.205 F 
ATOM     24  C   UNL     1      -3.683 -11.150  13.766  0.00  0.00    +0.035 A 
ATOM     26  C   UNL     1      -4.780 -10.635  13.082  0.00  0.00    +0.026 A 
ATOM     27  C   UNL     1      -2.410 -11.090  13.204  0.00  0.00    +0.026 A 
ATOM     30  C   UNL     1      -4.603 -10.054  11.826  0.00  0.00    +0.040 A 
ATOM     31  C   UNL     1      -2.233 -10.509  11.948  0.00  0.00    +0.040 A 
ATOM     32  C   UNL     1      -3.330  -9.991  11.259  0.00  0.00    +0.124 A 
ENDBRANCH  10  24
BRANCH  22  11
ATOM     11  N   UNL     1      -9.699  -9.532  14.206  0.00  0.00    -0.211 N 
ATOM     38  H   UNL     1      -9.298  -8.585  14.142  0.00  0.00    +0.174 HD
BRANCH  11   1
ATOM      1  S   UNL     1     -11.388  -9.575  14.307  0.00  0.00    +0.073 S 
ATOM      5  O   UNL     1     -11.925 -10.347  13.203  0.00  0.00    -0.150 OA
ATOM      6  O   UNL     1     -11.788  -9.873  15.669  0.00  0.00    -0.150 OA
BRANCH   1  25
ATOM     25  C   UNL     1     -11.780  -7.877  14.001  0.00  0.00    +0.109 A 
ATOM     28  C   UNL     1     -12.304  -7.518  12.772  0.00  0.00    +0.032 A 
ATOM     29  C   UNL     1     -11.558  -6.942  14.997  0.00  0.00    +0.032 A 
ATOM     33  C   UNL     1     -12.613  -6.179  12.530  0.00  0.00    +0.047 A 
ATOM     34  C   UNL     1     -11.868  -5.604  14.756  0.00  0.00    +0.047 A 
ATOM     35  C   UNL     1     -12.395  -5.223  13.522  0.00  0.00    +0.120 A 
BRANCH  35   7
ATOM      7  O   UNL     1     -12.699  -3.917  13.287  0.00  0.00    -0.495 OA
ATOM     36  C   UNL     1     -12.272  -3.366  12.042  0.00  0.00    +0.277 C 
ENDBRANCH  35   7
ENDBRANCH   1  25
ENDBRANCH  11   1
ENDBRANCH  22  11
TORSDOF 5
ENDMDL
MODEL 5
REMARK VINA RESULT:      -7.1      3.322      5.097
REMARK  Name = 11867238
REMARK  6 active torsions:
REMARK  status: ('A' for Active; 'I' for Inactive)
REMARK    1  A    between atoms: S_1  and  N_11
REMARK    2  A    between atoms: S_1  and  C_25
REMARK    3  A    between atoms: O_7  and  C_35
REMARK    4  A    between atoms: O_7  and  C_36
REMARK    5  A    between atoms: N_10  and  C_24
REMARK    6  A    between atoms: N_11  and  C_22
REMARK                            x       y       z     vdW  Elec       q    Type
REMARK                         _______ _______ _______ _____ _____    ______ ____
ROOT
ATOM      3  O   UNL     1      13.706  11.950  18.604  0.00  0.00    -0.266 OA
ATOM      4  O   UNL     1      14.946   9.259  22.942  0.00  0.00    -0.252 OA
ATOM      8  N   UNL     1      13.350   8.065  21.765  0.00  0.00    -0.284 N 
ATOM      9  N   UNL     1      12.867   9.830  19.149  0.00  0.00    -0.310 N 
ATOM     10  N   UNL     1      15.627   7.455  21.654  0.00  0.00    -0.269 N 
ATOM     12  C   UNL     1      11.333   9.409  21.151  0.00  0.00    +0.027 C 
ATOM     13  C   UNL     1      12.022   7.527  19.728  0.00  0.00    +0.054 C 
ATOM     14  C   UNL     1      10.811   8.235  20.330  0.00  0.00    +0.018 C 
ATOM     15  C   UNL     1      12.263   8.909  22.268  0.00  0.00    +0.114 C 
ATOM     16  C   UNL     1      12.034  10.399  20.215  0.00  0.00    +0.130 C 
ATOM     17  C   UNL     1      12.927   6.986  20.854  0.00  0.00    +0.119 C 
ATOM     18  C   UNL     1      12.819   8.465  18.839  0.00  0.00    +0.027 A 
ATOM     19  C   UNL     1      13.500   7.982  17.783  0.00  0.00    +0.024 A 
ATOM     20  C   UNL     1      13.635  10.740  18.391  0.00  0.00    +0.274 A 
ATOM     21  C   UNL     1      14.675   8.333  22.173  0.00  0.00    +0.306 C 
ATOM     22  C   UNL     1      14.383  10.143  17.256  0.00  0.00    +0.112 A 
ATOM     23  C   UNL     1      14.308   8.844  16.964  0.00  0.00    +0.031 A 
ATOM     37  H   UNL     1      15.335   6.513  21.418  0.00  0.00    +0.156 HD
ENDROOT
BRANCH  10  24
ATOM      2  F   UNL     1      21.021   8.447  20.870  0.00  0.00    -0.205 F 
ATOM     24  C   UNL     1      17.007   7.709  21.454  0.00  0.00    +0.035 A 
ATOM     26  C   UNL     1      17.479   9.018  21.471  0.00  0.00    +0.026 A 
ATOM     27  C   UNL     1      17.882   6.647  21.240  0.00  0.00    +0.026 A 
ATOM     30  C   UNL     1      18.837   9.268  21.274  0.00  0.00    +0.040 A 
ATOM     31  C   UNL     1      19.241   6.897  21.043  0.00  0.00    +0.040 A 
ATOM     32  C   UNL     1      19.718   8.207  21.060  0.00  0.00    +0.124 A 
ENDBRANCH  10  24
BRANCH  22  11
ATOM     11  N   UNL     1      15.188  10.952  16.436  0.00  0.00    -0.211 N 
ATOM     38  H   UNL     1      15.826  11.557  16.974  0.00  0.00    +0.174 HD
BRANCH  11   1
ATOM      1  S   UNL     1      14.434  11.714  15.126  0.00  0.00    +0.073 S 
ATOM      5  O   UNL     1      13.550  10.777  14.459  0.00  0.00    -0.150 OA
ATOM      6  O   UNL     1      13.945  13.016  15.534  0.00  0.00    -0.150 OA
BRANCH   1  25
ATOM     25  C   UNL     1      15.819  11.981  14.058  0.00  0.00    +0.109 A 
ATOM     28  C   UNL     1      17.080  12.117  14.611  0.00  0.00    +0.032 A 
ATOM     29  C   UNL     1      15.616  12.047  12.691  0.00  0.00    +0.032 A 
ATOM     33  C   UNL     1      18.173  12.328  13.769  0.00  0.00    +0.047 A 
ATOM     34  C   UNL     1      16.707  12.257  11.849  0.00  0.00    +0.047 A 
ATOM     35  C   UNL     1      17.986  12.397  12.389  0.00  0.00    +0.120 A 
BRANCH  35   7
ATOM      7  O   UNL     1      19.052  12.602  11.567  0.00  0.00    -0.495 OA
ATOM     36  C   UNL     1      19.614  11.453  10.936  0.00  0.00    +0.277 C 
ENDBRANCH  35   7
ENDBRANCH   1  25
ENDBRANCH  11   1
ENDBRANCH  22  11
TORSDOF 5
ENDMDL
MODEL 6
REMARK VINA RESULT:      -7.1     12.792     16.602
REMARK  Name = 11867238
REMARK  6 active torsions:
REMARK  status: ('A' for Active; 'I' for Inactive)
REMARK    1  A    between atoms: S_1  and  N_11
REMARK    2  A    between atoms: S_1  and  C_25
REMARK    3  A    between atoms: O_7  and  C_35
REMARK    4  A    between atoms: O_7  and  C_36
REMARK    5  A    between atoms: N_10  and  C_24
REMARK    6  A    between atoms: N_11  and  C_22
REMARK                            x       y       z     vdW  Elec       q    Type
REMARK                         _______ _______ _______ _____ _____    ______ ____
ROOT
ATOM      3  O   UNL     1      12.140  11.114   4.266  0.00  0.00    -0.266 OA
ATOM      4  O   UNL     1      14.754   7.723   1.222  0.00  0.00    -0.252 OA
ATOM      8  N   UNL     1      15.886   7.935   3.229  0.00  0.00    -0.284 N 
ATOM      9  N   UNL     1      14.051   9.926   4.921  0.00  0.00    -0.310 N 
ATOM     10  N   UNL     1      14.508   6.064   2.823  0.00  0.00    -0.269 N 
ATOM     12  C   UNL     1      16.355  10.304   3.879  0.00  0.00    +0.027 C 
ATOM     13  C   UNL     1      16.074   8.597   5.624  0.00  0.00    +0.054 C 
ATOM     14  C   UNL     1      16.891   9.822   5.221  0.00  0.00    +0.018 C 
ATOM     15  C   UNL     1      16.499   9.201   2.817  0.00  0.00    +0.114 C 
ATOM     16  C   UNL     1      14.900  10.751   4.054  0.00  0.00    +0.130 C 
ATOM     17  C   UNL     1      16.261   7.475   4.579  0.00  0.00    +0.119 C 
ATOM     18  C   UNL     1      14.600   8.938   5.749  0.00  0.00    +0.027 A 
ATOM     19  C   UNL     1      13.823   8.272   6.623  0.00  0.00    +0.024 A 
ATOM     20  C   UNL     1      12.677  10.247   4.955  0.00  0.00    +0.274 A 
ATOM     21  C   UNL     1      15.016   7.269   2.339  0.00  0.00    +0.306 C 
ATOM     22  C   UNL     1      11.868   9.462   5.921  0.00  0.00    +0.112 A 
ATOM     23  C   UNL     1      12.413   8.538   6.714  0.00  0.00    +0.031 A 
ATOM     37  H   UNL     1      15.061   5.545   3.497  0.00  0.00    +0.156 HD
ENDROOT
BRANCH  10  24
ATOM      2  F   UNL     1       9.788   3.576   1.330  0.00  0.00    -0.205 F 
ATOM     24  C   UNL     1      13.301   5.428   2.440  0.00  0.00    +0.035 A 
ATOM     26  C   UNL     1      12.086   5.897   2.931  0.00  0.00    +0.026 A 
ATOM     27  C   UNL     1      13.337   4.336   1.577  0.00  0.00    +0.026 A 
ATOM     30  C   UNL     1      10.898   5.271   2.555  0.00  0.00    +0.040 A 
ATOM     31  C   UNL     1      12.148   3.710   1.200  0.00  0.00    +0.040 A 
ATOM     32  C   UNL     1      10.929   4.177   1.690  0.00  0.00    +0.124 A 
ENDBRANCH  10  24
BRANCH  22  11
ATOM     11  N   UNL     1      10.486   9.689   6.036  0.00  0.00    -0.211 N 
ATOM     38  H   UNL     1      10.196   9.914   6.999  0.00  0.00    +0.174 HD
BRANCH  11   1
ATOM      1  S   UNL     1       9.459   8.615   5.225  0.00  0.00    +0.073 S 
ATOM      5  O   UNL     1       8.114   9.158   5.190  0.00  0.00    -0.150 OA
ATOM      6  O   UNL     1      10.094   8.159   4.004  0.00  0.00    -0.150 OA
BRANCH   1  25
ATOM     25  C   UNL     1       9.447   7.254   6.355  0.00  0.00    +0.109 A 
ATOM     28  C   UNL     1       9.833   6.003   5.907  0.00  0.00    +0.032 A 
ATOM     29  C   UNL     1       9.054   7.466   7.664  0.00  0.00    +0.032 A 
ATOM     33  C   UNL     1       9.823   4.929   6.798  0.00  0.00    +0.047 A 
ATOM     34  C   UNL     1       9.045   6.393   8.555  0.00  0.00    +0.047 A 
ATOM     35  C   UNL     1       9.430   5.125   8.121  0.00  0.00    +0.120 A 
BRANCH  35   7
ATOM      7  O   UNL     1       9.422   4.077   8.990  0.00  0.00    -0.495 OA
ATOM     36  C   UNL     1       9.049   4.355  10.338  0.00  0.00    +0.277 C 
ENDBRANCH  35   7
ENDBRANCH   1  25
ENDBRANCH  11   1
ENDBRANCH  22  11
TORSDOF 5
ENDMDL
MODEL 7
REMARK VINA RESULT:      -7.1     29.526     33.498
REMARK  Name = 11867238
REMARK  6 active torsions:
REMARK  status: ('A' for Active; 'I' for Inactive)
REMARK    1  A    between atoms: S_1  and  N_11
REMARK    2  A    between atoms: S_1  and  C_25
REMARK    3  A    between atoms: O_7  and  C_35
REMARK    4  A    between atoms: O_7  and  C_36
REMARK    5  A    between atoms: N_10  and  C_24
REMARK    6  A    between atoms: N_11  and  C_22
REMARK                            x       y       z     vdW  Elec       q    Type
REMARK                         _______ _______ _______ _____ _____    ______ ____
ROOT
ATOM      3  O   UNL     1     -11.400 -13.290  17.237  0.00  0.00    -0.266 OA
ATOM      4  O   UNL     1      -7.500 -10.374  15.268  0.00  0.00    -0.252 OA
ATOM      8  N   UNL     1      -9.136  -8.958  16.087  0.00  0.00    -0.284 N 
ATOM      9  N   UNL     1     -11.305 -10.949  17.322  0.00  0.00    -0.310 N 
ATOM     10  N   UNL     1      -7.176  -9.372  17.334  0.00  0.00    -0.269 N 
ATOM     12  C   UNL     1     -11.433  -9.471  15.240  0.00  0.00    +0.027 C 
ATOM     13  C   UNL     1     -11.154  -8.437  17.452  0.00  0.00    +0.054 C 
ATOM     14  C   UNL     1     -12.007  -8.423  16.185  0.00  0.00    +0.018 C 
ATOM     15  C   UNL     1      -9.971  -9.138  14.896  0.00  0.00    +0.114 C 
ATOM     16  C   UNL     1     -11.574 -10.855  15.882  0.00  0.00    +0.130 C 
ATOM     17  C   UNL     1      -9.699  -8.055  17.108  0.00  0.00    +0.119 C 
ATOM     18  C   UNL     1     -11.181  -9.802  18.116  0.00  0.00    +0.027 A 
ATOM     19  C   UNL     1     -11.051  -9.907  19.451  0.00  0.00    +0.024 A 
ATOM     20  C   UNL     1     -11.281 -12.246  17.878  0.00  0.00    +0.274 A 
ATOM     21  C   UNL     1      -7.899  -9.634  16.170  0.00  0.00    +0.306 C 
ATOM     22  C   UNL     1     -11.111 -12.298  19.352  0.00  0.00    +0.112 A 
ATOM     23  C   UNL     1     -11.014 -11.194  20.093  0.00  0.00    +0.031 A 
ATOM     37  H   UNL     1      -7.315  -8.480  17.796  0.00  0.00    +0.156 HD
ENDROOT
BRANCH  10  24
ATOM      2  F   UNL     1      -3.376 -12.624  19.716  0.00  0.00    -0.205 F 
ATOM     24  C   UNL     1      -6.205 -10.205  17.943  0.00  0.00    +0.035 A 
ATOM     26  C   UNL     1      -6.400 -10.658  19.244  0.00  0.00    +0.026 A 
ATOM     27  C   UNL     1      -5.059 -10.563  17.237  0.00  0.00    +0.026 A 
ATOM     30  C   UNL     1      -5.443 -11.477  19.844  0.00  0.00    +0.040 A 
ATOM     31  C   UNL     1      -4.102 -11.382  17.836  0.00  0.00    +0.040 A 
ATOM     32  C   UNL     1      -4.294 -11.839  19.140  0.00  0.00    +0.124 A 
ENDBRANCH  10  24
BRANCH  22  11
ATOM     11  N   UNL     1     -11.064 -13.537  20.016  0.00  0.00    -0.211 N 
ATOM     38  H   UNL     1     -11.679 -13.571  20.842  0.00  0.00    +0.174 HD
BRANCH  11   1
ATOM      1  S   UNL     1      -9.537 -14.229  20.247  0.00  0.00    +0.073 S 
ATOM      5  O   UNL     1      -9.414 -15.424  19.434  0.00  0.00    -0.150 OA
ATOM      6  O   UNL     1      -8.519 -13.198  20.189  0.00  0.00    -0.150 OA
BRANCH   1  25
ATOM     25  C   UNL     1      -9.664 -14.751  21.933  0.00  0.00    +0.109 A 
ATOM     28  C   UNL     1      -8.584 -15.381  22.526  0.00  0.00    +0.032 A 
ATOM     29  C   UNL     1     -10.839 -14.520  22.626  0.00  0.00    +0.032 A 
ATOM     33  C   UNL     1      -8.683 -15.793  23.856  0.00  0.00    +0.047 A 
ATOM     34  C   UNL     1     -10.938 -14.930  23.954  0.00  0.00    +0.047 A 
ATOM     35  C   UNL     1      -9.860 -15.567  24.569  0.00  0.00    +0.120 A 
BRANCH  35   7
ATOM      7  O   UNL     1      -9.957 -15.968  25.866  0.00  0.00    -0.495 OA
ATOM     36  C   UNL     1      -8.740 -16.285  26.540  0.00  0.00    +0.277 C 
ENDBRANCH  35   7
ENDBRANCH   1  25
ENDBRANCH  11   1
ENDBRANCH  22  11
TORSDOF 5
ENDMDL
MODEL 8
REMARK VINA RESULT:      -6.9      4.011      5.877
REMARK  Name = 11867238
REMARK  6 active torsions:
REMARK  status: ('A' for Active; 'I' for Inactive)
REMARK    1  A    between atoms: S_1  and  N_11
REMARK    2  A    between atoms: S_1  and  C_25
REMARK    3  A    between atoms: O_7  and  C_35
REMARK    4  A    between atoms: O_7  and  C_36
REMARK    5  A    between atoms: N_10  and  C_24
REMARK    6  A    between atoms: N_11  and  C_22
REMARK                            x       y       z     vdW  Elec       q    Type
REMARK                         _______ _______ _______ _____ _____    ______ ____
ROOT
ATOM      3  O   UNL     1      13.728  12.104  20.881  0.00  0.00    -0.266 OA
ATOM      4  O   UNL     1      14.353   6.999  21.955  0.00  0.00    -0.252 OA
ATOM      8  N   UNL     1      13.195   7.196  19.960  0.00  0.00    -0.284 N 
ATOM      9  N   UNL     1      13.059  10.349  19.478  0.00  0.00    -0.310 N 
ATOM     10  N   UNL     1      15.502   6.699  19.963  0.00  0.00    -0.269 N 
ATOM     12  C   UNL     1      11.203   8.701  20.093  0.00  0.00    +0.027 C 
ATOM     13  C   UNL     1      12.398   8.449  17.960  0.00  0.00    +0.054 C 
ATOM     14  C   UNL     1      11.011   8.566  18.587  0.00  0.00    +0.018 C 
ATOM     15  C   UNL     1      11.932   7.468  20.652  0.00  0.00    +0.114 C 
ATOM     16  C   UNL     1      11.958  10.002  20.385  0.00  0.00    +0.130 C 
ATOM     17  C   UNL     1      13.106   7.183  18.488  0.00  0.00    +0.119 C 
ATOM     18  C   UNL     1      13.243   9.673  18.266  0.00  0.00    +0.027 A 
ATOM     19  C   UNL     1      14.183  10.081  17.393  0.00  0.00    +0.024 A 
ATOM     20  C   UNL     1      13.851  11.459  19.840  0.00  0.00    +0.274 A 
ATOM     21  C   UNL     1      14.363   6.972  20.722  0.00  0.00    +0.306 C 
ATOM     22  C   UNL     1      14.887  11.846  18.848  0.00  0.00    +0.112 A 
ATOM     23  C   UNL     1      15.033  11.201  17.690  0.00  0.00    +0.031 A 
ATOM     37  H   UNL     1      15.382   6.267  19.054  0.00  0.00    +0.156 HD
ENDROOT
BRANCH  10  24
ATOM      2  F   UNL     1      20.778   7.527  21.437  0.00  0.00    -0.205 F 
ATOM     24  C   UNL     1      16.852   6.911  20.339  0.00  0.00    +0.035 A 
ATOM     26  C   UNL     1      17.827   5.992  19.964  0.00  0.00    +0.026 A 
ATOM     27  C   UNL     1      17.194   8.037  21.084  0.00  0.00    +0.026 A 
ATOM     30  C   UNL     1      19.156   6.201  20.335  0.00  0.00    +0.040 A 
ATOM     31  C   UNL     1      18.523   8.246  21.455  0.00  0.00    +0.040 A 
ATOM     32  C   UNL     1      19.503   7.328  21.080  0.00  0.00    +0.124 A 
ENDBRANCH  10  24
BRANCH  22  11
ATOM     11  N   UNL     1      15.742  12.932  19.105  0.00  0.00    -0.211 N 
ATOM     38  H   UNL     1      15.967  13.472  18.256  0.00  0.00    +0.174 HD
BRANCH  11   1
ATOM      1  S   UNL     1      17.059  12.650  20.130  0.00  0.00    +0.073 S 
ATOM      5  O   UNL     1      17.262  13.800  20.991  0.00  0.00    -0.150 OA
ATOM      6  O   UNL     1      16.959  11.320  20.698  0.00  0.00    -0.150 OA
BRANCH   1  25
ATOM     25  C   UNL     1      18.387  12.628  18.961  0.00  0.00    +0.109 A 
ATOM     28  C   UNL     1      18.147  13.034  17.660  0.00  0.00    +0.032 A 
ATOM     29  C   UNL     1      19.640  12.206  19.370  0.00  0.00    +0.032 A 
ATOM     33  C   UNL     1      19.195  13.017  16.739  0.00  0.00    +0.047 A 
ATOM     34  C   UNL     1      20.687  12.189  18.450  0.00  0.00    +0.047 A 
ATOM     35  C   UNL     1      20.464  12.594  17.134  0.00  0.00    +0.120 A 
BRANCH  35   7
ATOM      7  O   UNL     1      21.486  12.578  16.234  0.00  0.00    -0.495 OA
ATOM     36  C   UNL     1      21.537  11.477  15.329  0.00  0.00    +0.277 C 
ENDBRANCH  35   7
ENDBRANCH   1  25
ENDBRANCH  11   1
ENDBRANCH  22  11
TORSDOF 5
ENDMDL
MODEL 9
REMARK VINA RESULT:      -6.9     28.042     30.805
REMARK  Name = 11867238
REMARK  6 active torsions:
REMARK  status: ('A' for Active; 'I' for Inactive)
REMARK    1  A    between atoms: S_1  and  N_11
REMARK    2  A    between atoms: S_1  and  C_25
REMARK    3  A    between atoms: O_7  and  C_35
REMARK    4  A    between atoms: O_7  and  C_36
REMARK    5  A    between atoms: N_10  and  C_24
REMARK    6  A    between atoms: N_11  and  C_22
REMARK                            x       y       z     vdW  Elec       q    Type
REMARK                         _______ _______ _______ _____ _____    ______ ____
ROOT
ATOM      3  O   UNL     1      -7.198 -12.730  15.477  0.00  0.00    -0.266 OA
ATOM      4  O   UNL     1     -12.123 -11.596  16.910  0.00  0.00    -0.252 OA
ATOM      8  N   UNL     1     -10.905 -12.114  18.808  0.00  0.00    -0.284 N 
ATOM      9  N   UNL     1      -7.959 -12.636  17.692  0.00  0.00    -0.310 N 
ATOM     10  N   UNL     1     -11.357  -9.866  18.251  0.00  0.00    -0.269 N 
ATOM     12  C   UNL     1      -9.665 -14.280  18.653  0.00  0.00    +0.027 C 
ATOM     13  C   UNL     1      -8.786 -12.473  20.068  0.00  0.00    +0.054 C 
ATOM     14  C   UNL     1      -8.996 -13.983  19.989  0.00  0.00    +0.018 C 
ATOM     15  C   UNL     1     -11.017 -13.554  18.559  0.00  0.00    +0.114 C 
ATOM     16  C   UNL     1      -8.715 -13.882  17.519  0.00  0.00    +0.130 C 
ATOM     17  C   UNL     1     -10.150 -11.752  20.021  0.00  0.00    +0.119 C 
ATOM     18  C   UNL     1      -7.909 -11.982  18.930  0.00  0.00    +0.027 A 
ATOM     19  C   UNL     1      -7.117 -10.907  19.101  0.00  0.00    +0.024 A 
ATOM     20  C   UNL     1      -7.208 -12.191  16.583  0.00  0.00    +0.274 A 
ATOM     21  C   UNL     1     -11.506 -11.209  17.905  0.00  0.00    +0.306 C 
ATOM     22  C   UNL     1      -6.374 -10.987  16.827  0.00  0.00    +0.112 A 
ATOM     23  C   UNL     1      -6.325 -10.390  18.019  0.00  0.00    +0.031 A 
ATOM     37  H   UNL     1     -11.252  -9.631  19.231  0.00  0.00    +0.156 HD
ENDROOT
BRANCH  10  24
ATOM      2  F   UNL     1     -11.474  -5.499  14.843  0.00  0.00    -0.205 F 
ATOM     24  C   UNL     1     -11.387  -8.750  17.378  0.00  0.00    +0.035 A 
ATOM     26  C   UNL     1     -10.205  -8.088  17.062  0.00  0.00    +0.026 A 
ATOM     27  C   UNL     1     -12.599  -8.320  16.844  0.00  0.00    +0.026 A 
ATOM     30  C   UNL     1     -10.234  -6.988  16.204  0.00  0.00    +0.040 A 
ATOM     31  C   UNL     1     -12.629  -7.221  15.986  0.00  0.00    +0.040 A 
ATOM     32  C   UNL     1     -11.446  -6.555  15.666  0.00  0.00    +0.124 A 
ENDBRANCH  10  24
BRANCH  22  11
ATOM     11  N   UNL     1      -5.590 -10.448  15.793  0.00  0.00    -0.211 N 
ATOM     38  H   UNL     1      -6.116 -10.322  14.916  0.00  0.00    +0.174 HD
BRANCH  11   1
ATOM      1  S   UNL     1      -4.034 -11.084  15.595  0.00  0.00    +0.073 S 
ATOM      5  O   UNL     1      -3.096 -10.348  16.421  0.00  0.00    -0.150 OA
ATOM      6  O   UNL     1      -4.087 -12.532  15.662  0.00  0.00    -0.150 OA
BRANCH   1  25
ATOM     25  C   UNL     1      -3.710 -10.645  13.912  0.00  0.00    +0.109 A 
ATOM     28  C   UNL     1      -4.769 -10.304  13.089  0.00  0.00    +0.032 A 
ATOM     29  C   UNL     1      -2.405 -10.650  13.451  0.00  0.00    +0.032 A 
ATOM     33  C   UNL     1      -4.513  -9.958  11.761  0.00  0.00    +0.047 A 
ATOM     34  C   UNL     1      -2.150 -10.302  12.125  0.00  0.00    +0.047 A 
ATOM     35  C   UNL     1      -3.205  -9.957  11.281  0.00  0.00    +0.120 A 
BRANCH  35   7
ATOM      7  O   UNL     1      -2.956  -9.618   9.986  0.00  0.00    -0.495 OA
ATOM     36  C   UNL     1      -4.050  -9.106   9.227  0.00  0.00    +0.277 C 
ENDBRANCH  35   7
ENDBRANCH   1  25
ENDBRANCH  11   1
ENDBRANCH  22  11
TORSDOF 5
ENDMDL
MODEL 10
REMARK VINA RESULT:      -6.7     14.546     17.419
REMARK  Name = 11867238
REMARK  6 active torsions:
REMARK  status: ('A' for Active; 'I' for Inactive)
REMARK    1  A    between atoms: S_1  and  N_11
REMARK    2  A    between atoms: S_1  and  C_25
REMARK    3  A    between atoms: O_7  and  C_35
REMARK    4  A    between atoms: O_7  and  C_36
REMARK    5  A    between atoms: N_10  and  C_24
REMARK    6  A    between atoms: N_11  and  C_22
REMARK                            x       y       z     vdW  Elec       q    Type
REMARK                         _______ _______ _______ _____ _____    ______ ____
ROOT
ATOM      3  O   UNL     1       9.216   7.473   2.427  0.00  0.00    -0.266 OA
ATOM      4  O   UNL     1      12.222  10.039   5.888  0.00  0.00    -0.252 OA
ATOM      8  N   UNL     1      10.960   8.470   7.029  0.00  0.00    -0.284 N 
ATOM      9  N   UNL     1       9.336   6.984   4.716  0.00  0.00    -0.310 N 
ATOM     10  N   UNL     1      13.226   8.048   6.525  0.00  0.00    -0.269 N 
ATOM     12  C   UNL     1       8.512   8.587   6.531  0.00  0.00    +0.027 C 
ATOM     13  C   UNL     1       9.523   6.440   7.170  0.00  0.00    +0.054 C 
ATOM     14  C   UNL     1       8.293   7.324   7.355  0.00  0.00    +0.018 C 
ATOM     15  C   UNL     1       9.771   9.327   7.012  0.00  0.00    +0.114 C 
ATOM     16  C   UNL     1       8.595   8.207   5.048  0.00  0.00    +0.130 C 
ATOM     17  C   UNL     1      10.777   7.170   7.699  0.00  0.00    +0.119 C 
ATOM     18  C   UNL     1       9.722   6.076   5.710  0.00  0.00    +0.027 A 
ATOM     19  C   UNL     1      10.296   4.904   5.377  0.00  0.00    +0.024 A 
ATOM     20  C   UNL     1       9.546   6.723   3.345  0.00  0.00    +0.274 A 
ATOM     21  C   UNL     1      12.152   8.933   6.429  0.00  0.00    +0.306 C 
ATOM     22  C   UNL     1      10.205   5.428   3.043  0.00  0.00    +0.112 A 
ATOM     23  C   UNL     1      10.548   4.567   4.002  0.00  0.00    +0.031 A 
ATOM     37  H   UNL     1      13.253   7.407   7.309  0.00  0.00    +0.156 HD
ENDROOT
BRANCH  10  24
ATOM      2  F   UNL     1      17.604   7.728   3.144  0.00  0.00    -0.205 F 
ATOM     24  C   UNL     1      14.346   7.966   5.660  0.00  0.00    +0.035 A 
ATOM     26  C   UNL     1      15.561   8.523   6.048  0.00  0.00    +0.026 A 
ATOM     27  C   UNL     1      14.224   7.329   4.428  0.00  0.00    +0.026 A 
ATOM     30  C   UNL     1      16.663   8.442   5.196  0.00  0.00    +0.040 A 
ATOM     31  C   UNL     1      15.326   7.248   3.576  0.00  0.00    +0.040 A 
ATOM     32  C   UNL     1      16.545   7.805   3.961  0.00  0.00    +0.124 A 
ENDBRANCH  10  24
BRANCH  22  11
ATOM     11  N   UNL     1      10.473   5.064   1.711  0.00  0.00    -0.211 N 
ATOM     38  H   UNL     1       9.756   4.438   1.316  0.00  0.00    +0.174 HD
BRANCH  11   1
ATOM      1  S   UNL     1      12.067   4.634   1.337  0.00  0.00    +0.073 S 
ATOM      5  O   UNL     1      12.922   5.804   1.423  0.00  0.00    -0.150 OA
ATOM      6  O   UNL     1      12.422   3.416   2.039  0.00  0.00    -0.150 OA
BRANCH   1  25
ATOM     25  C   UNL     1      11.904   4.228  -0.377  0.00  0.00    +0.109 A 
ATOM     28  C   UNL     1      10.772   4.634  -1.062  0.00  0.00    +0.032 A 
ATOM     29  C   UNL     1      12.912   3.514  -1.001  0.00  0.00    +0.032 A 
ATOM     33  C   UNL     1      10.644   4.314  -2.414  0.00  0.00    +0.047 A 
ATOM     34  C   UNL     1      12.784   3.195  -2.353  0.00  0.00    +0.047 A 
ATOM     35  C   UNL     1      11.650   3.595  -3.058  0.00  0.00    +0.120 A 
BRANCH  35   7
ATOM      7  O   UNL     1      11.524   3.284  -4.378  0.00  0.00    -0.495 OA
ATOM     36  C   UNL     1      12.713   2.910  -5.072  0.00  0.00    +0.277 C 
ENDBRANCH  35   7
ENDBRANCH   1  25
ENDBRANCH  11   1
ENDBRANCH  22  11
TORSDOF 5
ENDMDL
