REMARK  Name = 40777161
REMARK  10 active torsions:
REMARK  status: ('A' for Active; 'I' for Inactive)
REMARK    1  A    between atoms: N_6  and  C_16
REMARK    2  A    between atoms: C_10  and  C_17
REMARK    3  A    between atoms: C_11  and  C_16
REMARK    4  A    between atoms: C_19  and  C_21
REMARK    5  A    between atoms: C_20  and  C_23
REMARK    6  A    between atoms: C_21  and  C_24
REMARK    7  A    between atoms: C_21  and  C_25
REMARK    8  A    between atoms: C_21  and  C_26
REMARK    9  A    between atoms: C_22  and  C_27
REMARK   10  A    between atoms: C_32  and  C_33
REMARK                            x       y       z     vdW  Elec       q    Type
REMARK                         _______ _______ _______ _____ _____    ______ ____
ROOT
ATOM      5  N   UNL     1      -2.601  -1.605   1.975  0.00  0.00    -0.297 NA
ATOM      9  C   UNL     1      -2.234  -2.532  -0.432  0.00  0.00    +0.002 C 
ATOM     10  C   UNL     1      -0.874  -2.167   0.224  0.00  0.00    +0.055 C 
ATOM     11  C   UNL     1      -3.495  -0.902   1.017  0.00  0.00    +0.074 C 
ATOM     12  C   UNL     1      -3.148  -1.288  -0.437  0.00  0.00    +0.024 C 
ATOM     13  C   UNL     1      -2.902  -3.581   0.483  0.00  0.00    +0.019 C 
ATOM     14  C   UNL     1      -1.185  -1.440   1.563  0.00  0.00    +0.094 C 
ATOM     15  C   UNL     1      -2.931  -3.050   1.926  0.00  0.00    +0.085 C 
ENDROOT
BRANCH  10  17
ATOM      7  N   UNL     1      -0.209  -1.110  -1.879  0.00  0.00    -0.237 NA
ATOM      8  N   UNL     1       1.947  -0.074  -2.171  0.00  0.00    -0.232 NA
ATOM     17  C   UNL     1       0.150  -1.417  -0.616  0.00  0.00    +0.050 A 
ATOM     18  C   UNL     1       1.373  -1.091  -0.066  0.00  0.00    +0.052 A 
ATOM     20  C   UNL     1       2.240  -0.413  -0.899  0.00  0.00    +0.075 A 
ATOM     22  C   UNL     1       0.723  -0.448  -2.591  0.00  0.00    +0.127 A 
ATOM     27  C   UNL     1       0.363  -0.093  -3.994  0.00  0.00    +0.088 C 
BRANCH  20  23
ATOM     23  C   UNL     1       3.552  -0.015  -0.445  0.00  0.00    +0.000 A 
ATOM     28  C   UNL     1       3.681   0.841   0.648  0.00  0.00    +0.010 A 
ATOM     29  C   UNL     1       4.689  -0.488  -1.099  0.00  0.00    +0.010 A 
ATOM     30  C   UNL     1       4.949   1.225   1.087  0.00  0.00    +0.013 A 
ATOM     31  C   UNL     1       5.957  -0.104  -0.660  0.00  0.00    +0.013 A 
ATOM     32  C   UNL     1       6.086   0.752   0.433  0.00  0.00    +0.055 A 
BRANCH  32  33
ATOM      1  F   UNL     1       8.227   0.115   1.289  0.00  0.00    -0.166 F 
ATOM      2  F   UNL     1       7.392   2.001   1.978  0.00  0.00    -0.166 F 
ATOM      3  F   UNL     1       8.170   1.825  -0.044  0.00  0.00    -0.166 F 
ATOM     33  C   UNL     1       7.441   1.163   0.902  0.00  0.00    +0.417 C 
ENDBRANCH  32  33
ENDBRANCH  20  23
ENDBRANCH  10  17
BRANCH  11  16
ATOM     16  C   UNL     1      -3.490   0.615   1.222  0.00  0.00    +0.123 C 
BRANCH  16   6
ATOM      4  O   UNL     1      -6.220   1.149   1.841  0.00  0.00    -0.275 OA
ATOM      6  N   UNL     1      -4.445   1.248   0.365  0.00  0.00    -0.313 N 
ATOM     19  C   UNL     1      -5.768   1.475   0.743  0.00  0.00    +0.218 C 
ATOM     34  H   UNL     1      -4.130   1.541  -0.554  0.00  0.00    +0.149 HD
BRANCH  19  21
ATOM     21  C   UNL     1      -6.632   2.175  -0.327  0.00  0.00    +0.039 C 
ATOM     24  C   UNL     1      -6.684   1.323  -1.604  0.00  0.00    +0.020 C 
ATOM     25  C   UNL     1      -8.066   2.346   0.207  0.00  0.00    +0.020 C 
ATOM     26  C   UNL     1      -6.057   3.565  -0.641  0.00  0.00    +0.020 C 
ENDBRANCH  19  21
ENDBRANCH  16   6
ENDBRANCH  11  16
TORSDOF 6
