MODEL 1
REMARK VINA RESULT:      -7.8      0.000      0.000
REMARK  Name = 26742909
REMARK  6 active torsions:
REMARK  status: ('A' for Active; 'I' for Inactive)
REMARK    1  A    between atoms: N_5  and  C_18
REMARK    2  A    between atoms: C_7  and  C_13
REMARK    3  A    between atoms: C_8  and  C_12
REMARK    4  A    between atoms: C_12  and  C_14
REMARK    5  A    between atoms: C_13  and  C_15
REMARK    6  A    between atoms: C_17  and  C_19
REMARK                            x       y       z     vdW  Elec       q    Type
REMARK                         _______ _______ _______ _____ _____    ______ ____
ROOT
ATOM      4  N   UNL     1      13.459   8.307  16.320  0.00  0.00    -0.316 NA
ATOM      7  C   UNL     1      13.947   9.468  18.989  0.00  0.00    +0.004 C 
ATOM      8  C   UNL     1      14.544   8.111  18.545  0.00  0.00    +0.012 C 
ATOM      9  C   UNL     1      13.651  10.318  17.741  0.00  0.00    +0.019 C 
ATOM     10  C   UNL     1      13.676   7.432  17.472  0.00  0.00    +0.085 C 
ATOM     11  C   UNL     1      12.821   9.564  16.705  0.00  0.00    +0.081 C 
ATOM     30  H   UNL     1      12.874   7.827  15.637  0.00  0.00    +0.122 HD
ENDROOT
BRANCH   8  12
ATOM     12  C   UNL     1      14.799   7.158  19.713  0.00  0.00    +0.064 C 
BRANCH  12  14
ATOM      3  O   UNL     1      17.915   5.497  19.008  0.00  0.00    -0.354 OA
ATOM      6  N   UNL     1      16.582   5.778  18.734  0.00  0.00    -0.083 NA
ATOM     14  C   UNL     1      16.204   6.630  19.691  0.00  0.00    +0.085 A 
ATOM     16  C   UNL     1      17.247   6.919  20.589  0.00  0.00    +0.076 A 
ATOM     17  C   UNL     1      18.299   6.182  20.115  0.00  0.00    +0.167 A 
BRANCH  17  19
ATOM      1  F   UNL     1      23.581   5.439  21.694  0.00  0.00    -0.205 F 
ATOM     19  C   UNL     1      19.661   5.990  20.523  0.00  0.00    +0.020 A 
ATOM     22  C   UNL     1      20.392   7.061  21.037  0.00  0.00    +0.014 A 
ATOM     23  C   UNL     1      20.254   4.733  20.404  0.00  0.00    +0.014 A 
ATOM     26  C   UNL     1      21.717   6.874  21.433  0.00  0.00    +0.039 A 
ATOM     27  C   UNL     1      21.578   4.547  20.800  0.00  0.00    +0.039 A 
ATOM     29  C   UNL     1      22.310   5.617  21.314  0.00  0.00    +0.123 A 
ENDBRANCH  17  19
ENDBRANCH  12  14
ENDBRANCH   8  12
BRANCH   7  13
ATOM     13  C   UNL     1      12.700   9.341  19.871  0.00  0.00    +0.100 C 
BRANCH  13  15
ATOM      2  O   UNL     1      13.856  10.354  21.725  0.00  0.00    -0.275 OA
ATOM      5  N   UNL     1      11.544  10.680  21.474  0.00  0.00    -0.285 N 
ATOM     15  C   UNL     1      12.797  10.179  21.133  0.00  0.00    +0.217 C 
ATOM     31  H   UNL     1      10.761  10.438  20.870  0.00  0.00    +0.155 HD
BRANCH   5  18
ATOM     18  C   UNL     1      11.215  11.502  22.578  0.00  0.00    +0.033 A 
ATOM     20  C   UNL     1      11.231  10.974  23.869  0.00  0.00    +0.023 A 
ATOM     21  C   UNL     1      10.876  12.840  22.376  0.00  0.00    +0.023 A 
ATOM     24  C   UNL     1      10.906  11.783  24.958  0.00  0.00    +0.002 A 
ATOM     25  C   UNL     1      10.552  13.649  23.466  0.00  0.00    +0.002 A 
ATOM     28  C   UNL     1      10.568  13.121  24.756  0.00  0.00    +0.000 A 
ENDBRANCH   5  18
ENDBRANCH  13  15
ENDBRANCH   7  13
TORSDOF 6
ENDMDL
MODEL 2
REMARK VINA RESULT:      -7.7      1.761      2.452
REMARK  Name = 26742909
REMARK  6 active torsions:
REMARK  status: ('A' for Active; 'I' for Inactive)
REMARK    1  A    between atoms: N_5  and  C_18
REMARK    2  A    between atoms: C_7  and  C_13
REMARK    3  A    between atoms: C_8  and  C_12
REMARK    4  A    between atoms: C_12  and  C_14
REMARK    5  A    between atoms: C_13  and  C_15
REMARK    6  A    between atoms: C_17  and  C_19
REMARK                            x       y       z     vdW  Elec       q    Type
REMARK                         _______ _______ _______ _____ _____    ______ ____
ROOT
ATOM      4  N   UNL     1      11.685   5.880  20.467  0.00  0.00    -0.316 NA
ATOM      7  C   UNL     1      11.833   8.803  20.835  0.00  0.00    +0.004 C 
ATOM      8  C   UNL     1      12.563   8.067  19.687  0.00  0.00    +0.012 C 
ATOM      9  C   UNL     1      10.632   7.957  21.292  0.00  0.00    +0.019 C 
ATOM     10  C   UNL     1      12.885   6.611  20.060  0.00  0.00    +0.085 C 
ATOM     11  C   UNL     1      11.022   6.513  21.605  0.00  0.00    +0.081 C 
ATOM     30  H   UNL     1      11.940   4.924  20.714  0.00  0.00    +0.122 HD
ENDROOT
BRANCH   8  12
ATOM     12  C   UNL     1      13.824   8.793  19.216  0.00  0.00    +0.064 C 
BRANCH  12  14
ATOM      3  O   UNL     1      16.434   6.324  18.982  0.00  0.00    -0.354 OA
ATOM      6  N   UNL     1      15.236   6.890  18.565  0.00  0.00    -0.083 NA
ATOM     14  C   UNL     1      15.043   7.932  19.377  0.00  0.00    +0.085 A 
ATOM     16  C   UNL     1      16.078   8.072  20.319  0.00  0.00    +0.076 A 
ATOM     17  C   UNL     1      16.926   7.037  20.027  0.00  0.00    +0.167 A 
BRANCH  17  19
ATOM      1  F   UNL     1      21.747   5.222  22.126  0.00  0.00    -0.205 F 
ATOM     19  C   UNL     1      18.168   6.569  20.569  0.00  0.00    +0.020 A 
ATOM     22  C   UNL     1      18.673   7.129  21.742  0.00  0.00    +0.014 A 
ATOM     23  C   UNL     1      18.873   5.554  19.922  0.00  0.00    +0.014 A 
ATOM     26  C   UNL     1      19.882   6.674  22.269  0.00  0.00    +0.039 A 
ATOM     27  C   UNL     1      20.082   5.099  20.447  0.00  0.00    +0.039 A 
ATOM     29  C   UNL     1      20.587   5.658  21.621  0.00  0.00    +0.123 A 
ENDBRANCH  17  19
ENDBRANCH  12  14
ENDBRANCH   8  12
BRANCH   7  13
ATOM     13  C   UNL     1      12.735   9.155  22.024  0.00  0.00    +0.100 C 
BRANCH  13  15
ATOM      2  O   UNL     1      13.500  11.438  22.056  0.00  0.00    -0.275 OA
ATOM      5  N   UNL     1      11.508  10.860  23.157  0.00  0.00    -0.285 N 
ATOM     15  C   UNL     1      12.651  10.623  22.399  0.00  0.00    +0.217 C 
ATOM     31  H   UNL     1      10.902  10.066  23.355  0.00  0.00    +0.155 HD
BRANCH   5  18
ATOM     18  C   UNL     1      11.072  12.093  23.698  0.00  0.00    +0.033 A 
ATOM     20  C   UNL     1      11.071  12.287  25.079  0.00  0.00    +0.023 A 
ATOM     21  C   UNL     1      10.645  13.115  22.850  0.00  0.00    +0.023 A 
ATOM     24  C   UNL     1      10.641  13.502  25.612  0.00  0.00    +0.002 A 
ATOM     25  C   UNL     1      10.215  14.330  23.384  0.00  0.00    +0.002 A 
ATOM     28  C   UNL     1      10.214  14.524  24.765  0.00  0.00    +0.000 A 
ENDBRANCH   5  18
ENDBRANCH  13  15
ENDBRANCH   7  13
TORSDOF 6
ENDMDL
MODEL 3
REMARK VINA RESULT:      -7.6      2.701      4.051
REMARK  Name = 26742909
REMARK  6 active torsions:
REMARK  status: ('A' for Active; 'I' for Inactive)
REMARK    1  A    between atoms: N_5  and  C_18
REMARK    2  A    between atoms: C_7  and  C_13
REMARK    3  A    between atoms: C_8  and  C_12
REMARK    4  A    between atoms: C_12  and  C_14
REMARK    5  A    between atoms: C_13  and  C_15
REMARK    6  A    between atoms: C_17  and  C_19
REMARK                            x       y       z     vdW  Elec       q    Type
REMARK                         _______ _______ _______ _____ _____    ______ ____
ROOT
ATOM      4  N   UNL     1      11.969   7.350  17.496  0.00  0.00    -0.316 NA
ATOM      7  C   UNL     1      14.155   8.869  18.768  0.00  0.00    +0.004 C 
ATOM      8  C   UNL     1      14.028   7.331  18.882  0.00  0.00    +0.012 C 
ATOM      9  C   UNL     1      13.433   9.339  17.494  0.00  0.00    +0.019 C 
ATOM     10  C   UNL     1      12.569   6.869  18.741  0.00  0.00    +0.085 C 
ATOM     11  C   UNL     1      12.003   8.808  17.404  0.00  0.00    +0.081 C 
ATOM     30  H   UNL     1      11.001   7.031  17.443  0.00  0.00    +0.122 HD
ENDROOT
BRANCH   8  12
ATOM     12  C   UNL     1      14.648   6.772  20.164  0.00  0.00    +0.064 C 
BRANCH  12  14
ATOM      3  O   UNL     1      17.846   5.633  18.964  0.00  0.00    -0.354 OA
ATOM      6  N   UNL     1      16.478   5.829  18.821  0.00  0.00    -0.083 NA
ATOM     14  C   UNL     1      16.090   6.408  19.961  0.00  0.00    +0.085 A 
ATOM     16  C   UNL     1      17.161   6.601  20.852  0.00  0.00    +0.076 A 
ATOM     17  C   UNL     1      18.241   6.096  20.177  0.00  0.00    +0.167 A 
BRANCH  17  19
ATOM      1  F   UNL     1      23.661   5.571  21.314  0.00  0.00    -0.205 F 
ATOM     19  C   UNL     1      19.638   5.961  20.469  0.00  0.00    +0.020 A 
ATOM     22  C   UNL     1      20.233   4.699  20.463  0.00  0.00    +0.014 A 
ATOM     23  C   UNL     1      20.402   7.091  20.761  0.00  0.00    +0.014 A 
ATOM     26  C   UNL     1      21.592   4.567  20.748  0.00  0.00    +0.039 A 
ATOM     27  C   UNL     1      21.762   6.959  21.047  0.00  0.00    +0.039 A 
ATOM     29  C   UNL     1      22.357   5.697  21.039  0.00  0.00    +0.123 A 
ENDBRANCH  17  19
ENDBRANCH  12  14
ENDBRANCH   8  12
BRANCH   7  13
ATOM     13  C   UNL     1      13.643   9.629  19.997  0.00  0.00    +0.100 C 
BRANCH  13  15
ATOM      2  O   UNL     1      14.572  10.888  21.828  0.00  0.00    -0.275 OA
ATOM      5  N   UNL     1      15.967  10.168  20.080  0.00  0.00    -0.285 N 
ATOM     15  C   UNL     1      14.762  10.310  20.763  0.00  0.00    +0.217 C 
ATOM     31  H   UNL     1      15.951   9.655  19.202  0.00  0.00    +0.155 HD
BRANCH   5  18
ATOM     18  C   UNL     1      17.238  10.659  20.463  0.00  0.00    +0.033 A 
ATOM     20  C   UNL     1      18.008   9.953  21.386  0.00  0.00    +0.023 A 
ATOM     21  C   UNL     1      17.721  11.848  19.916  0.00  0.00    +0.023 A 
ATOM     24  C   UNL     1      19.262  10.436  21.764  0.00  0.00    +0.002 A 
ATOM     25  C   UNL     1      18.974  12.331  20.294  0.00  0.00    +0.002 A 
ATOM     28  C   UNL     1      19.745  11.624  21.218  0.00  0.00    +0.000 A 
ENDBRANCH   5  18
ENDBRANCH  13  15
ENDBRANCH   7  13
TORSDOF 6
ENDMDL
MODEL 4
REMARK VINA RESULT:      -7.4     28.055     31.668
REMARK  Name = 26742909
REMARK  6 active torsions:
REMARK  status: ('A' for Active; 'I' for Inactive)
REMARK    1  A    between atoms: N_5  and  C_18
REMARK    2  A    between atoms: C_7  and  C_13
REMARK    3  A    between atoms: C_8  and  C_12
REMARK    4  A    between atoms: C_12  and  C_14
REMARK    5  A    between atoms: C_13  and  C_15
REMARK    6  A    between atoms: C_17  and  C_19
REMARK                            x       y       z     vdW  Elec       q    Type
REMARK                         _______ _______ _______ _____ _____    ______ ____
ROOT
ATOM      4  N   UNL     1     -19.305   4.091  25.448  0.00  0.00    -0.316 NA
ATOM      7  C   UNL     1     -16.517   4.061  26.417  0.00  0.00    +0.004 C 
ATOM      8  C   UNL     1     -16.880   4.105  24.913  0.00  0.00    +0.012 C 
ATOM      9  C   UNL     1     -17.686   4.640  27.232  0.00  0.00    +0.019 C 
ATOM     10  C   UNL     1     -18.254   3.470  24.642  0.00  0.00    +0.085 C 
ATOM     11  C   UNL     1     -19.022   3.989  26.878  0.00  0.00    +0.081 C 
ATOM     30  H   UNL     1     -20.196   3.638  25.247  0.00  0.00    +0.122 HD
ENDROOT
BRANCH   8  12
ATOM     12  C   UNL     1     -15.810   3.474  24.020  0.00  0.00    +0.064 C 
BRANCH  12  14
ATOM      3  O   UNL     1     -15.171   5.578  21.169  0.00  0.00    -0.354 OA
ATOM      6  N   UNL     1     -15.903   4.607  21.841  0.00  0.00    -0.083 NA
ATOM     14  C   UNL     1     -15.286   4.460  23.017  0.00  0.00    +0.085 A 
ATOM     16  C   UNL     1     -14.168   5.304  23.141  0.00  0.00    +0.076 A 
ATOM     17  C   UNL     1     -14.140   5.985  21.953  0.00  0.00    +0.167 A 
BRANCH  17  19
ATOM      1  F   UNL     1     -10.842   9.895  19.767  0.00  0.00    -0.205 F 
ATOM     19  C   UNL     1     -13.290   6.993  21.389  0.00  0.00    +0.020 A 
ATOM     22  C   UNL     1     -12.088   6.631  20.782  0.00  0.00    +0.014 A 
ATOM     23  C   UNL     1     -13.666   8.335  21.448  0.00  0.00    +0.014 A 
ATOM     26  C   UNL     1     -11.261   7.612  20.234  0.00  0.00    +0.039 A 
ATOM     27  C   UNL     1     -12.839   9.316  20.901  0.00  0.00    +0.039 A 
ATOM     29  C   UNL     1     -11.636   8.954  20.293  0.00  0.00    +0.123 A 
ENDBRANCH  17  19
ENDBRANCH  12  14
ENDBRANCH   8  12
BRANCH   7  13
ATOM     13  C   UNL     1     -16.136   2.666  26.926  0.00  0.00    +0.100 C 
BRANCH  13  15
ATOM      2  O   UNL     1     -16.813   1.938  29.119  0.00  0.00    -0.275 OA
ATOM      5  N   UNL     1     -14.994   3.405  28.887  0.00  0.00    -0.285 N 
ATOM     15  C   UNL     1     -16.044   2.608  28.440  0.00  0.00    +0.217 C 
ATOM     31  H   UNL     1     -14.447   3.900  28.186  0.00  0.00    +0.155 HD
BRANCH   5  18
ATOM     18  C   UNL     1     -14.582   3.617  30.225  0.00  0.00    +0.033 A 
ATOM     20  C   UNL     1     -15.305   4.479  31.048  0.00  0.00    +0.023 A 
ATOM     21  C   UNL     1     -13.453   2.963  30.720  0.00  0.00    +0.023 A 
ATOM     24  C   UNL     1     -14.900   4.688  32.367  0.00  0.00    +0.002 A 
ATOM     25  C   UNL     1     -13.048   3.174  32.038  0.00  0.00    +0.002 A 
ATOM     28  C   UNL     1     -13.771   4.035  32.862  0.00  0.00    +0.000 A 
ENDBRANCH   5  18
ENDBRANCH  13  15
ENDBRANCH   7  13
TORSDOF 6
ENDMDL
MODEL 5
REMARK VINA RESULT:      -7.1     14.975     18.033
REMARK  Name = 26742909
REMARK  6 active torsions:
REMARK  status: ('A' for Active; 'I' for Inactive)
REMARK    1  A    between atoms: N_5  and  C_18
REMARK    2  A    between atoms: C_7  and  C_13
REMARK    3  A    between atoms: C_8  and  C_12
REMARK    4  A    between atoms: C_12  and  C_14
REMARK    5  A    between atoms: C_13  and  C_15
REMARK    6  A    between atoms: C_17  and  C_19
REMARK                            x       y       z     vdW  Elec       q    Type
REMARK                         _______ _______ _______ _____ _____    ______ ____
ROOT
ATOM      4  N   UNL     1      12.882   3.125  -0.564  0.00  0.00    -0.316 NA
ATOM      7  C   UNL     1      12.787   4.822   1.847  0.00  0.00    +0.004 C 
ATOM      8  C   UNL     1      11.516   4.390   1.078  0.00  0.00    +0.012 C 
ATOM      9  C   UNL     1      13.908   3.804   1.578  0.00  0.00    +0.019 C 
ATOM     10  C   UNL     1      11.815   4.113  -0.404  0.00  0.00    +0.085 C 
ATOM     11  C   UNL     1      14.119   3.551   0.086  0.00  0.00    +0.081 C 
ATOM     30  H   UNL     1      13.058   2.976  -1.558  0.00  0.00    +0.122 HD
ENDROOT
BRANCH   8  12
ATOM     12  C   UNL     1      10.363   5.385   1.218  0.00  0.00    +0.064 C 
BRANCH  12  14
ATOM      3  O   UNL     1       9.685   6.986   4.370  0.00  0.00    -0.354 OA
ATOM      6  N   UNL     1       9.853   7.008   2.991  0.00  0.00    -0.083 NA
ATOM     14  C   UNL     1      10.120   5.743   2.655  0.00  0.00    +0.085 A 
ATOM     16  C   UNL     1      10.132   4.886   3.770  0.00  0.00    +0.076 A 
ATOM     17  C   UNL     1       9.853   5.717   4.823  0.00  0.00    +0.167 A 
BRANCH  17  19
ATOM      1  F   UNL     1       9.294   5.021  10.313  0.00  0.00    -0.205 F 
ATOM     19  C   UNL     1       9.708   5.538   6.238  0.00  0.00    +0.020 A 
ATOM     22  C   UNL     1       9.345   6.616   7.044  0.00  0.00    +0.014 A 
ATOM     23  C   UNL     1       9.931   4.284   6.808  0.00  0.00    +0.014 A 
ATOM     26  C   UNL     1       9.204   6.442   8.421  0.00  0.00    +0.039 A 
ATOM     27  C   UNL     1       9.791   4.110   8.185  0.00  0.00    +0.039 A 
ATOM     29  C   UNL     1       9.428   5.188   8.991  0.00  0.00    +0.123 A 
ENDBRANCH  17  19
ENDBRANCH  12  14
ENDBRANCH   8  12
BRANCH   7  13
ATOM     13  C   UNL     1      13.255   6.247   1.527  0.00  0.00    +0.100 C 
BRANCH  13  15
ATOM      2  O   UNL     1      15.010   6.967   3.010  0.00  0.00    -0.275 OA
ATOM      5  N   UNL     1      12.783   7.565   3.460  0.00  0.00    -0.285 N 
ATOM     15  C   UNL     1      13.813   6.960   2.744  0.00  0.00    +0.217 C 
ATOM     31  H   UNL     1      11.837   7.461   3.100  0.00  0.00    +0.155 HD
BRANCH   5  18
ATOM     18  C   UNL     1      12.890   8.323   4.651  0.00  0.00    +0.033 A 
ATOM     20  C   UNL     1      13.057   9.705   4.584  0.00  0.00    +0.023 A 
ATOM     21  C   UNL     1      12.826   7.687   5.891  0.00  0.00    +0.023 A 
ATOM     24  C   UNL     1      13.163  10.453   5.757  0.00  0.00    +0.002 A 
ATOM     25  C   UNL     1      12.932   8.435   7.064  0.00  0.00    +0.002 A 
ATOM     28  C   UNL     1      13.099   9.817   6.997  0.00  0.00    +0.000 A 
ENDBRANCH   5  18
ENDBRANCH  13  15
ENDBRANCH   7  13
TORSDOF 6
ENDMDL
MODEL 6
REMARK VINA RESULT:      -6.9     28.018     29.898
REMARK  Name = 26742909
REMARK  6 active torsions:
REMARK  status: ('A' for Active; 'I' for Inactive)
REMARK    1  A    between atoms: N_5  and  C_18
REMARK    2  A    between atoms: C_7  and  C_13
REMARK    3  A    between atoms: C_8  and  C_12
REMARK    4  A    between atoms: C_12  and  C_14
REMARK    5  A    between atoms: C_13  and  C_15
REMARK    6  A    between atoms: C_17  and  C_19
REMARK                            x       y       z     vdW  Elec       q    Type
REMARK                         _______ _______ _______ _____ _____    ______ ____
ROOT
ATOM      4  N   UNL     1      -7.548 -12.817  19.907  0.00  0.00    -0.316 NA
ATOM      7  C   UNL     1      -7.400 -11.118  17.498  0.00  0.00    +0.004 C 
ATOM      8  C   UNL     1      -6.144 -11.591  18.267  0.00  0.00    +0.012 C 
ATOM      9  C   UNL     1      -8.552 -12.103  17.766  0.00  0.00    +0.019 C 
ATOM     10  C   UNL     1      -6.452 -11.860  19.749  0.00  0.00    +0.085 C 
ATOM     11  C   UNL     1      -8.771 -12.352  19.257  0.00  0.00    +0.081 C 
ATOM     30  H   UNL     1      -7.728 -12.963  20.900  0.00  0.00    +0.122 HD
ENDROOT
BRANCH   8  12
ATOM     12  C   UNL     1      -4.961 -10.630  18.130  0.00  0.00    +0.064 C 
BRANCH  12  14
ATOM      3  O   UNL     1      -2.899 -11.009  15.203  0.00  0.00    -0.354 OA
ATOM      6  N   UNL     1      -3.115 -11.086  16.573  0.00  0.00    -0.083 NA
ATOM     14  C   UNL     1      -4.375 -10.678  16.749  0.00  0.00    +0.085 A 
ATOM     16  C   UNL     1      -4.997 -10.334  15.536  0.00  0.00    +0.076 A 
ATOM     17  C   UNL     1      -4.027 -10.560  14.596  0.00  0.00    +0.167 A 
BRANCH  17  19
ATOM      1  F   UNL     1      -3.748 -10.047   9.064  0.00  0.00    -0.205 F 
ATOM     19  C   UNL     1      -3.955 -10.429  13.170  0.00  0.00    +0.020 A 
ATOM     22  C   UNL     1      -2.735 -10.597  12.515  0.00  0.00    +0.014 A 
ATOM     23  C   UNL     1      -5.105 -10.132  12.438  0.00  0.00    +0.014 A 
ATOM     26  C   UNL     1      -2.665 -10.468  11.127  0.00  0.00    +0.039 A 
ATOM     27  C   UNL     1      -5.035 -10.003  11.051  0.00  0.00    +0.039 A 
ATOM     29  C   UNL     1      -3.815 -10.171  10.395  0.00  0.00    +0.123 A 
ENDBRANCH  17  19
ENDBRANCH  12  14
ENDBRANCH   8  12
BRANCH   7  13
ATOM     13  C   UNL     1      -7.826  -9.681  17.822  0.00  0.00    +0.100 C 
BRANCH  13  15
ATOM      2  O   UNL     1      -8.654  -9.275  15.597  0.00  0.00    -0.275 OA
ATOM      5  N   UNL     1      -9.842  -8.458  17.452  0.00  0.00    -0.285 N 
ATOM     15  C   UNL     1      -8.806  -9.126  16.805  0.00  0.00    +0.217 C 
ATOM     31  H   UNL     1      -9.818  -8.426  18.469  0.00  0.00    +0.155 HD
BRANCH   5  18
ATOM     18  C   UNL     1     -10.949  -7.805  16.860  0.00  0.00    +0.033 A 
ATOM     20  C   UNL     1     -12.203  -8.415  16.866  0.00  0.00    +0.023 A 
ATOM     21  C   UNL     1     -10.786  -6.550  16.271  0.00  0.00    +0.023 A 
ATOM     24  C   UNL     1     -13.295  -7.771  16.282  0.00  0.00    +0.002 A 
ATOM     25  C   UNL     1     -11.878  -5.908  15.687  0.00  0.00    +0.002 A 
ATOM     28  C   UNL     1     -13.132  -6.517  15.693  0.00  0.00    +0.000 A 
ENDBRANCH   5  18
ENDBRANCH  13  15
ENDBRANCH   7  13
TORSDOF 6
ENDMDL
MODEL 7
REMARK VINA RESULT:      -6.9      5.379      6.789
REMARK  Name = 26742909
REMARK  6 active torsions:
REMARK  status: ('A' for Active; 'I' for Inactive)
REMARK    1  A    between atoms: N_5  and  C_18
REMARK    2  A    between atoms: C_7  and  C_13
REMARK    3  A    between atoms: C_8  and  C_12
REMARK    4  A    between atoms: C_12  and  C_14
REMARK    5  A    between atoms: C_13  and  C_15
REMARK    6  A    between atoms: C_17  and  C_19
REMARK                            x       y       z     vdW  Elec       q    Type
REMARK                         _______ _______ _______ _____ _____    ______ ____
ROOT
ATOM      4  N   UNL     1      17.085  11.845  12.694  0.00  0.00    -0.316 NA
ATOM      7  C   UNL     1      16.181  11.741  15.500  0.00  0.00    +0.004 C 
ATOM      8  C   UNL     1      15.392  11.086  14.343  0.00  0.00    +0.012 C 
ATOM      9  C   UNL     1      17.661  11.858  15.096  0.00  0.00    +0.019 C 
ATOM     10  C   UNL     1      15.656  11.792  13.003  0.00  0.00    +0.085 C 
ATOM     11  C   UNL     1      17.842  12.533  13.737  0.00  0.00    +0.081 C 
ATOM     30  H   UNL     1      17.220  12.327  11.805  0.00  0.00    +0.122 HD
ENDROOT
BRANCH   8  12
ATOM     12  C   UNL     1      13.890  10.997  14.616  0.00  0.00    +0.064 C 
BRANCH  12  14
ATOM      3  O   UNL     1      13.494   7.950  16.493  0.00  0.00    -0.354 OA
ATOM      6  N   UNL     1      13.919   8.660  15.378  0.00  0.00    -0.083 NA
ATOM     14  C   UNL     1      13.579   9.928  15.624  0.00  0.00    +0.085 A 
ATOM     16  C   UNL     1      12.943  10.077  16.869  0.00  0.00    +0.076 A 
ATOM     17  C   UNL     1      12.914   8.804  17.374  0.00  0.00    +0.167 A 
BRANCH  17  19
ATOM      1  F   UNL     1      11.011   6.504  22.068  0.00  0.00    -0.205 F 
ATOM     19  C   UNL     1      12.423   8.211  18.584  0.00  0.00    +0.020 A 
ATOM     22  C   UNL     1      11.395   8.828  19.296  0.00  0.00    +0.014 A 
ATOM     23  C   UNL     1      12.974   7.017  19.048  0.00  0.00    +0.014 A 
ATOM     26  C   UNL     1      10.917   8.251  20.473  0.00  0.00    +0.039 A 
ATOM     27  C   UNL     1      12.497   6.440  20.226  0.00  0.00    +0.039 A 
ATOM     29  C   UNL     1      11.469   7.057  20.938  0.00  0.00    +0.123 A 
ENDBRANCH  17  19
ENDBRANCH  12  14
ENDBRANCH   8  12
BRANCH   7  13
ATOM     13  C   UNL     1      15.627  13.100  15.942  0.00  0.00    +0.100 C 
BRANCH  13  15
ATOM      2  O   UNL     1      16.121  13.060  18.299  0.00  0.00    -0.275 OA
ATOM      5  N   UNL     1      13.893  13.238  17.577  0.00  0.00    -0.285 N 
ATOM     15  C   UNL     1      15.272  13.128  17.417  0.00  0.00    +0.217 C 
ATOM     31  H   UNL     1      13.325  13.284  16.734  0.00  0.00    +0.155 HD
BRANCH   5  18
ATOM     18  C   UNL     1      13.168  13.296  18.791  0.00  0.00    +0.033 A 
ATOM     20  C   UNL     1      13.171  12.203  19.657  0.00  0.00    +0.023 A 
ATOM     21  C   UNL     1      12.451  14.446  19.121  0.00  0.00    +0.023 A 
ATOM     24  C   UNL     1      12.455  12.259  20.853  0.00  0.00    +0.002 A 
ATOM     25  C   UNL     1      11.735  14.502  20.318  0.00  0.00    +0.002 A 
ATOM     28  C   UNL     1      11.738  13.409  21.184  0.00  0.00    +0.000 A 
ENDBRANCH   5  18
ENDBRANCH  13  15
ENDBRANCH   7  13
TORSDOF 6
ENDMDL
MODEL 8
REMARK VINA RESULT:      -6.9      5.295      7.012
REMARK  Name = 26742909
REMARK  6 active torsions:
REMARK  status: ('A' for Active; 'I' for Inactive)
REMARK    1  A    between atoms: N_5  and  C_18
REMARK    2  A    between atoms: C_7  and  C_13
REMARK    3  A    between atoms: C_8  and  C_12
REMARK    4  A    between atoms: C_12  and  C_14
REMARK    5  A    between atoms: C_13  and  C_15
REMARK    6  A    between atoms: C_17  and  C_19
REMARK                            x       y       z     vdW  Elec       q    Type
REMARK                         _______ _______ _______ _____ _____    ______ ____
ROOT
ATOM      4  N   UNL     1      12.047   6.162  19.860  0.00  0.00    -0.316 NA
ATOM      7  C   UNL     1      11.865   8.946  20.820  0.00  0.00    +0.004 C 
ATOM      8  C   UNL     1      12.586   8.560  19.507  0.00  0.00    +0.012 C 
ATOM      9  C   UNL     1      10.817   7.870  21.153  0.00  0.00    +0.019 C 
ATOM     10  C   UNL     1      13.113   7.116  19.552  0.00  0.00    +0.085 C 
ATOM     11  C   UNL     1      11.405   6.460  21.139  0.00  0.00    +0.081 C 
ATOM     30  H   UNL     1      12.436   5.220  19.890  0.00  0.00    +0.122 HD
ENDROOT
BRANCH   8  12
ATOM     12  C   UNL     1      13.707   9.530  19.131  0.00  0.00    +0.064 C 
BRANCH  12  14
ATOM      3  O   UNL     1      12.846  10.026  15.670  0.00  0.00    -0.354 OA
ATOM      6  N   UNL     1      12.627   9.469  16.923  0.00  0.00    -0.083 NA
ATOM     14  C   UNL     1      13.621   9.931  17.687  0.00  0.00    +0.085 A 
ATOM     16  C   UNL     1      14.490  10.777  16.974  0.00  0.00    +0.076 A 
ATOM     17  C   UNL     1      13.958  10.803  15.713  0.00  0.00    +0.167 A 
BRANCH  17  19
ATOM      1  F   UNL     1      15.332  13.306  10.939  0.00  0.00    -0.205 F 
ATOM     19  C   UNL     1      14.312  11.449  14.483  0.00  0.00    +0.020 A 
ATOM     22  C   UNL     1      13.387  12.266  13.832  0.00  0.00    +0.014 A 
ATOM     23  C   UNL     1      15.581  11.259  13.936  0.00  0.00    +0.014 A 
ATOM     26  C   UNL     1      13.732  12.894  12.635  0.00  0.00    +0.039 A 
ATOM     27  C   UNL     1      15.926  11.887  12.738  0.00  0.00    +0.039 A 
ATOM     29  C   UNL     1      15.001  12.704  12.088  0.00  0.00    +0.123 A 
ENDBRANCH  17  19
ENDBRANCH  12  14
ENDBRANCH   8  12
BRANCH   7  13
ATOM     13  C   UNL     1      12.809   9.174  22.006  0.00  0.00    +0.100 C 
BRANCH  13  15
ATOM      2  O   UNL     1      13.690  11.170  23.025  0.00  0.00    -0.275 OA
ATOM      5  N   UNL     1      11.420  11.068  22.429  0.00  0.00    -0.285 N 
ATOM     15  C   UNL     1      12.720  10.586  22.553  0.00  0.00    +0.217 C 
ATOM     31  H   UNL     1      10.728  10.450  22.011  0.00  0.00    +0.155 HD
BRANCH   5  18
ATOM     18  C   UNL     1      10.930  12.337  22.820  0.00  0.00    +0.033 A 
ATOM     20  C   UNL     1      10.657  12.595  24.163  0.00  0.00    +0.023 A 
ATOM     21  C   UNL     1      10.720  13.330  21.863  0.00  0.00    +0.023 A 
ATOM     24  C   UNL     1      10.173  13.846  24.549  0.00  0.00    +0.002 A 
ATOM     25  C   UNL     1      10.236  14.580  22.249  0.00  0.00    +0.002 A 
ATOM     28  C   UNL     1       9.964  14.838  23.592  0.00  0.00    +0.000 A 
ENDBRANCH   5  18
ENDBRANCH  13  15
ENDBRANCH   7  13
TORSDOF 6
ENDMDL
MODEL 9
REMARK VINA RESULT:      -6.9     28.527     30.290
REMARK  Name = 26742909
REMARK  6 active torsions:
REMARK  status: ('A' for Active; 'I' for Inactive)
REMARK    1  A    between atoms: N_5  and  C_18
REMARK    2  A    between atoms: C_7  and  C_13
REMARK    3  A    between atoms: C_8  and  C_12
REMARK    4  A    between atoms: C_12  and  C_14
REMARK    5  A    between atoms: C_13  and  C_15
REMARK    6  A    between atoms: C_17  and  C_19
REMARK                            x       y       z     vdW  Elec       q    Type
REMARK                         _______ _______ _______ _____ _____    ______ ____
ROOT
ATOM      4  N   UNL     1     -12.594  -6.897  14.708  0.00  0.00    -0.316 NA
ATOM      7  C   UNL     1     -10.114  -7.939  15.921  0.00  0.00    +0.004 C 
ATOM      8  C   UNL     1     -10.747  -8.555  14.651  0.00  0.00    +0.012 C 
ATOM      9  C   UNL     1     -10.559  -6.471  16.042  0.00  0.00    +0.019 C 
ATOM     10  C   UNL     1     -12.265  -8.318  14.600  0.00  0.00    +0.085 C 
ATOM     11  C   UNL     1     -12.075  -6.312  15.942  0.00  0.00    +0.081 C 
ATOM     30  H   UNL     1     -13.607  -6.781  14.679  0.00  0.00    +0.122 HD
ENDROOT
BRANCH   8  12
ATOM     12  C   UNL     1     -10.429 -10.042  14.484  0.00  0.00    +0.064 C 
BRANCH  12  14
ATOM      3  O   UNL     1      -7.092 -11.184  13.760  0.00  0.00    -0.354 OA
ATOM      6  N   UNL     1      -8.315 -11.294  14.409  0.00  0.00    -0.083 NA
ATOM     14  C   UNL     1      -9.029 -10.248  13.982  0.00  0.00    +0.085 A 
ATOM     16  C   UNL     1      -8.314  -9.452  13.070  0.00  0.00    +0.076 A 
ATOM     17  C   UNL     1      -7.103 -10.084  12.965  0.00  0.00    +0.167 A 
BRANCH  17  19
ATOM      1  F   UNL     1      -2.433  -9.136  10.095  0.00  0.00    -0.205 F 
ATOM     19  C   UNL     1      -5.899  -9.839  12.226  0.00  0.00    +0.020 A 
ATOM     22  C   UNL     1      -5.904  -8.931  11.167  0.00  0.00    +0.014 A 
ATOM     23  C   UNL     1      -4.724 -10.509  12.566  0.00  0.00    +0.014 A 
ATOM     26  C   UNL     1      -4.732  -8.693  10.447  0.00  0.00    +0.039 A 
ATOM     27  C   UNL     1      -3.553 -10.272  11.846  0.00  0.00    +0.039 A 
ATOM     29  C   UNL     1      -3.557  -9.364  10.787  0.00  0.00    +0.123 A 
ENDBRANCH  17  19
ENDBRANCH  12  14
ENDBRANCH   8  12
BRANCH   7  13
ATOM     13  C   UNL     1     -10.424  -8.711  17.209  0.00  0.00    +0.100 C 
BRANCH  13  15
ATOM      2  O   UNL     1      -9.542 -10.754  18.130  0.00  0.00    -0.275 OA
ATOM      5  N   UNL     1      -8.080  -9.159  17.216  0.00  0.00    -0.285 N 
ATOM     15  C   UNL     1      -9.318  -9.680  17.583  0.00  0.00    +0.217 C 
ATOM     31  H   UNL     1      -8.068  -8.246  16.767  0.00  0.00    +0.155 HD
BRANCH   5  18
ATOM     18  C   UNL     1      -6.808  -9.754  17.392  0.00  0.00    +0.033 A 
ATOM     20  C   UNL     1      -5.850  -9.662  16.382  0.00  0.00    +0.023 A 
ATOM     21  C   UNL     1      -6.511 -10.431  18.575  0.00  0.00    +0.023 A 
ATOM     24  C   UNL     1      -4.596 -10.249  16.555  0.00  0.00    +0.002 A 
ATOM     25  C   UNL     1      -5.257 -11.018  18.747  0.00  0.00    +0.002 A 
ATOM     28  C   UNL     1      -4.299 -10.926  17.737  0.00  0.00    +0.000 A 
ENDBRANCH   5  18
ENDBRANCH  13  15
ENDBRANCH   7  13
TORSDOF 6
ENDMDL
MODEL 10
REMARK VINA RESULT:      -6.8     28.685     30.438
REMARK  Name = 26742909
REMARK  6 active torsions:
REMARK  status: ('A' for Active; 'I' for Inactive)
REMARK    1  A    between atoms: N_5  and  C_18
REMARK    2  A    between atoms: C_7  and  C_13
REMARK    3  A    between atoms: C_8  and  C_12
REMARK    4  A    between atoms: C_12  and  C_14
REMARK    5  A    between atoms: C_13  and  C_15
REMARK    6  A    between atoms: C_17  and  C_19
REMARK                            x       y       z     vdW  Elec       q    Type
REMARK                         _______ _______ _______ _____ _____    ______ ____
ROOT
ATOM      4  N   UNL     1      -9.416 -14.467  19.595  0.00  0.00    -0.316 NA
ATOM      7  C   UNL     1      -9.435 -11.668  18.663  0.00  0.00    +0.004 C 
ATOM      8  C   UNL     1      -8.148 -12.383  19.136  0.00  0.00    +0.012 C 
ATOM      9  C   UNL     1     -10.448 -12.722  18.184  0.00  0.00    +0.019 C 
ATOM     10  C   UNL     1      -8.457 -13.506  20.140  0.00  0.00    +0.085 C 
ATOM     11  C   UNL     1     -10.673 -13.825  19.216  0.00  0.00    +0.081 C 
ATOM     30  H   UNL     1      -9.602 -15.189  20.290  0.00  0.00    +0.122 HD
ENDROOT
BRANCH   8  12
ATOM     12  C   UNL     1      -7.104 -11.423  19.709  0.00  0.00    +0.064 C 
BRANCH  12  14
ATOM      3  O   UNL     1      -3.806 -11.550  18.272  0.00  0.00    -0.354 OA
ATOM      6  N   UNL     1      -4.698 -11.736  19.320  0.00  0.00    -0.083 NA
ATOM     14  C   UNL     1      -5.884 -11.357  18.837  0.00  0.00    +0.085 A 
ATOM     16  C   UNL     1      -5.802 -10.926  17.501  0.00  0.00    +0.076 A 
ATOM     17  C   UNL     1      -4.475 -11.068  17.194  0.00  0.00    +0.167 A 
BRANCH  17  19
ATOM      1  F   UNL     1      -1.390 -10.122  12.663  0.00  0.00    -0.205 F 
ATOM     19  C   UNL     1      -3.680 -10.825  16.026  0.00  0.00    +0.020 A 
ATOM     22  C   UNL     1      -2.306 -10.619  16.148  0.00  0.00    +0.014 A 
ATOM     23  C   UNL     1      -4.280 -10.794  14.767  0.00  0.00    +0.014 A 
ATOM     26  C   UNL     1      -1.532 -10.382  15.012  0.00  0.00    +0.039 A 
ATOM     27  C   UNL     1      -3.507 -10.556  13.631  0.00  0.00    +0.039 A 
ATOM     29  C   UNL     1      -2.133 -10.351  13.753  0.00  0.00    +0.123 A 
ENDBRANCH  17  19
ENDBRANCH  12  14
ENDBRANCH   8  12
BRANCH   7  13
ATOM     13  C   UNL     1     -10.062 -10.750  19.719  0.00  0.00    +0.100 C 
BRANCH  13  15
ATOM      2  O   UNL     1     -12.183  -9.611  19.650  0.00  0.00    -0.275 OA
ATOM      5  N   UNL     1     -10.603  -9.237  17.953  0.00  0.00    -0.285 N 
ATOM     15  C   UNL     1     -11.092  -9.806  19.126  0.00  0.00    +0.217 C 
ATOM     31  H   UNL     1      -9.669  -9.508  17.654  0.00  0.00    +0.155 HD
BRANCH   5  18
ATOM     18  C   UNL     1     -11.256  -8.310  17.107  0.00  0.00    +0.033 A 
ATOM     20  C   UNL     1     -12.423  -8.678  16.438  0.00  0.00    +0.023 A 
ATOM     21  C   UNL     1     -10.733  -7.027  16.942  0.00  0.00    +0.023 A 
ATOM     24  C   UNL     1     -13.067  -7.764  15.604  0.00  0.00    +0.002 A 
ATOM     25  C   UNL     1     -11.378  -6.114  16.107  0.00  0.00    +0.002 A 
ATOM     28  C   UNL     1     -12.545  -6.482  15.439  0.00  0.00    +0.000 A 
ENDBRANCH   5  18
ENDBRANCH  13  15
ENDBRANCH   7  13
TORSDOF 6
ENDMDL
