REMARK  Name = 51137035
REMARK  3 active torsions:
REMARK  status: ('A' for Active; 'I' for Inactive)
REMARK    1  A    between atoms: N_1  and  C_6
REMARK    2  A    between atoms: C_5  and  C_6
REMARK    3  A    between atoms: C_7  and  C_16
REMARK                            x       y       z     vdW  Elec       q    Type
REMARK                         _______ _______ _______ _____ _____    ______ ____
ROOT
ATOM      1  N   UNL     1      -1.710   1.061  -0.224  0.00  0.00    -0.301 NA
ATOM      7  C   UNL     1       0.467   0.990   0.645  0.00  0.00    +0.070 C 
ATOM      8  C   UNL     1      -0.636   0.104   0.051  0.00  0.00    +0.095 C 
ATOM      9  C   UNL     1      -1.039   2.222  -0.809  0.00  0.00    +0.085 C 
ATOM     12  C   UNL     1       0.182   2.395   0.085  0.00  0.00    +0.028 C 
ENDROOT
BRANCH   7  16
ATOM      2  N   UNL     1       2.707   0.134   1.387  0.00  0.00    -0.340 N 
ATOM      3  N   UNL     1       2.402   0.273  -0.815  0.00  0.00    -0.213 NA
ATOM      4  N   UNL     1       4.591  -0.549  -1.469  0.00  0.00    -0.234 NA
ATOM     16  C   UNL     1       1.857   0.467   0.366  0.00  0.00    +0.114 A 
ATOM     17  C   UNL     1       3.876  -0.303   0.826  0.00  0.00    +0.085 A 
ATOM     18  C   UNL     1       3.659  -0.206  -0.544  0.00  0.00    +0.178 A 
ATOM     19  C   UNL     1       5.078  -0.765   1.350  0.00  0.00    +0.031 A 
ATOM     20  C   UNL     1       6.045  -1.121   0.413  0.00  0.00    +0.022 A 
ATOM     21  C   UNL     1       5.755  -0.996  -0.942  0.00  0.00    +0.113 A 
ATOM     22  H   UNL     1       2.509   0.198   2.377  0.00  0.00    +0.167 HD
ENDBRANCH   7  16
BRANCH   1   6
ATOM      6  C   UNL     1      -2.732   0.510  -1.102  0.00  0.00    +0.088 C 
BRANCH   6   5
ATOM      5  C   UNL     1      -3.710  -0.363  -0.318  0.00  0.00    +0.003 C 
ATOM     10  C   UNL     1      -4.428   0.461   0.759  0.00  0.00    +0.005 C 
ATOM     11  C   UNL     1      -4.721  -1.026  -1.263  0.00  0.00    +0.005 C 
ATOM     13  C   UNL     1      -5.451  -0.378   1.522  0.00  0.00    +0.000 C 
ATOM     14  C   UNL     1      -5.744  -1.863  -0.497  0.00  0.00    +0.000 C 
ATOM     15  C   UNL     1      -6.449  -1.043   0.579  0.00  0.00    +0.000 C 
ENDBRANCH   6   5
ENDBRANCH   1   6
TORSDOF 3
