REMARK  Name = 40776861
REMARK  7 active torsions:
REMARK  status: ('A' for Active; 'I' for Inactive)
REMARK    1  A    between atoms: N_7  and  C_17
REMARK    2  A    between atoms: N_8  and  C_18
REMARK    3  A    between atoms: N_9  and  C_24
REMARK    4  A    between atoms: C_11  and  C_17
REMARK    5  A    between atoms: C_12  and  C_18
REMARK    6  A    between atoms: C_23  and  C_25
REMARK    7  A    between atoms: C_35  and  C_36
REMARK                            x       y       z     vdW  Elec       q    Type
REMARK                         _______ _______ _______ _____ _____    ______ ____
ROOT
ATOM      6  N   UNL     1      -0.860  -4.197  -0.012  0.00  0.00    -0.298 NA
ATOM     10  C   UNL     1       0.691  -2.392  -1.062  0.00  0.00    -0.003 C 
ATOM     11  C   UNL     1       1.366  -3.057   0.160  0.00  0.00    +0.020 C 
ATOM     12  C   UNL     1      -1.596  -2.911  -0.150  0.00  0.00    +0.074 C 
ATOM     13  C   UNL     1      -0.656  -1.783  -0.632  0.00  0.00    +0.024 C 
ATOM     14  C   UNL     1       0.349  -4.010   0.826  0.00  0.00    +0.089 C 
ATOM     15  C   UNL     1       0.383  -3.516  -2.069  0.00  0.00    +0.019 C 
ATOM     16  C   UNL     1      -0.424  -4.621  -1.365  0.00  0.00    +0.085 C 
ENDROOT
BRANCH  11  17
ATOM     17  C   UNL     1       1.931  -2.049   1.158  0.00  0.00    +0.089 C 
BRANCH  17   7
ATOM      7  N   UNL     1       2.873  -1.140   0.506  0.00  0.00    -0.299 NA
ATOM      9  N   UNL     1       5.229   0.460   0.291  0.00  0.00    -0.327 N 
ATOM     19  C   UNL     1       4.191  -1.772   0.372  0.00  0.00    +0.103 C 
ATOM     20  C   UNL     1       2.993   0.110   1.267  0.00  0.00    +0.103 C 
ATOM     21  C   UNL     1       5.171  -0.852  -0.360  0.00  0.00    +0.120 C 
ATOM     22  C   UNL     1       3.933   1.092   0.564  0.00  0.00    +0.120 C 
BRANCH   9  24
ATOM      1  F   UNL     1       9.597   3.744  -0.547  0.00  0.00    -0.205 F 
ATOM     24  C   UNL     1       6.335   1.291   0.080  0.00  0.00    +0.030 A 
ATOM     26  C   UNL     1       7.032   1.230  -1.127  0.00  0.00    +0.026 A 
ATOM     27  C   UNL     1       6.740   2.181   1.075  0.00  0.00    +0.026 A 
ATOM     30  C   UNL     1       8.133   2.059  -1.339  0.00  0.00    +0.040 A 
ATOM     31  C   UNL     1       7.842   3.010   0.863  0.00  0.00    +0.040 A 
ATOM     32  C   UNL     1       8.538   2.949  -0.344  0.00  0.00    +0.124 A 
ENDBRANCH   9  24
ENDBRANCH  17   7
ENDBRANCH  11  17
BRANCH  12  18
ATOM     18  C   UNL     1      -2.340  -2.523   1.130  0.00  0.00    +0.123 C 
BRANCH  18   8
ATOM      5  O   UNL     1      -5.076  -2.499   0.259  0.00  0.00    -0.270 OA
ATOM      8  N   UNL     1      -3.170  -1.351   0.909  0.00  0.00    -0.310 N 
ATOM     23  C   UNL     1      -4.482  -1.449   0.487  0.00  0.00    +0.244 C 
ATOM     37  H   UNL     1      -2.719  -0.449   1.014  0.00  0.00    +0.149 HD
BRANCH  23  25
ATOM     25  C   UNL     1      -5.187  -0.157   0.282  0.00  0.00    +0.037 A 
ATOM     28  C   UNL     1      -6.239  -0.074  -0.630  0.00  0.00    +0.013 A 
ATOM     29  C   UNL     1      -4.795   0.972   1.001  0.00  0.00    +0.013 A 
ATOM     33  C   UNL     1      -6.900   1.139  -0.823  0.00  0.00    +0.013 A 
ATOM     34  C   UNL     1      -5.456   2.185   0.808  0.00  0.00    +0.013 A 
ATOM     35  C   UNL     1      -6.509   2.269  -0.104  0.00  0.00    +0.055 A 
BRANCH  35  36
ATOM      2  F   UNL     1      -8.217   3.476  -1.233  0.00  0.00    -0.166 F 
ATOM      3  F   UNL     1      -7.803   4.055   0.821  0.00  0.00    -0.166 F 
ATOM      4  F   UNL     1      -6.400   4.569  -0.751  0.00  0.00    -0.166 F 
ATOM     36  C   UNL     1      -7.216   3.566  -0.310  0.00  0.00    +0.417 C 
ENDBRANCH  35  36
ENDBRANCH  23  25
ENDBRANCH  18   8
ENDBRANCH  12  18
TORSDOF 7
