MODEL 1
REMARK VINA RESULT:      -7.3      0.000      0.000
REMARK  Name = 71693271
REMARK  8 active torsions:
REMARK  status: ('A' for Active; 'I' for Inactive)
REMARK    1  A    between atoms: O_2  and  C_11
REMARK    2  A    between atoms: N_6  and  C_13
REMARK    3  A    between atoms: N_7  and  C_21
REMARK    4  A    between atoms: C_9  and  C_11
REMARK    5  A    between atoms: C_10  and  C_12
REMARK    6  A    between atoms: C_13  and  C_16
REMARK    7  A    between atoms: C_27  and  C_28
REMARK    8  A    between atoms: C_30  and  C_31
REMARK                            x       y       z     vdW  Elec       q    Type
REMARK                         _______ _______ _______ _____ _____    ______ ____
ROOT
ATOM      1  O   UNL     1      13.011   6.676  21.243  0.00  0.00    -0.361 OA
ATOM      3  O   UNL     1      11.577   9.546  22.436  0.00  0.00    -0.273 OA
ATOM      6  N   UNL     1      12.862   9.277  20.506  0.00  0.00    -0.287 N 
ATOM      9  C   UNL     1      13.236   8.369  19.416  0.00  0.00    +0.135 C 
ATOM     10  C   UNL     1      13.532   6.937  19.935  0.00  0.00    +0.171 C 
ATOM     14  C   UNL     1      12.059   8.836  21.555  0.00  0.00    +0.242 C 
ATOM     15  C   UNL     1      11.800   7.350  21.517  0.00  0.00    +0.256 C 
ENDROOT
BRANCH  10  12
ATOM     12  C   UNL     1      15.025   6.671  19.989  0.00  0.00    -0.017 A 
ATOM     17  C   UNL     1      15.723   6.367  18.820  0.00  0.00    +0.008 A 
ATOM     18  C   UNL     1      15.700   6.733  21.209  0.00  0.00    +0.008 A 
ATOM     19  C   UNL     1      17.095   6.125  18.871  0.00  0.00    +0.023 A 
ATOM     20  C   UNL     1      17.073   6.490  21.259  0.00  0.00    +0.023 A 
ATOM     21  C   UNL     1      17.770   6.186  20.090  0.00  0.00    +0.034 A 
BRANCH  21   7
ATOM      4  O   UNL     1      20.002   7.901  21.122  0.00  0.00    -0.268 OA
ATOM      7  N   UNL     1      19.143   5.944  20.140  0.00  0.00    -0.280 N 
ATOM     27  C   UNL     1      20.149   6.785  20.636  0.00  0.00    +0.270 C 
ATOM     33  H   UNL     1      19.442   5.044  19.773  0.00  0.00    +0.155 HD
BRANCH  27  28
ATOM      5  O   UNL     1      23.685   6.226  20.431  0.00  0.00    -0.359 OA
ATOM      8  N   UNL     1      22.572   7.057  20.453  0.00  0.00    -0.073 NA
ATOM     28  C   UNL     1      21.528   6.232  20.579  0.00  0.00    +0.168 A 
ATOM     29  C   UNL     1      21.918   4.884  20.641  0.00  0.00    +0.080 A 
ATOM     30  C   UNL     1      23.283   4.934  20.545  0.00  0.00    +0.135 A 
ATOM     31  C   UNL     1      24.341   3.915  20.540  0.00  0.00    +0.089 C 
ENDBRANCH  27  28
ENDBRANCH  21   7
ENDBRANCH  10  12
BRANCH   9  11
ATOM     11  C   UNL     1      12.151   8.351  18.330  0.00  0.00    +0.181 C 
BRANCH  11   2
ATOM      2  O   UNL     1      12.120   7.059  17.760  0.00  0.00    -0.393 OA
ATOM     32  H   UNL     1      11.888   7.163  16.822  0.00  0.00    +0.209 HD
ENDBRANCH  11   2
ENDBRANCH   9  11
BRANCH   6  13
ATOM     13  C   UNL     1      13.240  10.678  20.389  0.00  0.00    +0.143 C 
BRANCH  13  16
ATOM     16  C   UNL     1      14.729  10.864  20.447  0.00  0.00    -0.030 A 
ATOM     22  C   UNL     1      15.378  11.613  19.465  0.00  0.00    +0.005 A 
ATOM     23  C   UNL     1      15.463  10.288  21.483  0.00  0.00    +0.005 A 
ATOM     24  C   UNL     1      16.760  11.787  19.520  0.00  0.00    +0.000 A 
ATOM     25  C   UNL     1      16.846  10.460  21.538  0.00  0.00    +0.000 A 
ATOM     26  C   UNL     1      17.495  11.209  20.556  0.00  0.00    +0.000 A 
ENDBRANCH  13  16
ENDBRANCH   6  13
TORSDOF 7
ENDMDL
MODEL 2
REMARK VINA RESULT:      -6.8     15.542     17.723
REMARK  Name = 71693271
REMARK  8 active torsions:
REMARK  status: ('A' for Active; 'I' for Inactive)
REMARK    1  A    between atoms: O_2  and  C_11
REMARK    2  A    between atoms: N_6  and  C_13
REMARK    3  A    between atoms: N_7  and  C_21
REMARK    4  A    between atoms: C_9  and  C_11
REMARK    5  A    between atoms: C_10  and  C_12
REMARK    6  A    between atoms: C_13  and  C_16
REMARK    7  A    between atoms: C_27  and  C_28
REMARK    8  A    between atoms: C_30  and  C_31
REMARK                            x       y       z     vdW  Elec       q    Type
REMARK                         _______ _______ _______ _____ _____    ______ ____
ROOT
ATOM      1  O   UNL     1      10.061   4.256   6.150  0.00  0.00    -0.361 OA
ATOM      3  O   UNL     1      10.874   5.530   9.220  0.00  0.00    -0.273 OA
ATOM      6  N   UNL     1      10.547   6.693   7.222  0.00  0.00    -0.287 N 
ATOM      9  C   UNL     1       9.816   6.736   5.951  0.00  0.00    +0.135 C 
ATOM     10  C   UNL     1       9.766   5.344   5.267  0.00  0.00    +0.171 C 
ATOM     14  C   UNL     1      10.420   5.603   8.079  0.00  0.00    +0.242 C 
ATOM     15  C   UNL     1       9.628   4.467   7.477  0.00  0.00    +0.256 C 
ENDROOT
BRANCH  10  12
ATOM     12  C   UNL     1      10.751   5.264   4.116  0.00  0.00    -0.017 A 
ATOM     17  C   UNL     1      11.611   6.331   3.857  0.00  0.00    +0.008 A 
ATOM     18  C   UNL     1      10.797   4.120   3.316  0.00  0.00    +0.008 A 
ATOM     19  C   UNL     1      12.517   6.255   2.799  0.00  0.00    +0.023 A 
ATOM     20  C   UNL     1      11.703   4.046   2.258  0.00  0.00    +0.023 A 
ATOM     21  C   UNL     1      12.563   5.113   2.000  0.00  0.00    +0.034 A 
BRANCH  21   7
ATOM      4  O   UNL     1      14.861   3.241   1.549  0.00  0.00    -0.268 OA
ATOM      7  N   UNL     1      13.469   5.038   0.942  0.00  0.00    -0.280 N 
ATOM     27  C   UNL     1      14.531   4.138   0.779  0.00  0.00    +0.270 C 
ATOM     33  H   UNL     1      13.333   5.721   0.201  0.00  0.00    +0.155 HD
BRANCH  27  28
ATOM      5  O   UNL     1      15.680   4.575  -2.589  0.00  0.00    -0.359 OA
ATOM      8  N   UNL     1      14.672   4.474  -1.639  0.00  0.00    -0.073 NA
ATOM     28  C   UNL     1      15.310   4.290  -0.479  0.00  0.00    +0.168 A 
ATOM     29  C   UNL     1      16.705   4.268  -0.635  0.00  0.00    +0.080 A 
ATOM     30  C   UNL     1      16.886   4.452  -1.979  0.00  0.00    +0.135 A 
ATOM     31  C   UNL     1      18.070   4.536  -2.844  0.00  0.00    +0.089 C 
ENDBRANCH  27  28
ENDBRANCH  21   7
ENDBRANCH  10  12
BRANCH   9  11
ATOM     11  C   UNL     1       8.404   7.303   6.158  0.00  0.00    +0.181 C 
BRANCH  11   2
ATOM      2  O   UNL     1       7.501   6.517   5.408  0.00  0.00    -0.393 OA
ATOM     32  H   UNL     1       8.029   5.885   4.890  0.00  0.00    +0.209 HD
ENDBRANCH  11   2
ENDBRANCH   9  11
BRANCH   6  13
ATOM     13  C   UNL     1      11.298   7.875   7.619  0.00  0.00    +0.143 C 
BRANCH  13  16
ATOM     16  C   UNL     1      12.558   8.036   6.819  0.00  0.00    -0.030 A 
ATOM     22  C   UNL     1      13.571   7.081   6.911  0.00  0.00    +0.005 A 
ATOM     23  C   UNL     1      12.716   9.141   5.983  0.00  0.00    +0.005 A 
ATOM     24  C   UNL     1      14.741   7.230   6.167  0.00  0.00    +0.000 A 
ATOM     25  C   UNL     1      13.886   9.291   5.239  0.00  0.00    +0.000 A 
ATOM     26  C   UNL     1      14.899   8.336   5.331  0.00  0.00    +0.000 A 
ENDBRANCH  13  16
ENDBRANCH   6  13
TORSDOF 7
ENDMDL
MODEL 3
REMARK VINA RESULT:      -6.8     17.734     20.798
REMARK  Name = 71693271
REMARK  8 active torsions:
REMARK  status: ('A' for Active; 'I' for Inactive)
REMARK    1  A    between atoms: O_2  and  C_11
REMARK    2  A    between atoms: N_6  and  C_13
REMARK    3  A    between atoms: N_7  and  C_21
REMARK    4  A    between atoms: C_9  and  C_11
REMARK    5  A    between atoms: C_10  and  C_12
REMARK    6  A    between atoms: C_13  and  C_16
REMARK    7  A    between atoms: C_27  and  C_28
REMARK    8  A    between atoms: C_30  and  C_31
REMARK                            x       y       z     vdW  Elec       q    Type
REMARK                         _______ _______ _______ _____ _____    ______ ____
ROOT
ATOM      1  O   UNL     1      10.812   7.174  -1.601  0.00  0.00    -0.361 OA
ATOM      3  O   UNL     1      13.538   6.400  -3.519  0.00  0.00    -0.273 OA
ATOM      6  N   UNL     1      12.109   4.935  -2.396  0.00  0.00    -0.287 N 
ATOM      9  C   UNL     1      10.738   4.697  -1.934  0.00  0.00    +0.135 C 
ATOM     10  C   UNL     1      10.122   5.962  -1.278  0.00  0.00    +0.171 C 
ATOM     14  C   UNL     1      12.464   6.150  -2.976  0.00  0.00    +0.242 C 
ATOM     15  C   UNL     1      11.366   7.184  -2.900  0.00  0.00    +0.256 C 
ENDROOT
BRANCH  10  12
ATOM     12  C   UNL     1      10.112   5.844   0.235  0.00  0.00    -0.017 A 
ATOM     17  C   UNL     1       9.844   6.965   1.020  0.00  0.00    +0.008 A 
ATOM     18  C   UNL     1      10.371   4.614   0.840  0.00  0.00    +0.008 A 
ATOM     19  C   UNL     1       9.833   6.856   2.411  0.00  0.00    +0.023 A 
ATOM     20  C   UNL     1      10.361   4.505   2.231  0.00  0.00    +0.023 A 
ATOM     21  C   UNL     1      10.092   5.626   3.016  0.00  0.00    +0.034 A 
BRANCH  21   7
ATOM      4  O   UNL     1      12.051   6.627   5.052  0.00  0.00    -0.268 OA
ATOM      7  N   UNL     1      10.081   5.517   4.407  0.00  0.00    -0.280 N 
ATOM     27  C   UNL     1      11.027   6.006   5.317  0.00  0.00    +0.270 C 
ATOM     33  H   UNL     1       9.283   5.022   4.800  0.00  0.00    +0.155 HD
BRANCH  27  28
ATOM      5  O   UNL     1      11.001   5.764   8.895  0.00  0.00    -0.359 OA
ATOM      8  N   UNL     1      11.583   6.151   7.694  0.00  0.00    -0.073 NA
ATOM     28  C   UNL     1      10.723   5.754   6.751  0.00  0.00    +0.168 A 
ATOM     29  C   UNL     1       9.593   5.119   7.292  0.00  0.00    +0.080 A 
ATOM     30  C   UNL     1       9.816   5.152   8.642  0.00  0.00    +0.135 A 
ATOM     31  C   UNL     1       9.062   4.677   9.810  0.00  0.00    +0.089 C 
ENDBRANCH  27  28
ENDBRANCH  21   7
ENDBRANCH  10  12
BRANCH   9  11
ATOM     11  C   UNL     1       9.859   4.188  -3.086  0.00  0.00    +0.181 C 
BRANCH  11   2
ATOM      2  O   UNL     1       8.750   5.053  -3.209  0.00  0.00    -0.393 OA
ATOM     32  H   UNL     1       7.965   4.559  -2.918  0.00  0.00    +0.209 HD
ENDBRANCH  11   2
ENDBRANCH   9  11
BRANCH   6  13
ATOM     13  C   UNL     1      13.048   3.824  -2.352  0.00  0.00    +0.143 C 
BRANCH  13  16
ATOM     16  C   UNL     1      13.815   3.786  -1.062  0.00  0.00    -0.030 A 
ATOM     22  C   UNL     1      13.206   3.311   0.099  0.00  0.00    +0.005 A 
ATOM     23  C   UNL     1      15.138   4.227  -1.025  0.00  0.00    +0.005 A 
ATOM     24  C   UNL     1      13.918   3.276   1.297  0.00  0.00    +0.000 A 
ATOM     25  C   UNL     1      15.851   4.193   0.173  0.00  0.00    +0.000 A 
ATOM     26  C   UNL     1      15.241   3.718   1.334  0.00  0.00    +0.000 A 
ENDBRANCH  13  16
ENDBRANCH   6  13
TORSDOF 7
ENDMDL
MODEL 4
REMARK VINA RESULT:      -6.7     27.544     31.311
REMARK  Name = 71693271
REMARK  8 active torsions:
REMARK  status: ('A' for Active; 'I' for Inactive)
REMARK    1  A    between atoms: O_2  and  C_11
REMARK    2  A    between atoms: N_6  and  C_13
REMARK    3  A    between atoms: N_7  and  C_21
REMARK    4  A    between atoms: C_9  and  C_11
REMARK    5  A    between atoms: C_10  and  C_12
REMARK    6  A    between atoms: C_13  and  C_16
REMARK    7  A    between atoms: C_27  and  C_28
REMARK    8  A    between atoms: C_30  and  C_31
REMARK                            x       y       z     vdW  Elec       q    Type
REMARK                         _______ _______ _______ _____ _____    ______ ____
ROOT
ATOM      1  O   UNL     1     -10.387   8.871  18.786  0.00  0.00    -0.361 OA
ATOM      3  O   UNL     1     -11.144   9.680  15.548  0.00  0.00    -0.273 OA
ATOM      6  N   UNL     1     -12.343  10.211  17.479  0.00  0.00    -0.287 N 
ATOM      9  C   UNL     1     -12.259  10.525  18.909  0.00  0.00    +0.135 C 
ATOM     10  C   UNL     1     -11.287   9.570  19.653  0.00  0.00    +0.171 C 
ATOM     14  C   UNL     1     -11.209   9.828  16.767  0.00  0.00    +0.242 C 
ATOM     15  C   UNL     1     -10.002   9.613  17.648  0.00  0.00    +0.256 C 
ENDROOT
BRANCH  10  12
ATOM     12  C   UNL     1     -12.047   8.523  20.445  0.00  0.00    -0.017 A 
ATOM     17  C   UNL     1     -11.563   7.217  20.521  0.00  0.00    +0.008 A 
ATOM     18  C   UNL     1     -13.231   8.867  21.099  0.00  0.00    +0.008 A 
ATOM     19  C   UNL     1     -12.262   6.255  21.250  0.00  0.00    +0.023 A 
ATOM     20  C   UNL     1     -13.930   7.905  21.828  0.00  0.00    +0.023 A 
ATOM     21  C   UNL     1     -13.445   6.598  21.904  0.00  0.00    +0.034 A 
BRANCH  21   7
ATOM      4  O   UNL     1     -15.792   4.904  21.125  0.00  0.00    -0.268 OA
ATOM      7  N   UNL     1     -14.144   5.637  22.634  0.00  0.00    -0.280 N 
ATOM     27  C   UNL     1     -15.240   4.869  22.219  0.00  0.00    +0.270 C 
ATOM     33  H   UNL     1     -13.808   5.478  23.581  0.00  0.00    +0.155 HD
BRANCH  27  28
ATOM      5  O   UNL     1     -16.743   2.134  23.986  0.00  0.00    -0.359 OA
ATOM      8  N   UNL     1     -16.409   2.805  22.817  0.00  0.00    -0.073 NA
ATOM     28  C   UNL     1     -15.755   3.899  23.222  0.00  0.00    +0.168 A 
ATOM     29  C   UNL     1     -15.649   3.969  24.621  0.00  0.00    +0.080 A 
ATOM     30  C   UNL     1     -16.285   2.837  25.053  0.00  0.00    +0.135 A 
ATOM     31  C   UNL     1     -16.555   2.265  26.379  0.00  0.00    +0.089 C 
ENDBRANCH  27  28
ENDBRANCH  21   7
ENDBRANCH  10  12
BRANCH   9  11
ATOM     11  C   UNL     1     -11.861  11.993  19.119  0.00  0.00    +0.181 C 
BRANCH  11   2
ATOM      2  O   UNL     1     -12.276  12.380  20.412  0.00  0.00    -0.393 OA
ATOM     32  H   UNL     1     -12.579  11.578  20.871  0.00  0.00    +0.209 HD
ENDBRANCH  11   2
ENDBRANCH   9  11
BRANCH   6  13
ATOM     13  C   UNL     1     -13.611  10.441  16.802  0.00  0.00    +0.143 C 
BRANCH  13  16
ATOM     16  C   UNL     1     -14.743   9.713  17.467  0.00  0.00    -0.030 A 
ATOM     22  C   UNL     1     -15.854  10.420  17.926  0.00  0.00    +0.005 A 
ATOM     23  C   UNL     1     -14.683   8.329  17.626  0.00  0.00    +0.005 A 
ATOM     24  C   UNL     1     -16.906   9.744  18.544  0.00  0.00    +0.000 A 
ATOM     25  C   UNL     1     -15.735   7.652  18.244  0.00  0.00    +0.000 A 
ATOM     26  C   UNL     1     -16.845   8.359  18.703  0.00  0.00    +0.000 A 
ENDBRANCH  13  16
ENDBRANCH   6  13
TORSDOF 7
ENDMDL
MODEL 5
REMARK VINA RESULT:      -6.6     28.371     31.578
REMARK  Name = 71693271
REMARK  8 active torsions:
REMARK  status: ('A' for Active; 'I' for Inactive)
REMARK    1  A    between atoms: O_2  and  C_11
REMARK    2  A    between atoms: N_6  and  C_13
REMARK    3  A    between atoms: N_7  and  C_21
REMARK    4  A    between atoms: C_9  and  C_11
REMARK    5  A    between atoms: C_10  and  C_12
REMARK    6  A    between atoms: C_13  and  C_16
REMARK    7  A    between atoms: C_27  and  C_28
REMARK    8  A    between atoms: C_30  and  C_31
REMARK                            x       y       z     vdW  Elec       q    Type
REMARK                         _______ _______ _______ _____ _____    ______ ____
ROOT
ATOM      1  O   UNL     1     -14.530   8.249  19.152  0.00  0.00    -0.361 OA
ATOM      3  O   UNL     1     -13.970  11.620  19.338  0.00  0.00    -0.273 OA
ATOM      6  N   UNL     1     -12.665   9.896  20.218  0.00  0.00    -0.287 N 
ATOM      9  C   UNL     1     -12.210   8.513  20.046  0.00  0.00    +0.135 C 
ATOM     10  C   UNL     1     -13.375   7.567  19.654  0.00  0.00    +0.171 C 
ATOM     14  C   UNL     1     -13.625  10.440  19.368  0.00  0.00    +0.242 C 
ATOM     15  C   UNL     1     -14.227   9.423  18.428  0.00  0.00    +0.256 C 
ENDROOT
BRANCH  10  12
ATOM     12  C   UNL     1     -13.828   6.735  20.839  0.00  0.00    -0.017 A 
ATOM     17  C   UNL     1     -12.915   5.923  21.512  0.00  0.00    +0.008 A 
ATOM     18  C   UNL     1     -15.159   6.784  21.256  0.00  0.00    +0.008 A 
ATOM     19  C   UNL     1     -13.333   5.160  22.603  0.00  0.00    +0.023 A 
ATOM     20  C   UNL     1     -15.576   6.020  22.347  0.00  0.00    +0.023 A 
ATOM     21  C   UNL     1     -14.662   5.209  23.020  0.00  0.00    +0.034 A 
BRANCH  21   7
ATOM      4  O   UNL     1     -16.344   2.729  23.119  0.00  0.00    -0.268 OA
ATOM      7  N   UNL     1     -15.080   4.446  24.111  0.00  0.00    -0.280 N 
ATOM     27  C   UNL     1     -15.869   3.288  24.101  0.00  0.00    +0.270 C 
ATOM     33  H   UNL     1     -14.765   4.775  25.021  0.00  0.00    +0.155 HD
BRANCH  27  28
ATOM      5  O   UNL     1     -16.556   1.140  26.889  0.00  0.00    -0.359 OA
ATOM      8  N   UNL     1     -16.363   1.368  25.533  0.00  0.00    -0.073 NA
ATOM     28  C   UNL     1     -16.124   2.679  25.434  0.00  0.00    +0.168 A 
ATOM     29  C   UNL     1     -16.153   3.322  26.683  0.00  0.00    +0.080 A 
ATOM     30  C   UNL     1     -16.428   2.310  27.564  0.00  0.00    +0.135 A 
ATOM     31  C   UNL     1     -16.602   2.250  29.021  0.00  0.00    +0.089 C 
ENDBRANCH  27  28
ENDBRANCH  21   7
ENDBRANCH  10  12
BRANCH   9  11
ATOM     11  C   UNL     1     -11.070   8.442  19.020  0.00  0.00    +0.181 C 
BRANCH  11   2
ATOM      2  O   UNL     1     -11.324   7.355  18.155  0.00  0.00    -0.393 OA
ATOM     32  H   UNL     1     -12.042   7.624  17.557  0.00  0.00    +0.209 HD
ENDBRANCH  11   2
ENDBRANCH   9  11
BRANCH   6  13
ATOM     13  C   UNL     1     -11.991  10.720  21.211  0.00  0.00    +0.143 C 
BRANCH  13  16
ATOM     16  C   UNL     1     -12.596  10.562  22.576  0.00  0.00    -0.030 A 
ATOM     22  C   UNL     1     -12.000  11.175  23.679  0.00  0.00    +0.005 A 
ATOM     23  C   UNL     1     -13.754   9.803  22.741  0.00  0.00    +0.005 A 
ATOM     24  C   UNL     1     -12.563  11.028  24.947  0.00  0.00    +0.000 A 
ATOM     25  C   UNL     1     -14.317   9.656  24.009  0.00  0.00    +0.000 A 
ATOM     26  C   UNL     1     -13.721  10.268  25.111  0.00  0.00    +0.000 A 
ENDBRANCH  13  16
ENDBRANCH   6  13
TORSDOF 7
ENDMDL
MODEL 6
REMARK VINA RESULT:      -6.6     14.307     15.997
REMARK  Name = 71693271
REMARK  8 active torsions:
REMARK  status: ('A' for Active; 'I' for Inactive)
REMARK    1  A    between atoms: O_2  and  C_11
REMARK    2  A    between atoms: N_6  and  C_13
REMARK    3  A    between atoms: N_7  and  C_21
REMARK    4  A    between atoms: C_9  and  C_11
REMARK    5  A    between atoms: C_10  and  C_12
REMARK    6  A    between atoms: C_13  and  C_16
REMARK    7  A    between atoms: C_27  and  C_28
REMARK    8  A    between atoms: C_30  and  C_31
REMARK                            x       y       z     vdW  Elec       q    Type
REMARK                         _______ _______ _______ _____ _____    ______ ____
ROOT
ATOM      1  O   UNL     1      10.123   8.451   6.823  0.00  0.00    -0.361 OA
ATOM      3  O   UNL     1       7.868   6.941   4.738  0.00  0.00    -0.273 OA
ATOM      6  N   UNL     1       9.687   5.970   5.831  0.00  0.00    -0.287 N 
ATOM      9  C   UNL     1      10.534   5.993   7.028  0.00  0.00    +0.135 C 
ATOM     10  C   UNL     1      10.942   7.439   7.418  0.00  0.00    +0.171 C 
ATOM     14  C   UNL     1       8.716   6.947   5.628  0.00  0.00    +0.242 C 
ATOM     15  C   UNL     1       8.777   8.061   6.645  0.00  0.00    +0.256 C 
ENDROOT
BRANCH  10  12
ATOM     12  C   UNL     1      12.375   7.731   7.017  0.00  0.00    -0.017 A 
ATOM     17  C   UNL     1      12.740   9.018   6.620  0.00  0.00    +0.008 A 
ATOM     18  C   UNL     1      13.329   6.713   7.045  0.00  0.00    +0.008 A 
ATOM     19  C   UNL     1      14.059   9.286   6.252  0.00  0.00    +0.023 A 
ATOM     20  C   UNL     1      14.647   6.981   6.677  0.00  0.00    +0.023 A 
ATOM     21  C   UNL     1      15.012   8.268   6.281  0.00  0.00    +0.034 A 
BRANCH  21   7
ATOM      4  O   UNL     1      16.437   7.783   3.688  0.00  0.00    -0.268 OA
ATOM      7  N   UNL     1      16.331   8.537   5.913  0.00  0.00    -0.280 N 
ATOM     27  C   UNL     1      16.949   8.289   4.680  0.00  0.00    +0.270 C 
ATOM     33  H   UNL     1      16.906   8.968   6.633  0.00  0.00    +0.155 HD
BRANCH  27  28
ATOM      5  O   UNL     1      20.062  10.056   4.470  0.00  0.00    -0.359 OA
ATOM      8  N   UNL     1      18.677  10.016   4.567  0.00  0.00    -0.073 NA
ATOM     28  C   UNL     1      18.371   8.715   4.583  0.00  0.00    +0.168 A 
ATOM     29  C   UNL     1      19.510   7.897   4.499  0.00  0.00    +0.080 A 
ATOM     30  C   UNL     1      20.547   8.789   4.430  0.00  0.00    +0.135 A 
ATOM     31  C   UNL     1      22.005   8.648   4.327  0.00  0.00    +0.089 C 
ENDBRANCH  27  28
ENDBRANCH  21   7
ENDBRANCH  10  12
BRANCH   9  11
ATOM     11  C   UNL     1       9.840   5.279   8.197  0.00  0.00    +0.181 C 
BRANCH  11   2
ATOM      2  O   UNL     1      10.441   4.011   8.357  0.00  0.00    -0.393 OA
ATOM     32  H   UNL     1      11.235   3.995   7.797  0.00  0.00    +0.209 HD
ENDBRANCH  11   2
ENDBRANCH   9  11
BRANCH   6  13
ATOM     13  C   UNL     1       9.800   4.827   4.936  0.00  0.00    +0.143 C 
BRANCH  13  16
ATOM     16  C   UNL     1      10.857   5.035   3.890  0.00  0.00    -0.030 A 
ATOM     22  C   UNL     1      11.138   4.025   2.971  0.00  0.00    +0.005 A 
ATOM     23  C   UNL     1      11.558   6.240   3.839  0.00  0.00    +0.005 A 
ATOM     24  C   UNL     1      12.120   4.218   1.999  0.00  0.00    +0.000 A 
ATOM     25  C   UNL     1      12.541   6.433   2.868  0.00  0.00    +0.000 A 
ATOM     26  C   UNL     1      12.822   5.423   1.948  0.00  0.00    +0.000 A 
ENDBRANCH  13  16
ENDBRANCH   6  13
TORSDOF 7
ENDMDL
MODEL 7
REMARK VINA RESULT:      -6.6     27.562     31.169
REMARK  Name = 71693271
REMARK  8 active torsions:
REMARK  status: ('A' for Active; 'I' for Inactive)
REMARK    1  A    between atoms: O_2  and  C_11
REMARK    2  A    between atoms: N_6  and  C_13
REMARK    3  A    between atoms: N_7  and  C_21
REMARK    4  A    between atoms: C_9  and  C_11
REMARK    5  A    between atoms: C_10  and  C_12
REMARK    6  A    between atoms: C_13  and  C_16
REMARK    7  A    between atoms: C_27  and  C_28
REMARK    8  A    between atoms: C_30  and  C_31
REMARK                            x       y       z     vdW  Elec       q    Type
REMARK                         _______ _______ _______ _____ _____    ______ ____
ROOT
ATOM      1  O   UNL     1     -13.143   8.923  17.945  0.00  0.00    -0.361 OA
ATOM      3  O   UNL     1     -13.760  12.278  18.222  0.00  0.00    -0.273 OA
ATOM      6  N   UNL     1     -12.501  10.927  19.648  0.00  0.00    -0.287 N 
ATOM      9  C   UNL     1     -11.621   9.757  19.746  0.00  0.00    +0.135 C 
ATOM     10  C   UNL     1     -12.165   8.557  18.924  0.00  0.00    +0.171 C 
ATOM     14  C   UNL     1     -13.123  11.251  18.446  0.00  0.00    +0.242 C 
ATOM     15  C   UNL     1     -12.931  10.200  17.379  0.00  0.00    +0.256 C 
ENDROOT
BRANCH  10  12
ATOM     12  C   UNL     1     -12.804   7.519  19.827  0.00  0.00    -0.017 A 
ATOM     17  C   UNL     1     -14.186   7.333  19.807  0.00  0.00    +0.008 A 
ATOM     18  C   UNL     1     -12.008   6.751  20.678  0.00  0.00    +0.008 A 
ATOM     19  C   UNL     1     -14.773   6.377  20.636  0.00  0.00    +0.023 A 
ATOM     20  C   UNL     1     -12.596   5.795  21.508  0.00  0.00    +0.023 A 
ATOM     21  C   UNL     1     -13.979   5.608  21.486  0.00  0.00    +0.034 A 
BRANCH  21   7
ATOM      4  O   UNL     1     -15.803   5.946  23.841  0.00  0.00    -0.268 OA
ATOM      7  N   UNL     1     -14.566   4.653  22.316  0.00  0.00    -0.280 N 
ATOM     27  C   UNL     1     -15.416   4.866  23.409  0.00  0.00    +0.270 C 
ATOM     33  H   UNL     1     -14.346   3.685  22.090  0.00  0.00    +0.155 HD
BRANCH  27  28
ATOM      5  O   UNL     1     -16.741   1.651  24.286  0.00  0.00    -0.359 OA
ATOM      8  N   UNL     1     -16.374   2.616  23.356  0.00  0.00    -0.073 NA
ATOM     28  C   UNL     1     -15.907   3.635  24.085  0.00  0.00    +0.168 A 
ATOM     29  C   UNL     1     -15.953   3.371  25.463  0.00  0.00    +0.080 A 
ATOM     30  C   UNL     1     -16.485   2.112  25.536  0.00  0.00    +0.135 A 
ATOM     31  C   UNL     1     -16.816   1.210  26.648  0.00  0.00    +0.089 C 
ENDBRANCH  27  28
ENDBRANCH  21   7
ENDBRANCH  10  12
BRANCH   9  11
ATOM     11  C   UNL     1     -10.191  10.117  19.320  0.00  0.00    +0.181 C 
BRANCH  11   2
ATOM      2  O   UNL     1      -9.843   9.306  18.218  0.00  0.00    -0.393 OA
ATOM     32  H   UNL     1      -8.872   9.253  18.194  0.00  0.00    +0.209 HD
ENDBRANCH  11   2
ENDBRANCH   9  11
BRANCH   6  13
ATOM     13  C   UNL     1     -12.595  11.809  20.802  0.00  0.00    +0.143 C 
BRANCH  13  16
ATOM     16  C   UNL     1     -13.112  11.093  22.016  0.00  0.00    -0.030 A 
ATOM     22  C   UNL     1     -14.232  10.267  21.916  0.00  0.00    +0.005 A 
ATOM     23  C   UNL     1     -12.473  11.253  23.245  0.00  0.00    +0.005 A 
ATOM     24  C   UNL     1     -14.712   9.601  23.044  0.00  0.00    +0.000 A 
ATOM     25  C   UNL     1     -12.952  10.588  24.373  0.00  0.00    +0.000 A 
ATOM     26  C   UNL     1     -14.072   9.763  24.273  0.00  0.00    +0.000 A 
ENDBRANCH  13  16
ENDBRANCH   6  13
TORSDOF 7
ENDMDL
MODEL 8
REMARK VINA RESULT:      -6.5      2.229      4.382
REMARK  Name = 71693271
REMARK  8 active torsions:
REMARK  status: ('A' for Active; 'I' for Inactive)
REMARK    1  A    between atoms: O_2  and  C_11
REMARK    2  A    between atoms: N_6  and  C_13
REMARK    3  A    between atoms: N_7  and  C_21
REMARK    4  A    between atoms: C_9  and  C_11
REMARK    5  A    between atoms: C_10  and  C_12
REMARK    6  A    between atoms: C_13  and  C_16
REMARK    7  A    between atoms: C_27  and  C_28
REMARK    8  A    between atoms: C_30  and  C_31
REMARK                            x       y       z     vdW  Elec       q    Type
REMARK                         _______ _______ _______ _____ _____    ______ ____
ROOT
ATOM      1  O   UNL     1      17.304  10.384  20.426  0.00  0.00    -0.361 OA
ATOM      3  O   UNL     1      14.697  10.572  18.218  0.00  0.00    -0.273 OA
ATOM      6  N   UNL     1      15.055   8.979  19.886  0.00  0.00    -0.287 N 
ATOM      9  C   UNL     1      15.610   8.725  21.220  0.00  0.00    +0.135 C 
ATOM     10  C   UNL     1      17.012   9.369  21.393  0.00  0.00    +0.171 C 
ATOM     14  C   UNL     1      15.234  10.211  19.263  0.00  0.00    +0.242 C 
ATOM     15  C   UNL     1      16.173  11.123  20.017  0.00  0.00    +0.256 C 
ENDROOT
BRANCH  10  12
ATOM     12  C   UNL     1      18.109   8.327  21.292  0.00  0.00    -0.017 A 
ATOM     17  C   UNL     1      17.823   7.058  20.789  0.00  0.00    +0.008 A 
ATOM     18  C   UNL     1      19.406   8.639  21.702  0.00  0.00    +0.008 A 
ATOM     19  C   UNL     1      18.834   6.101  20.695  0.00  0.00    +0.023 A 
ATOM     20  C   UNL     1      20.417   7.682  21.609  0.00  0.00    +0.023 A 
ATOM     21  C   UNL     1      20.130   6.412  21.105  0.00  0.00    +0.034 A 
BRANCH  21   7
ATOM      4  O   UNL     1      21.589   4.920  23.256  0.00  0.00    -0.268 OA
ATOM      7  N   UNL     1      21.141   5.455  21.011  0.00  0.00    -0.280 N 
ATOM     27  C   UNL     1      21.792   4.785  22.054  0.00  0.00    +0.270 C 
ATOM     33  H   UNL     1      21.432   5.219  20.065  0.00  0.00    +0.155 HD
BRANCH  27  28
ATOM      5  O   UNL     1      24.414   2.928  20.461  0.00  0.00    -0.359 OA
ATOM      8  N   UNL     1      23.587   4.039  20.570  0.00  0.00    -0.073 NA
ATOM     28  C   UNL     1      22.816   3.792  21.634  0.00  0.00    +0.168 A 
ATOM     29  C   UNL     1      23.109   2.553  22.228  0.00  0.00    +0.080 A 
ATOM     30  C   UNL     1      24.120   2.051  21.454  0.00  0.00    +0.135 A 
ATOM     31  C   UNL     1      24.907   0.811  21.487  0.00  0.00    +0.089 C 
ENDBRANCH  27  28
ENDBRANCH  21   7
ENDBRANCH  10  12
BRANCH   9  11
ATOM     11  C   UNL     1      14.642   9.205  22.310  0.00  0.00    +0.181 C 
BRANCH  11   2
ATOM      2  O   UNL     1      15.304  10.180  23.089  0.00  0.00    -0.393 OA
ATOM     32  H   UNL     1      14.738  10.369  23.856  0.00  0.00    +0.209 HD
ENDBRANCH  11   2
ENDBRANCH   9  11
BRANCH   6  13
ATOM     13  C   UNL     1      14.202   7.958  19.295  0.00  0.00    +0.143 C 
BRANCH  13  16
ATOM     16  C   UNL     1      12.925   7.779  20.064  0.00  0.00    -0.030 A 
ATOM     22  C   UNL     1      11.966   8.792  20.072  0.00  0.00    +0.005 A 
ATOM     23  C   UNL     1      12.697   6.598  20.771  0.00  0.00    +0.005 A 
ATOM     24  C   UNL     1      10.780   8.625  20.786  0.00  0.00    +0.000 A 
ATOM     25  C   UNL     1      11.511   6.431  21.485  0.00  0.00    +0.000 A 
ATOM     26  C   UNL     1      10.553   7.444  21.493  0.00  0.00    +0.000 A 
ENDBRANCH  13  16
ENDBRANCH   6  13
TORSDOF 7
ENDMDL
MODEL 9
REMARK VINA RESULT:      -6.5     16.606     19.469
REMARK  Name = 71693271
REMARK  8 active torsions:
REMARK  status: ('A' for Active; 'I' for Inactive)
REMARK    1  A    between atoms: O_2  and  C_11
REMARK    2  A    between atoms: N_6  and  C_13
REMARK    3  A    between atoms: N_7  and  C_21
REMARK    4  A    between atoms: C_9  and  C_11
REMARK    5  A    between atoms: C_10  and  C_12
REMARK    6  A    between atoms: C_13  and  C_16
REMARK    7  A    between atoms: C_27  and  C_28
REMARK    8  A    between atoms: C_30  and  C_31
REMARK                            x       y       z     vdW  Elec       q    Type
REMARK                         _______ _______ _______ _____ _____    ______ ____
ROOT
ATOM      1  O   UNL     1      12.167   7.429   5.865  0.00  0.00    -0.361 OA
ATOM      3  O   UNL     1      10.202   9.991   6.998  0.00  0.00    -0.273 OA
ATOM      6  N   UNL     1       9.541   7.840   6.377  0.00  0.00    -0.287 N 
ATOM      9  C   UNL     1       9.922   6.425   6.319  0.00  0.00    +0.135 C 
ATOM     10  C   UNL     1      11.372   6.239   5.799  0.00  0.00    +0.171 C 
ATOM     14  C   UNL     1      10.456   8.808   6.782  0.00  0.00    +0.242 C 
ATOM     15  C   UNL     1      11.853   8.262   6.962  0.00  0.00    +0.256 C 
ENDROOT
BRANCH  10  12
ATOM     12  C   UNL     1      11.381   5.778   4.354  0.00  0.00    -0.017 A 
ATOM     17  C   UNL     1      10.639   4.659   3.974  0.00  0.00    +0.008 A 
ATOM     18  C   UNL     1      12.131   6.474   3.404  0.00  0.00    +0.008 A 
ATOM     19  C   UNL     1      10.646   4.237   2.644  0.00  0.00    +0.023 A 
ATOM     20  C   UNL     1      12.138   6.050   2.075  0.00  0.00    +0.023 A 
ATOM     21  C   UNL     1      11.395   4.932   1.695  0.00  0.00    +0.034 A 
BRANCH  21   7
ATOM      4  O   UNL     1      13.330   3.168   0.234  0.00  0.00    -0.268 OA
ATOM      7  N   UNL     1      11.402   4.509   0.366  0.00  0.00    -0.280 N 
ATOM     27  C   UNL     1      12.335   3.680  -0.270  0.00  0.00    +0.270 C 
ATOM     33  H   UNL     1      10.630   4.847  -0.204  0.00  0.00    +0.155 HD
BRANCH  27  28
ATOM      5  O   UNL     1      10.914   2.831  -3.451  0.00  0.00    -0.359 OA
ATOM      8  N   UNL     1      10.823   3.032  -2.079  0.00  0.00    -0.073 NA
ATOM     28  C   UNL     1      12.056   3.383  -1.700  0.00  0.00    +0.168 A 
ATOM     29  C   UNL     1      12.955   3.422  -2.779  0.00  0.00    +0.080 A 
ATOM     30  C   UNL     1      12.187   3.067  -3.856  0.00  0.00    +0.135 A 
ATOM     31  C   UNL     1      12.461   2.900  -5.289  0.00  0.00    +0.089 C 
ENDBRANCH  27  28
ENDBRANCH  21   7
ENDBRANCH  10  12
BRANCH   9  11
ATOM     11  C   UNL     1       9.736   5.757   7.689  0.00  0.00    +0.181 C 
BRANCH  11   2
ATOM      2  O   UNL     1      10.963   5.163   8.059  0.00  0.00    -0.393 OA
ATOM     32  H   UNL     1      11.658   5.575   7.518  0.00  0.00    +0.209 HD
ENDBRANCH  11   2
ENDBRANCH   9  11
BRANCH   6  13
ATOM     13  C   UNL     1       8.148   8.184   6.130  0.00  0.00    +0.143 C 
BRANCH  13  16
ATOM     16  C   UNL     1       7.919   8.615   4.710  0.00  0.00    -0.030 A 
ATOM     22  C   UNL     1       7.076   9.692   4.435  0.00  0.00    +0.005 A 
ATOM     23  C   UNL     1       8.550   7.939   3.666  0.00  0.00    +0.005 A 
ATOM     24  C   UNL     1       6.864  10.093   3.116  0.00  0.00    +0.000 A 
ATOM     25  C   UNL     1       8.338   8.340   2.347  0.00  0.00    +0.000 A 
ATOM     26  C   UNL     1       7.495   9.416   2.072  0.00  0.00    +0.000 A 
ENDBRANCH  13  16
ENDBRANCH   6  13
TORSDOF 7
ENDMDL
MODEL 10
REMARK VINA RESULT:      -6.4     27.096     30.719
REMARK  Name = 71693271
REMARK  8 active torsions:
REMARK  status: ('A' for Active; 'I' for Inactive)
REMARK    1  A    between atoms: O_2  and  C_11
REMARK    2  A    between atoms: N_6  and  C_13
REMARK    3  A    between atoms: N_7  and  C_21
REMARK    4  A    between atoms: C_9  and  C_11
REMARK    5  A    between atoms: C_10  and  C_12
REMARK    6  A    between atoms: C_13  and  C_16
REMARK    7  A    between atoms: C_27  and  C_28
REMARK    8  A    between atoms: C_30  and  C_31
REMARK                            x       y       z     vdW  Elec       q    Type
REMARK                         _______ _______ _______ _____ _____    ______ ____
ROOT
ATOM      1  O   UNL     1      -4.054 -13.187  14.988  0.00  0.00    -0.361 OA
ATOM      3  O   UNL     1      -2.136 -13.577  12.181  0.00  0.00    -0.273 OA
ATOM      6  N   UNL     1      -2.410 -11.656  13.478  0.00  0.00    -0.287 N 
ATOM      9  C   UNL     1      -2.645 -11.128  14.826  0.00  0.00    +0.135 C 
ATOM     10  C   UNL     1      -3.765 -11.909  15.564  0.00  0.00    +0.171 C 
ATOM     14  C   UNL     1      -2.453 -13.026  13.233  0.00  0.00    +0.242 C 
ATOM     15  C   UNL     1      -2.927 -13.825  14.423  0.00  0.00    +0.256 C 
ENDROOT
BRANCH  10  12
ATOM     12  C   UNL     1      -5.062 -11.123  15.579  0.00  0.00    -0.017 A 
ATOM     17  C   UNL     1      -5.190 -10.003  16.400  0.00  0.00    +0.008 A 
ATOM     18  C   UNL     1      -6.127 -11.520  14.769  0.00  0.00    +0.008 A 
ATOM     19  C   UNL     1      -6.383  -9.279  16.412  0.00  0.00    +0.023 A 
ATOM     20  C   UNL     1      -7.320 -10.797  14.782  0.00  0.00    +0.023 A 
ATOM     21  C   UNL     1      -7.448  -9.676  15.603  0.00  0.00    +0.034 A 
BRANCH  21   7
ATOM      4  O   UNL     1      -9.424  -9.235  17.814  0.00  0.00    -0.268 OA
ATOM      7  N   UNL     1      -8.640  -8.953  15.614  0.00  0.00    -0.280 N 
ATOM     27  C   UNL     1      -9.532  -8.777  16.681  0.00  0.00    +0.270 C 
ATOM     33  H   UNL     1      -8.884  -8.497  14.738  0.00  0.00    +0.155 HD
BRANCH  27  28
ATOM      5  O   UNL     1     -11.827  -6.137  15.894  0.00  0.00    -0.359 OA
ATOM      8  N   UNL     1     -10.545  -6.627  16.107  0.00  0.00    -0.073 NA
ATOM     28  C   UNL     1     -10.713  -7.922  16.391  0.00  0.00    +0.168 A 
ATOM     29  C   UNL     1     -12.066  -8.300  16.372  0.00  0.00    +0.080 A 
ATOM     30  C   UNL     1     -12.724  -7.143  16.054  0.00  0.00    +0.135 A 
ATOM     31  C   UNL     1     -14.139  -6.797  15.864  0.00  0.00    +0.089 C 
ENDBRANCH  27  28
ENDBRANCH  21   7
ENDBRANCH  10  12
BRANCH   9  11
ATOM     11  C   UNL     1      -1.344 -11.125  15.641  0.00  0.00    +0.181 C 
BRANCH  11   2
ATOM      2  O   UNL     1      -1.683 -11.145  17.012  0.00  0.00    -0.393 OA
ATOM     32  H   UNL     1      -2.569 -10.754  17.096  0.00  0.00    +0.209 HD
ENDBRANCH  11   2
ENDBRANCH   9  11
BRANCH   6  13
ATOM     13  C   UNL     1      -1.999 -10.722  12.440  0.00  0.00    +0.143 C 
BRANCH  13  16
ATOM     16  C   UNL     1      -3.170 -10.205  11.654  0.00  0.00    -0.030 A 
ATOM     22  C   UNL     1      -2.959  -9.508  10.465  0.00  0.00    +0.005 A 
ATOM     23  C   UNL     1      -4.468 -10.424  12.114  0.00  0.00    +0.005 A 
ATOM     24  C   UNL     1      -4.047  -9.028   9.735  0.00  0.00    +0.000 A 
ATOM     25  C   UNL     1      -5.556  -9.944  11.385  0.00  0.00    +0.000 A 
ATOM     26  C   UNL     1      -5.346  -9.246  10.196  0.00  0.00    +0.000 A 
ENDBRANCH  13  16
ENDBRANCH   6  13
TORSDOF 7
ENDMDL
