MODEL 1
REMARK VINA RESULT:      -6.9      0.000      0.000
REMARK  Name = 11883052
REMARK  8 active torsions:
REMARK  status: ('A' for Active; 'I' for Inactive)
REMARK    1  A    between atoms: O_4  and  C_16
REMARK    2  A    between atoms: O_5  and  C_21
REMARK    3  A    between atoms: C_11  and  C_19
REMARK    4  A    between atoms: C_13  and  C_21
REMARK    5  A    between atoms: C_13  and  C_22
REMARK    6  A    between atoms: C_14  and  C_24
REMARK    7  A    between atoms: C_24  and  C_25
REMARK    8  A    between atoms: C_32  and  C_33
REMARK                            x       y       z     vdW  Elec       q    Type
REMARK                         _______ _______ _______ _____ _____    ______ ____
ROOT
ATOM      1  S   UNL     1      17.925   6.196  19.797  0.00  0.00    -0.057 S 
ATOM      7  O   UNL     1      20.910   8.518  22.512  0.00  0.00    -0.270 OA
ATOM      8  N   UNL     1      18.221   8.278  21.305  0.00  0.00    -0.229 NA
ATOM     10  N   UNL     1      20.129   6.824  21.072  0.00  0.00    -0.261 N 
ATOM     11  C   UNL     1      14.709   9.419  20.196  0.00  0.00    -0.019 C 
ATOM     12  C   UNL     1      14.194   7.923  20.016  0.00  0.00    +0.011 C 
ATOM     13  C   UNL     1      12.745   7.731  19.422  0.00  0.00    +0.021 C 
ATOM     14  C   UNL     1      15.961   9.393  21.188  0.00  0.00    +0.054 C 
ATOM     15  C   UNL     1      13.590  10.276  20.844  0.00  0.00    +0.010 C 
ATOM     16  C   UNL     1      11.762   8.693  20.148  0.00  0.00    +0.123 C 
ATOM     17  C   UNL     1      15.272   7.028  19.338  0.00  0.00    +0.049 C 
ATOM     18  C   UNL     1      12.236  10.142  20.160  0.00  0.00    +0.032 C 
ATOM     19  C   UNL     1      15.125  10.077  18.857  0.00  0.00    +0.012 C 
ATOM     20  C   UNL     1      16.931   8.304  20.807  0.00  0.00    +0.058 A 
ATOM     22  C   UNL     1      12.268   6.279  19.708  0.00  0.00    +0.016 C 
ATOM     23  C   UNL     1      16.596   7.243  19.992  0.00  0.00    +0.015 A 
ATOM     26  C   UNL     1      18.839   7.217  20.834  0.00  0.00    +0.165 A 
ATOM     32  C   UNL     1      21.072   7.481  21.880  0.00  0.00    +0.255 C 
ATOM     41  H   UNL     1      20.401   5.972  20.589  0.00  0.00    +0.157 HD
ENDROOT
BRANCH  32  33
ATOM      2  F   UNL     1      23.031   7.729  19.888  0.00  0.00    -0.205 F 
ATOM      3  F   UNL     1      21.770   5.891  24.082  0.00  0.00    -0.205 F 
ATOM     33  C   UNL     1      22.396   6.812  21.985  0.00  0.00    +0.107 A 
ATOM     34  C   UNL     1      23.309   6.981  20.965  0.00  0.00    +0.138 A 
ATOM     35  C   UNL     1      22.667   6.046  23.098  0.00  0.00    +0.138 A 
ATOM     36  C   UNL     1      24.551   6.353  21.063  0.00  0.00    +0.039 A 
ATOM     37  C   UNL     1      23.910   5.418  23.196  0.00  0.00    +0.039 A 
ATOM     38  C   UNL     1      24.851   5.572  22.179  0.00  0.00    +0.006 A 
ENDBRANCH  32  33
BRANCH  16   4
ATOM      4  O   UNL     1      10.468   8.638  19.548  0.00  0.00    -0.391 OA
ATOM     39  H   UNL     1      10.054   9.509  19.648  0.00  0.00    +0.210 HD
ENDBRANCH  16   4
BRANCH  13  21
ATOM     21  C   UNL     1      12.652   7.905  17.890  0.00  0.00    +0.165 C 
BRANCH  21   5
ATOM      5  O   UNL     1      11.725   6.960  17.403  0.00  0.00    -0.394 OA
ATOM     40  H   UNL     1      10.888   7.085  17.882  0.00  0.00    +0.209 HD
ENDBRANCH  21   5
ENDBRANCH  13  21
BRANCH  14  24
ATOM     24  C   UNL     1      16.670  10.744  21.355  0.00  0.00    +0.106 C 
BRANCH  24  25
ATOM      6  O   UNL     1      15.688  11.203  23.461  0.00  0.00    -0.276 OA
ATOM      9  N   UNL     1      15.458  12.844  21.832  0.00  0.00    -0.301 N 
ATOM     25  C   UNL     1      15.897  11.611  22.316  0.00  0.00    +0.216 C 
ATOM     27  C   UNL     1      14.698  13.741  22.704  0.00  0.00    +0.108 C 
ATOM     28  C   UNL     1      15.729  13.374  20.490  0.00  0.00    +0.108 C 
ATOM     29  C   UNL     1      13.380  14.150  22.051  0.00  0.00    +0.019 C 
ATOM     30  C   UNL     1      14.431  13.778  19.794  0.00  0.00    +0.019 C 
ATOM     31  C   UNL     1      13.611  14.735  20.659  0.00  0.00    +0.003 C 
ENDBRANCH  24  25
ENDBRANCH  14  24
TORSDOF 6
ENDMDL
MODEL 2
REMARK VINA RESULT:      -6.8      1.670      2.285
REMARK  Name = 11883052
REMARK  8 active torsions:
REMARK  status: ('A' for Active; 'I' for Inactive)
REMARK    1  A    between atoms: O_4  and  C_16
REMARK    2  A    between atoms: O_5  and  C_21
REMARK    3  A    between atoms: C_11  and  C_19
REMARK    4  A    between atoms: C_13  and  C_21
REMARK    5  A    between atoms: C_13  and  C_22
REMARK    6  A    between atoms: C_14  and  C_24
REMARK    7  A    between atoms: C_24  and  C_25
REMARK    8  A    between atoms: C_32  and  C_33
REMARK                            x       y       z     vdW  Elec       q    Type
REMARK                         _______ _______ _______ _____ _____    ______ ____
ROOT
ATOM      1  S   UNL     1      17.766   6.132  19.728  0.00  0.00    -0.057 S 
ATOM      7  O   UNL     1      21.146   8.461  21.926  0.00  0.00    -0.270 OA
ATOM      8  N   UNL     1      18.326   8.284  21.051  0.00  0.00    -0.229 NA
ATOM     10  N   UNL     1      20.129   6.723  20.700  0.00  0.00    -0.261 N 
ATOM     11  C   UNL     1      14.761   9.532  20.275  0.00  0.00    -0.019 C 
ATOM     12  C   UNL     1      14.165   8.056  20.254  0.00  0.00    +0.011 C 
ATOM     13  C   UNL     1      12.649   7.902  19.843  0.00  0.00    +0.021 C 
ATOM     14  C   UNL     1      16.119   9.503  21.117  0.00  0.00    +0.054 C 
ATOM     15  C   UNL     1      13.765  10.482  20.987  0.00  0.00    +0.010 C 
ATOM     16  C   UNL     1      11.801   8.955  20.612  0.00  0.00    +0.123 C 
ATOM     17  C   UNL     1      15.117   7.067  19.520  0.00  0.00    +0.049 C 
ATOM     18  C   UNL     1      12.336  10.376  20.472  0.00  0.00    +0.032 C 
ATOM     19  C   UNL     1      15.047  10.085  18.857  0.00  0.00    +0.012 C 
ATOM     20  C   UNL     1      16.990   8.345  20.702  0.00  0.00    +0.058 A 
ATOM     22  C   UNL     1      12.147   6.497  20.277  0.00  0.00    +0.016 C 
ATOM     23  C   UNL     1      16.516   7.255  20.003  0.00  0.00    +0.015 A 
ATOM     26  C   UNL     1      18.838   7.166  20.584  0.00  0.00    +0.165 A 
ATOM     32  C   UNL     1      21.188   7.380  21.349  0.00  0.00    +0.255 C 
ATOM     41  H   UNL     1      20.305   5.831  20.246  0.00  0.00    +0.157 HD
ENDROOT
BRANCH  32  33
ATOM      2  F   UNL     1      23.313   8.125  19.678  0.00  0.00    -0.205 F 
ATOM      3  F   UNL     1      21.665   5.176  23.016  0.00  0.00    -0.205 F 
ATOM     33  C   UNL     1      22.485   6.652  21.347  0.00  0.00    +0.107 A 
ATOM     34  C   UNL     1      23.484   7.078  20.497  0.00  0.00    +0.138 A 
ATOM     35  C   UNL     1      22.645   5.577  22.195  0.00  0.00    +0.138 A 
ATOM     36  C   UNL     1      24.700   6.395  20.494  0.00  0.00    +0.039 A 
ATOM     37  C   UNL     1      23.863   4.895  22.193  0.00  0.00    +0.039 A 
ATOM     38  C   UNL     1      24.890   5.304  21.342  0.00  0.00    +0.006 A 
ENDBRANCH  32  33
BRANCH  16   4
ATOM      4  O   UNL     1      10.445   8.929  20.167  0.00  0.00    -0.391 OA
ATOM     39  H   UNL     1      10.199   9.829  19.898  0.00  0.00    +0.210 HD
ENDBRANCH  16   4
BRANCH  13  21
ATOM     21  C   UNL     1      12.386   7.986  18.324  0.00  0.00    +0.165 C 
BRANCH  21   5
ATOM      5  O   UNL     1      11.981   6.709  17.884  0.00  0.00    -0.394 OA
ATOM     40  H   UNL     1      11.235   6.823  17.272  0.00  0.00    +0.209 HD
ENDBRANCH  21   5
ENDBRANCH  13  21
BRANCH  14  24
ATOM     24  C   UNL     1      16.900  10.824  21.113  0.00  0.00    +0.106 C 
BRANCH  24  25
ATOM      6  O   UNL     1      16.027  11.422  23.232  0.00  0.00    -0.276 OA
ATOM      9  N   UNL     1      18.313  11.713  22.936  0.00  0.00    -0.301 N 
ATOM     25  C   UNL     1      17.033  11.344  22.522  0.00  0.00    +0.216 C 
ATOM     27  C   UNL     1      18.523  12.229  24.289  0.00  0.00    +0.108 C 
ATOM     28  C   UNL     1      19.534  11.589  22.128  0.00  0.00    +0.108 C 
ATOM     29  C   UNL     1      19.238  13.577  24.254  0.00  0.00    +0.019 C 
ATOM     30  C   UNL     1      20.270  12.925  22.052  0.00  0.00    +0.019 C 
ATOM     31  C   UNL     1      20.532  13.495  23.446  0.00  0.00    +0.003 C 
ENDBRANCH  24  25
ENDBRANCH  14  24
TORSDOF 6
ENDMDL
MODEL 3
REMARK VINA RESULT:      -6.7     28.591     32.661
REMARK  Name = 11883052
REMARK  8 active torsions:
REMARK  status: ('A' for Active; 'I' for Inactive)
REMARK    1  A    between atoms: O_4  and  C_16
REMARK    2  A    between atoms: O_5  and  C_21
REMARK    3  A    between atoms: C_11  and  C_19
REMARK    4  A    between atoms: C_13  and  C_21
REMARK    5  A    between atoms: C_13  and  C_22
REMARK    6  A    between atoms: C_14  and  C_24
REMARK    7  A    between atoms: C_24  and  C_25
REMARK    8  A    between atoms: C_32  and  C_33
REMARK                            x       y       z     vdW  Elec       q    Type
REMARK                         _______ _______ _______ _____ _____    ______ ____
ROOT
ATOM      1  S   UNL     1      -5.455  -9.855  10.315  0.00  0.00    -0.057 S 
ATOM      7  O   UNL     1      -9.928  -8.587  10.572  0.00  0.00    -0.270 OA
ATOM      8  N   UNL     1      -7.460  -9.513  11.914  0.00  0.00    -0.229 NA
ATOM     10  N   UNL     1      -7.840  -9.048   9.580  0.00  0.00    -0.261 N 
ATOM     11  C   UNL     1      -5.294 -10.998  14.737  0.00  0.00    -0.019 C 
ATOM     12  C   UNL     1      -3.944 -10.445  14.100  0.00  0.00    +0.011 C 
ATOM     13  C   UNL     1      -2.595 -10.864  14.802  0.00  0.00    +0.021 C 
ATOM     14  C   UNL     1      -6.503 -10.123  14.168  0.00  0.00    +0.054 C 
ATOM     15  C   UNL     1      -5.247 -10.822  16.277  0.00  0.00    +0.010 C 
ATOM     16  C   UNL     1      -2.736 -10.670  16.339  0.00  0.00    +0.123 C 
ATOM     17  C   UNL     1      -3.928 -10.628  12.554  0.00  0.00    +0.049 C 
ATOM     18  C   UNL     1      -3.971 -11.349  16.920  0.00  0.00    +0.032 C 
ATOM     19  C   UNL     1      -5.543 -12.493  14.416  0.00  0.00    +0.012 C 
ATOM     20  C   UNL     1      -6.391  -9.952  12.674  0.00  0.00    +0.058 A 
ATOM     22  C   UNL     1      -1.457  -9.922  14.319  0.00  0.00    +0.016 C 
ATOM     23  C   UNL     1      -5.223 -10.166  11.973  0.00  0.00    +0.015 A 
ATOM     26  C   UNL     1      -7.085  -9.432  10.656  0.00  0.00    +0.165 A 
ATOM     32  C   UNL     1      -9.188  -8.656   9.596  0.00  0.00    +0.255 C 
ATOM     41  H   UNL     1      -7.343  -9.074   8.693  0.00  0.00    +0.157 HD
ENDROOT
BRANCH  32  33
ATOM      2  F   UNL     1     -10.076 -10.545   7.724  0.00  0.00    -0.205 F 
ATOM      3  F   UNL     1      -9.431  -5.971   8.825  0.00  0.00    -0.205 F 
ATOM     33  C   UNL     1      -9.752  -8.259   8.279  0.00  0.00    +0.107 A 
ATOM     34  C   UNL     1     -10.167  -9.246   7.409  0.00  0.00    +0.138 A 
ATOM     35  C   UNL     1      -9.839  -6.918   7.970  0.00  0.00    +0.138 A 
ATOM     36  C   UNL     1     -10.696  -8.874   6.173  0.00  0.00    +0.039 A 
ATOM     37  C   UNL     1     -10.368  -6.547   6.733  0.00  0.00    +0.039 A 
ATOM     38  C   UNL     1     -10.796  -7.524   5.835  0.00  0.00    +0.006 A 
ENDBRANCH  32  33
BRANCH  16   4
ATOM      4  O   UNL     1      -1.580 -11.161  17.016  0.00  0.00    -0.391 OA
ATOM     39  H   UNL     1      -1.288 -10.481  17.644  0.00  0.00    +0.210 HD
ENDBRANCH  16   4
BRANCH  13  21
ATOM     21  C   UNL     1      -2.118 -12.295  14.470  0.00  0.00    +0.165 C 
BRANCH  21   5
ATOM      5  O   UNL     1      -0.708 -12.289  14.461  0.00  0.00    -0.394 OA
ATOM     40  H   UNL     1      -0.403 -13.207  14.368  0.00  0.00    +0.209 HD
ENDBRANCH  21   5
ENDBRANCH  13  21
BRANCH  14  24
ATOM     24  C   UNL     1      -7.897 -10.621  14.574  0.00  0.00    +0.106 C 
BRANCH  24  25
ATOM      6  O   UNL     1      -8.337  -8.812  16.039  0.00  0.00    -0.276 OA
ATOM      9  N   UNL     1      -8.543 -10.945  16.937  0.00  0.00    -0.301 N 
ATOM     25  C   UNL     1      -8.278 -10.037  15.911  0.00  0.00    +0.216 C 
ATOM     27  C   UNL     1      -8.916 -10.456  18.265  0.00  0.00    +0.108 C 
ATOM     28  C   UNL     1      -8.525 -12.408  16.802  0.00  0.00    +0.108 C 
ATOM     29  C   UNL     1      -8.008 -11.047  19.339  0.00  0.00    +0.019 C 
ATOM     30  C   UNL     1      -7.609 -13.037  17.850  0.00  0.00    +0.019 C 
ATOM     31  C   UNL     1      -7.975 -12.572  19.259  0.00  0.00    +0.003 C 
ENDBRANCH  24  25
ENDBRANCH  14  24
TORSDOF 6
ENDMDL
MODEL 4
REMARK VINA RESULT:      -6.6     30.294     33.426
REMARK  Name = 11883052
REMARK  8 active torsions:
REMARK  status: ('A' for Active; 'I' for Inactive)
REMARK    1  A    between atoms: O_4  and  C_16
REMARK    2  A    between atoms: O_5  and  C_21
REMARK    3  A    between atoms: C_11  and  C_19
REMARK    4  A    between atoms: C_13  and  C_21
REMARK    5  A    between atoms: C_13  and  C_22
REMARK    6  A    between atoms: C_14  and  C_24
REMARK    7  A    between atoms: C_24  and  C_25
REMARK    8  A    between atoms: C_32  and  C_33
REMARK                            x       y       z     vdW  Elec       q    Type
REMARK                         _______ _______ _______ _____ _____    ______ ____
ROOT
ATOM      1  S   UNL     1     -10.212  -8.373  16.973  0.00  0.00    -0.057 S 
ATOM      7  O   UNL     1     -11.413  -7.739  12.520  0.00  0.00    -0.270 OA
ATOM      8  N   UNL     1      -9.628  -8.979  14.526  0.00  0.00    -0.229 NA
ATOM     10  N   UNL     1     -11.510  -7.511  14.864  0.00  0.00    -0.261 N 
ATOM     11  C   UNL     1      -6.497 -10.791  15.860  0.00  0.00    -0.019 C 
ATOM     12  C   UNL     1      -7.207 -11.176  17.231  0.00  0.00    +0.011 C 
ATOM     13  C   UNL     1      -6.318 -11.887  18.324  0.00  0.00    +0.021 C 
ATOM     14  C   UNL     1      -7.636 -10.507  14.777  0.00  0.00    +0.054 C 
ATOM     15  C   UNL     1      -5.642 -11.987  15.367  0.00  0.00    +0.010 C 
ATOM     16  C   UNL     1      -5.497 -13.025  17.655  0.00  0.00    +0.123 C 
ATOM     17  C   UNL     1      -8.055  -9.994  17.785  0.00  0.00    +0.049 C 
ATOM     18  C   UNL     1      -4.715 -12.562  16.429  0.00  0.00    +0.032 C 
ATOM     19  C   UNL     1      -5.583  -9.547  15.985  0.00  0.00    +0.012 C 
ATOM     20  C   UNL     1      -8.712  -9.616  15.343  0.00  0.00    +0.058 A 
ATOM     22  C   UNL     1      -7.246 -12.547  19.382  0.00  0.00    +0.016 C 
ATOM     23  C   UNL     1      -8.894  -9.415  16.696  0.00  0.00    +0.015 A 
ATOM     26  C   UNL     1     -10.461  -8.290  15.276  0.00  0.00    +0.165 A 
ATOM     32  C   UNL     1     -11.918  -7.284  13.540  0.00  0.00    +0.255 C 
ATOM     41  H   UNL     1     -12.013  -7.057  15.621  0.00  0.00    +0.157 HD
ENDROOT
BRANCH  32  33
ATOM      2  F   UNL     1     -14.530  -8.290  13.726  0.00  0.00    -0.205 F 
ATOM      3  F   UNL     1     -11.708  -4.532  13.038  0.00  0.00    -0.205 F 
ATOM     33  C   UNL     1     -13.114  -6.414  13.383  0.00  0.00    +0.107 A 
ATOM     34  C   UNL     1     -14.367  -6.981  13.487  0.00  0.00    +0.138 A 
ATOM     35  C   UNL     1     -12.931  -5.070  13.137  0.00  0.00    +0.138 A 
ATOM     36  C   UNL     1     -15.489  -6.166  13.339  0.00  0.00    +0.039 A 
ATOM     37  C   UNL     1     -14.054  -4.254  12.989  0.00  0.00    +0.039 A 
ATOM     38  C   UNL     1     -15.332  -4.802  13.090  0.00  0.00    +0.006 A 
ENDBRANCH  32  33
BRANCH  16   4
ATOM      4  O   UNL     1      -4.586 -13.604  18.589  0.00  0.00    -0.391 OA
ATOM     39  H   UNL     1      -3.689 -13.518  18.227  0.00  0.00    +0.210 HD
ENDBRANCH  16   4
BRANCH  13  21
ATOM     21  C   UNL     1      -5.395 -10.935  19.117  0.00  0.00    +0.165 C 
BRANCH  21   5
ATOM      5  O   UNL     1      -5.955 -10.758  20.398  0.00  0.00    -0.394 OA
ATOM     40  H   UNL     1      -5.755 -11.549  20.927  0.00  0.00    +0.209 HD
ENDBRANCH  21   5
ENDBRANCH  13  21
BRANCH  14  24
ATOM     24  C   UNL     1      -7.120  -9.979  13.431  0.00  0.00    +0.106 C 
BRANCH  24  25
ATOM      6  O   UNL     1      -7.593 -12.014  12.314  0.00  0.00    -0.276 OA
ATOM      9  N   UNL     1      -5.465 -11.134  12.005  0.00  0.00    -0.301 N 
ATOM     25  C   UNL     1      -6.756 -11.136  12.535  0.00  0.00    +0.216 C 
ATOM     27  C   UNL     1      -5.036 -12.224  11.128  0.00  0.00    +0.108 C 
ATOM     28  C   UNL     1      -4.463 -10.081  12.213  0.00  0.00    +0.108 C 
ATOM     29  C   UNL     1      -3.743 -12.856  11.636  0.00  0.00    +0.019 C 
ATOM     30  C   UNL     1      -3.158 -10.672  12.742  0.00  0.00    +0.019 C 
ATOM     31  C   UNL     1      -2.657 -11.802  11.844  0.00  0.00    +0.003 C 
ENDBRANCH  24  25
ENDBRANCH  14  24
TORSDOF 6
ENDMDL
MODEL 5
REMARK VINA RESULT:      -6.6     34.772     37.165
REMARK  Name = 11883052
REMARK  8 active torsions:
REMARK  status: ('A' for Active; 'I' for Inactive)
REMARK    1  A    between atoms: O_4  and  C_16
REMARK    2  A    between atoms: O_5  and  C_21
REMARK    3  A    between atoms: C_11  and  C_19
REMARK    4  A    between atoms: C_13  and  C_21
REMARK    5  A    between atoms: C_13  and  C_22
REMARK    6  A    between atoms: C_14  and  C_24
REMARK    7  A    between atoms: C_24  and  C_25
REMARK    8  A    between atoms: C_32  and  C_33
REMARK                            x       y       z     vdW  Elec       q    Type
REMARK                         _______ _______ _______ _____ _____    ______ ____
ROOT
ATOM      1  S   UNL     1      -6.304  -8.026  39.097  0.00  0.00    -0.057 S 
ATOM      7  O   UNL     1     -10.560  -6.184  39.517  0.00  0.00    -0.270 OA
ATOM      8  N   UNL     1      -8.837  -8.493  38.846  0.00  0.00    -0.229 NA
ATOM     10  N   UNL     1      -8.206  -6.285  39.577  0.00  0.00    -0.261 N 
ATOM     11  C   UNL     1      -7.923 -11.932  37.361  0.00  0.00    -0.019 C 
ATOM     12  C   UNL     1      -6.592 -12.040  38.227  0.00  0.00    +0.011 C 
ATOM     13  C   UNL     1      -5.655 -13.279  37.950  0.00  0.00    +0.021 C 
ATOM     14  C   UNL     1      -8.901 -10.898  38.087  0.00  0.00    +0.054 C 
ATOM     15  C   UNL     1      -8.622 -13.315  37.314  0.00  0.00    +0.010 C 
ATOM     16  C   UNL     1      -6.519 -14.571  37.889  0.00  0.00    +0.123 C 
ATOM     17  C   UNL     1      -5.834 -10.681  38.279  0.00  0.00    +0.049 C 
ATOM     18  C   UNL     1      -7.698 -14.461  36.927  0.00  0.00    +0.032 C 
ATOM     19  C   UNL     1      -7.659 -11.460  35.910  0.00  0.00    +0.012 C 
ATOM     20  C   UNL     1      -8.164  -9.648  38.492  0.00  0.00    +0.058 A 
ATOM     22  C   UNL     1      -4.664 -13.441  39.136  0.00  0.00    +0.016 C 
ATOM     23  C   UNL     1      -6.789  -9.578  38.590  0.00  0.00    +0.015 A 
ATOM     26  C   UNL     1      -7.959  -7.571  39.175  0.00  0.00    +0.165 A 
ATOM     32  C   UNL     1      -9.463  -5.676  39.723  0.00  0.00    +0.255 C 
ATOM     41  H   UNL     1      -7.369  -5.741  39.769  0.00  0.00    +0.157 HD
ENDROOT
BRANCH  32  33
ATOM      2  F   UNL     1      -8.194  -4.943  42.114  0.00  0.00    -0.205 F 
ATOM      3  F   UNL     1     -10.682  -3.588  38.301  0.00  0.00    -0.205 F 
ATOM     33  C   UNL     1      -9.438  -4.270  40.205  0.00  0.00    +0.107 A 
ATOM     34  C   UNL     1      -8.794  -3.986  41.392  0.00  0.00    +0.138 A 
ATOM     35  C   UNL     1     -10.060  -3.297  39.452  0.00  0.00    +0.138 A 
ATOM     36  C   UNL     1      -8.771  -2.667  41.845  0.00  0.00    +0.039 A 
ATOM     37  C   UNL     1     -10.036  -1.978  39.906  0.00  0.00    +0.039 A 
ATOM     38  C   UNL     1      -9.393  -1.663  41.102  0.00  0.00    +0.006 A 
ENDBRANCH  32  33
BRANCH  16   4
ATOM      4  O   UNL     1      -5.721 -15.692  37.511  0.00  0.00    -0.391 OA
ATOM     39  H   UNL     1      -6.271 -16.285  36.975  0.00  0.00    +0.210 HD
ENDBRANCH  16   4
BRANCH  13  21
ATOM     21  C   UNL     1      -4.775 -13.146  36.688  0.00  0.00    +0.165 C 
BRANCH  21   5
ATOM      5  O   UNL     1      -3.529 -13.746  36.965  0.00  0.00    -0.394 OA
ATOM     40  H   UNL     1      -3.679 -14.481  37.583  0.00  0.00    +0.209 HD
ENDBRANCH  21   5
ENDBRANCH  13  21
BRANCH  14  24
ATOM     24  C   UNL     1     -10.177 -10.568  37.301  0.00  0.00    +0.106 C 
BRANCH  24  25
ATOM      6  O   UNL     1     -11.275 -11.518  39.172  0.00  0.00    -0.276 OA
ATOM      9  N   UNL     1     -12.538 -11.295  37.235  0.00  0.00    -0.301 N 
ATOM     25  C   UNL     1     -11.374 -11.169  37.994  0.00  0.00    +0.216 C 
ATOM     27  C   UNL     1     -13.742 -11.872  37.836  0.00  0.00    +0.108 C 
ATOM     28  C   UNL     1     -12.698 -10.848  35.845  0.00  0.00    +0.108 C 
ATOM     29  C   UNL     1     -14.269 -13.032  36.995  0.00  0.00    +0.019 C 
ATOM     30  C   UNL     1     -13.207 -11.988  34.965  0.00  0.00    +0.019 C 
ATOM     31  C   UNL     1     -14.479 -12.610  35.542  0.00  0.00    +0.003 C 
ENDBRANCH  24  25
ENDBRANCH  14  24
TORSDOF 6
ENDMDL
MODEL 6
REMARK VINA RESULT:      -6.6     30.799     34.152
REMARK  Name = 11883052
REMARK  8 active torsions:
REMARK  status: ('A' for Active; 'I' for Inactive)
REMARK    1  A    between atoms: O_4  and  C_16
REMARK    2  A    between atoms: O_5  and  C_21
REMARK    3  A    between atoms: C_11  and  C_19
REMARK    4  A    between atoms: C_13  and  C_21
REMARK    5  A    between atoms: C_13  and  C_22
REMARK    6  A    between atoms: C_14  and  C_24
REMARK    7  A    between atoms: C_24  and  C_25
REMARK    8  A    between atoms: C_32  and  C_33
REMARK                            x       y       z     vdW  Elec       q    Type
REMARK                         _______ _______ _______ _____ _____    ______ ____
ROOT
ATOM      1  S   UNL     1     -11.509 -11.045  18.939  0.00  0.00    -0.057 S 
ATOM      7  O   UNL     1      -7.667  -9.606  16.737  0.00  0.00    -0.270 OA
ATOM      8  N   UNL     1     -10.580  -9.376  17.193  0.00  0.00    -0.229 NA
ATOM     10  N   UNL     1      -8.995 -10.880  18.210  0.00  0.00    -0.261 N 
ATOM     11  C   UNL     1     -14.214  -8.298  16.484  0.00  0.00    -0.019 C 
ATOM     12  C   UNL     1     -14.677  -8.598  17.977  0.00  0.00    +0.011 C 
ATOM     13  C   UNL     1     -16.215  -8.444  18.295  0.00  0.00    +0.021 C 
ATOM     14  C   UNL     1     -12.631  -8.084  16.493  0.00  0.00    +0.054 C 
ATOM     15  C   UNL     1     -14.881  -6.989  15.989  0.00  0.00    +0.010 C 
ATOM     16  C   UNL     1     -16.730  -7.106  17.691  0.00  0.00    +0.123 C 
ATOM     17  C   UNL     1     -14.058  -9.923  18.511  0.00  0.00    +0.049 C 
ATOM     18  C   UNL     1     -16.386  -6.940  16.215  0.00  0.00    +0.032 C 
ATOM     19  C   UNL     1     -14.574  -9.441  15.502  0.00  0.00    +0.012 C 
ATOM     20  C   UNL     1     -11.943  -9.160  17.292  0.00  0.00    +0.058 A 
ATOM     22  C   UNL     1     -16.409  -8.361  19.835  0.00  0.00    +0.016 C 
ATOM     23  C   UNL     1     -12.598  -9.961  18.205  0.00  0.00    +0.015 A 
ATOM     26  C   UNL     1     -10.242 -10.351  18.009  0.00  0.00    +0.165 A 
ATOM     32  C   UNL     1      -7.804 -10.488  17.577  0.00  0.00    +0.255 C 
ATOM     41  H   UNL     1      -8.969 -11.641  18.883  0.00  0.00    +0.157 HD
ENDROOT
BRANCH  32  33
ATOM      2  F   UNL     1      -6.779 -12.665  16.136  0.00  0.00    -0.205 F 
ATOM      3  F   UNL     1      -6.379  -9.778  19.886  0.00  0.00    -0.205 F 
ATOM     33  C   UNL     1      -6.583 -11.219  18.010  0.00  0.00    +0.107 A 
ATOM     34  C   UNL     1      -6.139 -12.280  17.249  0.00  0.00    +0.138 A 
ATOM     35  C   UNL     1      -5.936 -10.812  19.157  0.00  0.00    +0.138 A 
ATOM     36  C   UNL     1      -4.994 -12.966  17.655  0.00  0.00    +0.039 A 
ATOM     37  C   UNL     1      -4.790 -11.498  19.562  0.00  0.00    +0.039 A 
ATOM     38  C   UNL     1      -4.320 -12.575  18.812  0.00  0.00    +0.006 A 
ENDBRANCH  32  33
BRANCH  16   4
ATOM      4  O   UNL     1     -18.145  -6.996  17.848  0.00  0.00    -0.391 OA
ATOM     39  H   UNL     1     -18.530  -6.809  16.977  0.00  0.00    +0.210 HD
ENDBRANCH  16   4
BRANCH  13  21
ATOM     21  C   UNL     1     -17.087  -9.630  17.829  0.00  0.00    +0.165 C 
BRANCH  21   5
ATOM      5  O   UNL     1     -18.126  -9.797  18.769  0.00  0.00    -0.394 OA
ATOM     40  H   UNL     1     -17.878 -10.522  19.367  0.00  0.00    +0.209 HD
ENDBRANCH  21   5
ENDBRANCH  13  21
BRANCH  14  24
ATOM     24  C   UNL     1     -12.001  -7.928  15.102  0.00  0.00    +0.106 C 
BRANCH  24  25
ATOM      6  O   UNL     1     -11.175  -5.754  15.554  0.00  0.00    -0.276 OA
ATOM      9  N   UNL     1     -12.422  -6.003  13.610  0.00  0.00    -0.301 N 
ATOM     25  C   UNL     1     -11.824  -6.465  14.783  0.00  0.00    +0.216 C 
ATOM     27  C   UNL     1     -12.298  -4.594  13.233  0.00  0.00    +0.108 C 
ATOM     28  C   UNL     1     -13.162  -6.834  12.651  0.00  0.00    +0.108 C 
ATOM     29  C   UNL     1     -13.669  -3.972  12.986  0.00  0.00    +0.019 C 
ATOM     30  C   UNL     1     -14.551  -6.254  12.390  0.00  0.00    +0.019 C 
ATOM     31  C   UNL     1     -14.470  -4.787  11.971  0.00  0.00    +0.003 C 
ENDBRANCH  24  25
ENDBRANCH  14  24
TORSDOF 6
ENDMDL
MODEL 7
REMARK VINA RESULT:      -6.5     28.581     32.695
REMARK  Name = 11883052
REMARK  8 active torsions:
REMARK  status: ('A' for Active; 'I' for Inactive)
REMARK    1  A    between atoms: O_4  and  C_16
REMARK    2  A    between atoms: O_5  and  C_21
REMARK    3  A    between atoms: C_11  and  C_19
REMARK    4  A    between atoms: C_13  and  C_21
REMARK    5  A    between atoms: C_13  and  C_22
REMARK    6  A    between atoms: C_14  and  C_24
REMARK    7  A    between atoms: C_24  and  C_25
REMARK    8  A    between atoms: C_32  and  C_33
REMARK                            x       y       z     vdW  Elec       q    Type
REMARK                         _______ _______ _______ _____ _____    ______ ____
ROOT
ATOM      1  S   UNL     1      -5.548  -9.900  10.278  0.00  0.00    -0.057 S 
ATOM      7  O   UNL     1      -9.965  -8.505  10.745  0.00  0.00    -0.270 OA
ATOM      8  N   UNL     1      -7.452  -9.465  11.975  0.00  0.00    -0.229 NA
ATOM     10  N   UNL     1      -7.947  -9.046   9.653  0.00  0.00    -0.261 N 
ATOM     11  C   UNL     1      -5.173 -10.939  14.713  0.00  0.00    -0.019 C 
ATOM     12  C   UNL     1      -3.847 -10.439  13.988  0.00  0.00    +0.011 C 
ATOM     13  C   UNL     1      -2.472 -10.878  14.627  0.00  0.00    +0.021 C 
ATOM     14  C   UNL     1      -6.389 -10.046  14.187  0.00  0.00    +0.054 C 
ATOM     15  C   UNL     1      -5.037 -10.728  16.243  0.00  0.00    +0.010 C 
ATOM     16  C   UNL     1      -2.524 -10.642  16.163  0.00  0.00    +0.123 C 
ATOM     17  C   UNL     1      -3.920 -10.660  12.449  0.00  0.00    +0.049 C 
ATOM     18  C   UNL     1      -3.742 -11.274  16.829  0.00  0.00    +0.032 C 
ATOM     19  C   UNL     1      -5.478 -12.434  14.444  0.00  0.00    +0.012 C 
ATOM     20  C   UNL     1      -6.355  -9.914  12.686  0.00  0.00    +0.058 A 
ATOM     22  C   UNL     1      -1.339  -9.979  14.059  0.00  0.00    +0.016 C 
ATOM     23  C   UNL     1      -5.233 -10.177  11.928  0.00  0.00    +0.015 A 
ATOM     26  C   UNL     1      -7.144  -9.425  10.696  0.00  0.00    +0.165 A 
ATOM     32  C   UNL     1      -9.282  -8.617   9.733  0.00  0.00    +0.255 C 
ATOM     41  H   UNL     1      -7.502  -9.106   8.742  0.00  0.00    +0.157 HD
ENDROOT
BRANCH  32  33
ATOM      2  F   UNL     1     -10.691 -10.461   8.158  0.00  0.00    -0.205 F 
ATOM      3  F   UNL     1      -9.128  -6.010   8.709  0.00  0.00    -0.205 F 
ATOM     33  C   UNL     1      -9.907  -8.236   8.438  0.00  0.00    +0.107 A 
ATOM     34  C   UNL     1     -10.584  -9.199   7.719  0.00  0.00    +0.138 A 
ATOM     35  C   UNL     1      -9.789  -6.935   7.999  0.00  0.00    +0.138 A 
ATOM     36  C   UNL     1     -11.170  -8.843   6.504  0.00  0.00    +0.039 A 
ATOM     37  C   UNL     1     -10.375  -6.579   6.784  0.00  0.00    +0.039 A 
ATOM     38  C   UNL     1     -11.065  -7.533   6.037  0.00  0.00    +0.006 A 
ENDBRANCH  32  33
BRANCH  16   4
ATOM      4  O   UNL     1      -1.345 -11.149  16.789  0.00  0.00    -0.391 OA
ATOM     39  H   UNL     1      -1.606 -11.871  17.383  0.00  0.00    +0.210 HD
ENDBRANCH  16   4
BRANCH  13  21
ATOM     21  C   UNL     1      -2.051 -12.329  14.307  0.00  0.00    +0.165 C 
BRANCH  21   5
ATOM      5  O   UNL     1      -1.350 -12.315  13.083  0.00  0.00    -0.394 OA
ATOM     40  H   UNL     1      -1.790 -11.683  12.490  0.00  0.00    +0.209 HD
ENDBRANCH  21   5
ENDBRANCH  13  21
BRANCH  14  24
ATOM     24  C   UNL     1      -7.771 -10.495  14.681  0.00  0.00    +0.106 C 
BRANCH  24  25
ATOM      6  O   UNL     1      -7.714  -9.088  16.586  0.00  0.00    -0.276 OA
ATOM      9  N   UNL     1      -9.607  -8.941  15.246  0.00  0.00    -0.301 N 
ATOM     25  C   UNL     1      -8.353  -9.446  15.593  0.00  0.00    +0.216 C 
ATOM     27  C   UNL     1     -10.240  -7.921  16.084  0.00  0.00    +0.108 C 
ATOM     28  C   UNL     1     -10.371  -9.315  14.049  0.00  0.00    +0.108 C 
ATOM     29  C   UNL     1     -11.644  -8.352  16.500  0.00  0.00    +0.019 C 
ATOM     30  C   UNL     1     -11.779  -9.772  14.425  0.00  0.00    +0.019 C 
ATOM     31  C   UNL     1     -12.490  -8.726  15.284  0.00  0.00    +0.003 C 
ENDBRANCH  24  25
ENDBRANCH  14  24
TORSDOF 6
ENDMDL
MODEL 8
REMARK VINA RESULT:      -6.5     34.243     36.409
REMARK  Name = 11883052
REMARK  8 active torsions:
REMARK  status: ('A' for Active; 'I' for Inactive)
REMARK    1  A    between atoms: O_4  and  C_16
REMARK    2  A    between atoms: O_5  and  C_21
REMARK    3  A    between atoms: C_11  and  C_19
REMARK    4  A    between atoms: C_13  and  C_21
REMARK    5  A    between atoms: C_13  and  C_22
REMARK    6  A    between atoms: C_14  and  C_24
REMARK    7  A    between atoms: C_24  and  C_25
REMARK    8  A    between atoms: C_32  and  C_33
REMARK                            x       y       z     vdW  Elec       q    Type
REMARK                         _______ _______ _______ _____ _____    ______ ____
ROOT
ATOM      1  S   UNL     1      -2.309 -13.671  -1.717  0.00  0.00    -0.057 S 
ATOM      7  O   UNL     1       2.273 -13.617  -2.544  0.00  0.00    -0.270 OA
ATOM      8  N   UNL     1       0.021 -14.176  -0.710  0.00  0.00    -0.229 NA
ATOM     10  N   UNL     1      -0.029 -13.329  -2.966  0.00  0.00    -0.261 N 
ATOM     11  C   UNL     1      -1.732 -14.904   2.646  0.00  0.00    -0.019 C 
ATOM     12  C   UNL     1      -3.055 -15.427   1.932  0.00  0.00    +0.011 C 
ATOM     13  C   UNL     1      -4.276 -15.789   2.863  0.00  0.00    +0.021 C 
ATOM     14  C   UNL     1      -0.528 -15.022   1.602  0.00  0.00    +0.054 C 
ATOM     15  C   UNL     1      -1.412 -15.807   3.865  0.00  0.00    +0.010 C 
ATOM     16  C   UNL     1      -3.773 -16.655   4.053  0.00  0.00    +0.123 C 
ATOM     17  C   UNL     1      -3.438 -14.532   0.717  0.00  0.00    +0.049 C 
ATOM     18  C   UNL     1      -2.596 -16.032   4.795  0.00  0.00    +0.032 C 
ATOM     19  C   UNL     1      -1.850 -13.438   3.133  0.00  0.00    +0.012 C 
ATOM     20  C   UNL     1      -0.924 -14.473   0.256  0.00  0.00    +0.058 A 
ATOM     22  C   UNL     1      -5.288 -16.653   2.058  0.00  0.00    +0.016 C 
ATOM     23  C   UNL     1      -2.234 -14.278  -0.128  0.00  0.00    +0.015 A 
ATOM     26  C   UNL     1      -0.594 -13.739  -1.787  0.00  0.00    +0.165 A 
ATOM     32  C   UNL     1       1.341 -13.292  -3.273  0.00  0.00    +0.255 C 
ATOM     41  H   UNL     1      -0.699 -13.016  -3.663  0.00  0.00    +0.157 HD
ENDROOT
BRANCH  32  33
ATOM      2  F   UNL     1       1.653 -15.078  -5.413  0.00  0.00    -0.205 F 
ATOM      3  F   UNL     1       1.698 -10.579  -3.890  0.00  0.00    -0.205 F 
ATOM     33  C   UNL     1       1.674 -12.830  -4.646  0.00  0.00    +0.107 A 
ATOM     34  C   UNL     1       1.812 -13.768  -5.648  0.00  0.00    +0.138 A 
ATOM     35  C   UNL     1       1.835 -11.479  -4.873  0.00  0.00    +0.138 A 
ATOM     36  C   UNL     1       2.125 -13.334  -6.937  0.00  0.00    +0.039 A 
ATOM     37  C   UNL     1       2.148 -11.046  -6.162  0.00  0.00    +0.039 A 
ATOM     38  C   UNL     1       2.293 -11.974  -7.193  0.00  0.00    +0.006 A 
ENDBRANCH  32  33
BRANCH  16   4
ATOM      4  O   UNL     1      -4.829 -16.893   4.983  0.00  0.00    -0.391 OA
ATOM     39  H   UNL     1      -4.949 -17.853   5.063  0.00  0.00    +0.210 HD
ENDBRANCH  16   4
BRANCH  13  21
ATOM     21  C   UNL     1      -5.079 -14.572   3.370  0.00  0.00    +0.165 C 
BRANCH  21   5
ATOM      5  O   UNL     1      -6.433 -14.955   3.460  0.00  0.00    -0.394 OA
ATOM     40  H   UNL     1      -6.759 -15.126   2.560  0.00  0.00    +0.209 HD
ENDBRANCH  21   5
ENDBRANCH  13  21
BRANCH  14  24
ATOM     24  C   UNL     1       0.798 -14.421   2.087  0.00  0.00    +0.106 C 
BRANCH  24  25
ATOM      6  O   UNL     1       1.610 -16.177   3.455  0.00  0.00    -0.276 OA
ATOM      9  N   UNL     1       2.806 -15.741   1.511  0.00  0.00    -0.301 N 
ATOM     25  C   UNL     1       1.769 -15.527   2.419  0.00  0.00    +0.216 C 
ATOM     27  C   UNL     1       3.791 -16.794   1.764  0.00  0.00    +0.108 C 
ATOM     28  C   UNL     1       2.994 -15.014   0.249  0.00  0.00    +0.108 C 
ATOM     29  C   UNL     1       5.210 -16.237   1.714  0.00  0.00    +0.019 C 
ATOM     30  C   UNL     1       4.400 -14.422   0.169  0.00  0.00    +0.019 C 
ATOM     31  C   UNL     1       5.466 -15.492   0.405  0.00  0.00    +0.003 C 
ENDBRANCH  24  25
ENDBRANCH  14  24
TORSDOF 6
ENDMDL
MODEL 9
REMARK VINA RESULT:      -6.4     15.557     18.038
REMARK  Name = 11883052
REMARK  8 active torsions:
REMARK  status: ('A' for Active; 'I' for Inactive)
REMARK    1  A    between atoms: O_4  and  C_16
REMARK    2  A    between atoms: O_5  and  C_21
REMARK    3  A    between atoms: C_11  and  C_19
REMARK    4  A    between atoms: C_13  and  C_21
REMARK    5  A    between atoms: C_13  and  C_22
REMARK    6  A    between atoms: C_14  and  C_24
REMARK    7  A    between atoms: C_24  and  C_25
REMARK    8  A    between atoms: C_32  and  C_33
REMARK                            x       y       z     vdW  Elec       q    Type
REMARK                         _______ _______ _______ _____ _____    ______ ____
ROOT
ATOM      1  S   UNL     1      16.597   7.396   1.440  0.00  0.00    -0.057 S 
ATOM      7  O   UNL     1      17.483   8.506   5.874  0.00  0.00    -0.270 OA
ATOM      8  N   UNL     1      15.554   7.673   3.792  0.00  0.00    -0.229 NA
ATOM     10  N   UNL     1      17.914   8.120   3.589  0.00  0.00    -0.261 N 
ATOM     11  C   UNL     1      12.103   7.042   2.194  0.00  0.00    -0.019 C 
ATOM     12  C   UNL     1      12.709   6.091   1.071  0.00  0.00    +0.011 C 
ATOM     13  C   UNL     1      11.717   5.572  -0.041  0.00  0.00    +0.021 C 
ATOM     14  C   UNL     1      13.131   7.080   3.416  0.00  0.00    +0.054 C 
ATOM     15  C   UNL     1      10.762   6.451   2.702  0.00  0.00    +0.010 C 
ATOM     16  C   UNL     1      10.413   5.060   0.635  0.00  0.00    +0.123 C 
ATOM     17  C   UNL     1      14.043   6.658   0.504  0.00  0.00    +0.049 C 
ATOM     18  C   UNL     1       9.793   6.074   1.590  0.00  0.00    +0.032 C 
ATOM     19  C   UNL     1      11.849   8.484   1.689  0.00  0.00    +0.012 C 
ATOM     20  C   UNL     1      14.542   7.294   2.930  0.00  0.00    +0.058 A 
ATOM     22  C   UNL     1      12.363   4.363  -0.774  0.00  0.00    +0.016 C 
ATOM     23  C   UNL     1      14.933   7.081   1.624  0.00  0.00    +0.015 A 
ATOM     26  C   UNL     1      16.679   7.765   3.116  0.00  0.00    +0.165 A 
ATOM     32  C   UNL     1      18.241   8.463   4.911  0.00  0.00    +0.255 C 
ATOM     41  H   UNL     1      18.642   8.137   2.880  0.00  0.00    +0.157 HD
ENDROOT
BRANCH  32  33
ATOM      2  F   UNL     1      20.250   6.516   4.713  0.00  0.00    -0.205 F 
ATOM      3  F   UNL     1      19.108  11.042   5.591  0.00  0.00    -0.205 F 
ATOM     33  C   UNL     1      19.674   8.778   5.151  0.00  0.00    +0.107 A 
ATOM     34  C   UNL     1      20.606   7.767   5.036  0.00  0.00    +0.138 A 
ATOM     35  C   UNL     1      20.025  10.070   5.482  0.00  0.00    +0.138 A 
ATOM     36  C   UNL     1      21.950   8.063   5.262  0.00  0.00    +0.039 A 
ATOM     37  C   UNL     1      21.369  10.365   5.708  0.00  0.00    +0.039 A 
ATOM     38  C   UNL     1      22.332   9.361   5.598  0.00  0.00    +0.006 A 
ENDBRANCH  32  33
BRANCH  16   4
ATOM      4  O   UNL     1       9.443   4.703  -0.349  0.00  0.00    -0.391 OA
ATOM     39  H   UNL     1       9.897   4.624  -1.204  0.00  0.00    +0.210 HD
ENDBRANCH  16   4
BRANCH  13  21
ATOM     21  C   UNL     1      11.396   6.604  -1.145  0.00  0.00    +0.165 C 
BRANCH  21   5
ATOM      5  O   UNL     1      11.206   5.900  -2.352  0.00  0.00    -0.394 OA
ATOM     40  H   UNL     1      11.814   6.268  -3.015  0.00  0.00    +0.209 HD
ENDBRANCH  21   5
ENDBRANCH  13  21
BRANCH  14  24
ATOM     24  C   UNL     1      12.764   8.071   4.528  0.00  0.00    +0.106 C 
BRANCH  24  25
ATOM      6  O   UNL     1      13.256   6.578   6.301  0.00  0.00    -0.276 OA
ATOM      9  N   UNL     1      11.130   7.514   6.297  0.00  0.00    -0.301 N 
ATOM     25  C   UNL     1      12.414   7.319   5.788  0.00  0.00    +0.216 C 
ATOM     27  C   UNL     1      10.714   6.817   7.515  0.00  0.00    +0.108 C 
ATOM     28  C   UNL     1      10.122   8.422   5.733  0.00  0.00    +0.108 C 
ATOM     29  C   UNL     1       9.417   6.045   7.286  0.00  0.00    +0.019 C 
ATOM     30  C   UNL     1       8.812   7.682   5.471  0.00  0.00    +0.019 C 
ATOM     31  C   UNL     1       8.325   6.954   6.724  0.00  0.00    +0.003 C 
ENDBRANCH  24  25
ENDBRANCH  14  24
TORSDOF 6
ENDMDL
MODEL 10
REMARK VINA RESULT:      -6.3     34.010     36.705
REMARK  Name = 11883052
REMARK  8 active torsions:
REMARK  status: ('A' for Active; 'I' for Inactive)
REMARK    1  A    between atoms: O_4  and  C_16
REMARK    2  A    between atoms: O_5  and  C_21
REMARK    3  A    between atoms: C_11  and  C_19
REMARK    4  A    between atoms: C_13  and  C_21
REMARK    5  A    between atoms: C_13  and  C_22
REMARK    6  A    between atoms: C_14  and  C_24
REMARK    7  A    between atoms: C_24  and  C_25
REMARK    8  A    between atoms: C_32  and  C_33
REMARK                            x       y       z     vdW  Elec       q    Type
REMARK                         _______ _______ _______ _____ _____    ______ ____
ROOT
ATOM      1  S   UNL     1      -6.101  -7.279  39.141  0.00  0.00    -0.057 S 
ATOM      7  O   UNL     1      -7.357 -11.733  38.629  0.00  0.00    -0.270 OA
ATOM      8  N   UNL     1      -8.075  -8.944  39.303  0.00  0.00    -0.229 NA
ATOM     10  N   UNL     1      -5.942  -9.848  38.639  0.00  0.00    -0.261 N 
ATOM     11  C   UNL     1     -10.208  -6.071  40.742  0.00  0.00    -0.019 C 
ATOM     12  C   UNL     1      -9.417  -4.965  39.915  0.00  0.00    +0.011 C 
ATOM     13  C   UNL     1      -9.791  -3.458  40.195  0.00  0.00    +0.021 C 
ATOM     14  C   UNL     1     -10.002  -7.476  40.009  0.00  0.00    +0.054 C 
ATOM     15  C   UNL     1     -11.721  -5.736  40.739  0.00  0.00    +0.010 C 
ATOM     16  C   UNL     1     -11.339  -3.308  40.202  0.00  0.00    +0.123 C 
ATOM     17  C   UNL     1      -7.885  -5.240  39.915  0.00  0.00    +0.049 C 
ATOM     18  C   UNL     1     -12.036  -4.298  41.129  0.00  0.00    +0.032 C 
ATOM     19  C   UNL     1      -9.728  -6.182  42.211  0.00  0.00    +0.012 C 
ATOM     20  C   UNL     1      -8.554  -7.694  39.653  0.00  0.00    +0.058 A 
ATOM     22  C   UNL     1      -9.246  -2.576  39.036  0.00  0.00    +0.016 C 
ATOM     23  C   UNL     1      -7.626  -6.675  39.599  0.00  0.00    +0.015 A 
ATOM     26  C   UNL     1      -6.794  -8.846  39.021  0.00  0.00    +0.165 A 
ATOM     32  C   UNL     1      -6.263 -11.205  38.468  0.00  0.00    +0.255 C 
ATOM     41  H   UNL     1      -4.984  -9.544  38.485  0.00  0.00    +0.157 HD
ENDROOT
BRANCH  32  33
ATOM      2  F   UNL     1      -4.379 -12.260  40.258  0.00  0.00    -0.205 F 
ATOM      3  F   UNL     1      -5.898 -11.889  35.773  0.00  0.00    -0.205 F 
ATOM     33  C   UNL     1      -5.143 -12.072  38.017  0.00  0.00    +0.107 A 
ATOM     34  C   UNL     1      -4.255 -12.554  38.956  0.00  0.00    +0.138 A 
ATOM     35  C   UNL     1      -5.028 -12.365  36.675  0.00  0.00    +0.138 A 
ATOM     36  C   UNL     1      -3.204 -13.367  38.533  0.00  0.00    +0.039 A 
ATOM     37  C   UNL     1      -3.976 -13.179  36.252  0.00  0.00    +0.039 A 
ATOM     38  C   UNL     1      -3.064 -13.679  37.181  0.00  0.00    +0.006 A 
ENDBRANCH  32  33
BRANCH  16   4
ATOM      4  O   UNL     1     -11.714  -1.983  40.579  0.00  0.00    -0.391 OA
ATOM     39  H   UNL     1     -12.193  -2.035  41.422  0.00  0.00    +0.210 HD
ENDBRANCH  16   4
BRANCH  13  21
ATOM     21  C   UNL     1      -9.176  -2.874  41.485  0.00  0.00    +0.165 C 
BRANCH  21   5
ATOM      5  O   UNL     1      -8.676  -1.591  41.183  0.00  0.00    -0.394 OA
ATOM     40  H   UNL     1      -7.872  -1.699  40.647  0.00  0.00    +0.209 HD
ENDBRANCH  21   5
ENDBRANCH  13  21
BRANCH  14  24
ATOM     24  C   UNL     1     -10.583  -8.680  40.762  0.00  0.00    +0.106 C 
BRANCH  24  25
ATOM      6  O   UNL     1     -11.463  -9.706  38.817  0.00  0.00    -0.276 OA
ATOM      9  N   UNL     1     -12.950  -9.363  40.569  0.00  0.00    -0.301 N 
ATOM     25  C   UNL     1     -11.698  -9.297  39.957  0.00  0.00    +0.216 C 
ATOM     27  C   UNL     1     -14.084  -9.947  39.850  0.00  0.00    +0.108 C 
ATOM     28  C   UNL     1     -13.249  -8.926  41.939  0.00  0.00    +0.108 C 
ATOM     29  C   UNL     1     -15.266  -8.982  39.821  0.00  0.00    +0.019 C 
ATOM     30  C   UNL     1     -14.417  -7.942  41.951  0.00  0.00    +0.019 C 
ATOM     31  C   UNL     1     -15.635  -8.517  41.228  0.00  0.00    +0.003 C 
ENDBRANCH  24  25
ENDBRANCH  14  24
TORSDOF 6
ENDMDL
