MODEL 1
REMARK VINA RESULT:      -7.1      0.000      0.000
REMARK  Name = 11884352
REMARK  3 active torsions:
REMARK  status: ('A' for Active; 'I' for Inactive)
REMARK    1  A    between atoms: O_3  and  C_10
REMARK    2  A    between atoms: N_5  and  C_9
REMARK    3  A    between atoms: N_6  and  C_14
REMARK                            x       y       z     vdW  Elec       q    Type
REMARK                         _______ _______ _______ _____ _____    ______ ____
ROOT
ATOM      4  O   UNL     1      15.332   8.930  22.216  0.00  0.00    -0.252 OA
ATOM      5  N   UNL     1      14.574   8.644  20.050  0.00  0.00    -0.292 N 
ATOM      6  N   UNL     1      16.839   8.643  20.439  0.00  0.00    -0.269 N 
ATOM     13  C   UNL     1      15.575   8.757  21.024  0.00  0.00    +0.304 C 
ATOM     24  H   UNL     1      14.854   8.559  19.078  0.00  0.00    +0.151 HD
ATOM     26  H   UNL     1      16.839   8.694  19.427  0.00  0.00    +0.156 HD
ENDROOT
BRANCH   6  14
ATOM     14  C   UNL     1      18.100   8.702  21.078  0.00  0.00    +0.042 A 
ATOM     15  C   UNL     1      18.977   7.615  21.053  0.00  0.00    +0.003 A 
ATOM     16  C   UNL     1      20.225   7.733  21.712  0.00  0.00    -0.016 A 
ATOM     17  C   UNL     1      18.422   9.886  21.729  0.00  0.00    +0.024 A 
ATOM     18  C   UNL     1      18.657   6.416  20.397  0.00  0.00    +0.010 A 
ATOM     19  C   UNL     1      20.545   8.932  22.367  0.00  0.00    +0.008 A 
ATOM     20  C   UNL     1      19.649  10.001  22.375  0.00  0.00    +0.002 A 
ATOM     21  C   UNL     1      21.116   6.647  21.693  0.00  0.00    +0.008 A 
ATOM     22  C   UNL     1      19.554   5.347  20.389  0.00  0.00    +0.001 A 
ATOM     23  C   UNL     1      20.781   5.462  21.036  0.00  0.00    +0.001 A 
ENDBRANCH   6  14
BRANCH   5   9
ATOM      1  O   UNL     1      12.181   6.733  19.468  0.00  0.00    -0.369 OA
ATOM      2  O   UNL     1      11.505   8.202  22.061  0.00  0.00    -0.369 OA
ATOM      7  C   UNL     1      12.773   7.801  21.498  0.00  0.00    +0.172 C 
ATOM      8  C   UNL     1      12.549   6.458  20.830  0.00  0.00    +0.179 C 
ATOM      9  C   UNL     1      13.147   8.722  20.357  0.00  0.00    +0.131 C 
ATOM     10  C   UNL     1      11.392   5.892  21.618  0.00  0.00    +0.171 C 
ATOM     11  C   UNL     1      12.339   8.137  19.207  0.00  0.00    +0.185 C 
ATOM     12  C   UNL     1      10.567   7.126  21.906  0.00  0.00    +0.194 C 
BRANCH  10   3
ATOM      3  O   UNL     1      10.658   4.915  20.916  0.00  0.00    -0.387 OA
ATOM     25  H   UNL     1      10.565   5.214  19.994  0.00  0.00    +0.210 HD
ENDBRANCH  10   3
ENDBRANCH   5   9
TORSDOF 3
ENDMDL
MODEL 2
REMARK VINA RESULT:      -7.0     32.419     33.349
REMARK  Name = 11884352
REMARK  3 active torsions:
REMARK  status: ('A' for Active; 'I' for Inactive)
REMARK    1  A    between atoms: O_3  and  C_10
REMARK    2  A    between atoms: N_5  and  C_9
REMARK    3  A    between atoms: N_6  and  C_14
REMARK                            x       y       z     vdW  Elec       q    Type
REMARK                         _______ _______ _______ _____ _____    ______ ____
ROOT
ATOM      4  O   UNL     1     -17.201   3.126  28.771  0.00  0.00    -0.252 OA
ATOM      5  N   UNL     1     -15.680   3.471  27.063  0.00  0.00    -0.292 N 
ATOM      6  N   UNL     1     -14.908   2.740  29.101  0.00  0.00    -0.269 N 
ATOM     13  C   UNL     1     -16.040   3.109  28.368  0.00  0.00    +0.304 C 
ATOM     24  H   UNL     1     -14.694   3.486  26.821  0.00  0.00    +0.151 HD
ATOM     26  H   UNL     1     -14.027   2.973  28.657  0.00  0.00    +0.156 HD
ENDROOT
BRANCH   6  14
ATOM     14  C   UNL     1     -14.848   2.313  30.448  0.00  0.00    +0.042 A 
ATOM     15  C   UNL     1     -14.722   3.229  31.494  0.00  0.00    +0.003 A 
ATOM     16  C   UNL     1     -14.665   2.742  32.822  0.00  0.00    -0.016 A 
ATOM     17  C   UNL     1     -14.918   0.945  30.679  0.00  0.00    +0.024 A 
ATOM     18  C   UNL     1     -14.650   4.613  31.267  0.00  0.00    +0.010 A 
ATOM     19  C   UNL     1     -14.738   1.359  33.051  0.00  0.00    +0.008 A 
ATOM     20  C   UNL     1     -14.864   0.467  31.985  0.00  0.00    +0.002 A 
ATOM     21  C   UNL     1     -14.539   3.654  33.883  0.00  0.00    +0.008 A 
ATOM     22  C   UNL     1     -14.524   5.504  32.333  0.00  0.00    +0.001 A 
ATOM     23  C   UNL     1     -14.469   5.026  33.638  0.00  0.00    +0.001 A 
ENDBRANCH   6  14
BRANCH   5   9
ATOM      1  O   UNL     1     -15.884   3.000  23.988  0.00  0.00    -0.369 OA
ATOM      2  O   UNL     1     -18.748   3.300  25.010  0.00  0.00    -0.369 OA
ATOM      7  C   UNL     1     -17.563   2.771  25.644  0.00  0.00    +0.172 C 
ATOM      8  C   UNL     1     -16.783   2.040  24.569  0.00  0.00    +0.179 C 
ATOM      9  C   UNL     1     -16.648   3.904  26.057  0.00  0.00    +0.131 C 
ATOM     10  C   UNL     1     -17.867   1.633  23.600  0.00  0.00    +0.171 C 
ATOM     11  C   UNL     1     -15.931   4.216  24.751  0.00  0.00    +0.185 C 
ATOM     12  C   UNL     1     -18.810   2.814  23.661  0.00  0.00    +0.194 C 
BRANCH  10   3
ATOM      3  O   UNL     1     -17.395   1.399  22.292  0.00  0.00    -0.387 OA
ATOM     25  H   UNL     1     -17.615   0.482  22.054  0.00  0.00    +0.210 HD
ENDBRANCH  10   3
ENDBRANCH   5   9
TORSDOF 3
ENDMDL
MODEL 3
REMARK VINA RESULT:      -7.0     27.824     29.435
REMARK  Name = 11884352
REMARK  3 active torsions:
REMARK  status: ('A' for Active; 'I' for Inactive)
REMARK    1  A    between atoms: O_3  and  C_10
REMARK    2  A    between atoms: N_5  and  C_9
REMARK    3  A    between atoms: N_6  and  C_14
REMARK                            x       y       z     vdW  Elec       q    Type
REMARK                         _______ _______ _______ _____ _____    ______ ____
ROOT
ATOM      4  O   UNL     1      -5.153 -12.693  15.658  0.00  0.00    -0.252 OA
ATOM      5  N   UNL     1      -5.256 -11.102  17.333  0.00  0.00    -0.292 N 
ATOM      6  N   UNL     1      -4.287 -10.535  15.328  0.00  0.00    -0.269 N 
ATOM     13  C   UNL     1      -4.915 -11.553  16.052  0.00  0.00    +0.304 C 
ATOM     24  H   UNL     1      -4.976 -10.165  17.605  0.00  0.00    +0.151 HD
ATOM     26  H   UNL     1      -4.012  -9.734  15.884  0.00  0.00    +0.156 HD
ENDROOT
BRANCH   6  14
ATOM     14  C   UNL     1      -3.793 -10.590  14.003  0.00  0.00    +0.042 A 
ATOM     15  C   UNL     1      -4.560 -10.144  12.925  0.00  0.00    +0.003 A 
ATOM     16  C   UNL     1      -4.013 -10.224  11.621  0.00  0.00    -0.016 A 
ATOM     17  C   UNL     1      -2.516 -11.107  13.827  0.00  0.00    +0.024 A 
ATOM     18  C   UNL     1      -5.851  -9.619  13.096  0.00  0.00    +0.010 A 
ATOM     19  C   UNL     1      -2.721 -10.747  11.449  0.00  0.00    +0.008 A 
ATOM     20  C   UNL     1      -1.979 -11.186  12.546  0.00  0.00    +0.002 A 
ATOM     21  C   UNL     1      -4.774  -9.777  10.529  0.00  0.00    +0.008 A 
ATOM     22  C   UNL     1      -6.593  -9.181  11.999  0.00  0.00    +0.001 A 
ATOM     23  C   UNL     1      -6.056  -9.259  10.718  0.00  0.00    +0.001 A 
ENDBRANCH   6  14
BRANCH   5   9
ATOM      1  O   UNL     1      -6.927 -10.437  19.880  0.00  0.00    -0.369 OA
ATOM      2  O   UNL     1      -8.012 -13.081  18.799  0.00  0.00    -0.369 OA
ATOM      7  C   UNL     1      -7.427 -11.946  18.123  0.00  0.00    +0.172 C 
ATOM      8  C   UNL     1      -7.903 -10.708  18.860  0.00  0.00    +0.179 C 
ATOM      9  C   UNL     1      -5.928 -11.941  18.324  0.00  0.00    +0.131 C 
ATOM     10  C   UNL     1      -9.215 -11.164  19.450  0.00  0.00    +0.171 C 
ATOM     11  C   UNL     1      -5.801 -11.311  19.704  0.00  0.00    +0.185 C 
ATOM     12  C   UNL     1      -8.924 -12.607  19.800  0.00  0.00    +0.194 C 
BRANCH  10   3
ATOM      3  O   UNL     1      -9.617 -10.416  20.575  0.00  0.00    -0.387 OA
ATOM     25  H   UNL     1     -10.297 -10.928  21.048  0.00  0.00    +0.210 HD
ENDBRANCH  10   3
ENDBRANCH   5   9
TORSDOF 3
ENDMDL
MODEL 4
REMARK VINA RESULT:      -6.9      4.840      7.642
REMARK  Name = 11884352
REMARK  3 active torsions:
REMARK  status: ('A' for Active; 'I' for Inactive)
REMARK    1  A    between atoms: O_3  and  C_10
REMARK    2  A    between atoms: N_5  and  C_9
REMARK    3  A    between atoms: N_6  and  C_14
REMARK                            x       y       z     vdW  Elec       q    Type
REMARK                         _______ _______ _______ _____ _____    ______ ____
ROOT
ATOM      4  O   UNL     1      14.278  10.686  22.388  0.00  0.00    -0.252 OA
ATOM      5  N   UNL     1      12.667   9.052  22.100  0.00  0.00    -0.292 N 
ATOM      6  N   UNL     1      12.293  10.714  23.642  0.00  0.00    -0.269 N 
ATOM     13  C   UNL     1      13.186  10.211  22.692  0.00  0.00    +0.304 C 
ATOM     24  H   UNL     1      11.784   8.689  22.443  0.00  0.00    +0.151 HD
ATOM     26  H   UNL     1      11.538  10.083  23.884  0.00  0.00    +0.156 HD
ENDROOT
BRANCH   6  14
ATOM     14  C   UNL     1      12.445  11.864  24.453  0.00  0.00    +0.042 A 
ATOM     15  C   UNL     1      11.592  12.962  24.322  0.00  0.00    +0.003 A 
ATOM     16  C   UNL     1      11.794  14.084  25.161  0.00  0.00    -0.016 A 
ATOM     17  C   UNL     1      13.479  11.848  25.381  0.00  0.00    +0.024 A 
ATOM     18  C   UNL     1      10.545  12.983  23.386  0.00  0.00    +0.010 A 
ATOM     19  C   UNL     1      12.840  14.063  26.097  0.00  0.00    +0.008 A 
ATOM     20  C   UNL     1      13.676  12.951  26.205  0.00  0.00    +0.002 A 
ATOM     21  C   UNL     1      10.942  15.194  25.039  0.00  0.00    +0.008 A 
ATOM     22  C   UNL     1       9.709  14.095  23.278  0.00  0.00    +0.001 A 
ATOM     23  C   UNL     1       9.907  15.198  24.103  0.00  0.00    +0.001 A 
ENDBRANCH   6  14
BRANCH   5   9
ATOM      1  O   UNL     1      11.689   7.135  19.844  0.00  0.00    -0.369 OA
ATOM      2  O   UNL     1      14.243   8.455  18.811  0.00  0.00    -0.369 OA
ATOM      7  C   UNL     1      13.218   8.939  19.706  0.00  0.00    +0.172 C 
ATOM      8  C   UNL     1      11.899   8.398  19.190  0.00  0.00    +0.179 C 
ATOM      9  C   UNL     1      13.373   8.297  21.067  0.00  0.00    +0.131 C 
ATOM     10  C   UNL     1      12.172   8.224  17.716  0.00  0.00    +0.171 C 
ATOM     11  C   UNL     1      12.693   6.951  20.855  0.00  0.00    +0.185 C 
ATOM     12  C   UNL     1      13.618   7.782  17.709  0.00  0.00    +0.194 C 
BRANCH  10   3
ATOM      3  O   UNL     1      11.327   7.283  17.093  0.00  0.00    -0.387 OA
ATOM     25  H   UNL     1      10.464   7.311  17.542  0.00  0.00    +0.210 HD
ENDBRANCH  10   3
ENDBRANCH   5   9
TORSDOF 3
ENDMDL
MODEL 5
REMARK VINA RESULT:      -6.9      5.554      7.467
REMARK  Name = 11884352
REMARK  3 active torsions:
REMARK  status: ('A' for Active; 'I' for Inactive)
REMARK    1  A    between atoms: O_3  and  C_10
REMARK    2  A    between atoms: N_5  and  C_9
REMARK    3  A    between atoms: N_6  and  C_14
REMARK                            x       y       z     vdW  Elec       q    Type
REMARK                         _______ _______ _______ _____ _____    ______ ____
ROOT
ATOM      4  O   UNL     1      12.798   9.086  15.163  0.00  0.00    -0.252 OA
ATOM      5  N   UNL     1      12.725   9.889  17.331  0.00  0.00    -0.292 N 
ATOM      6  N   UNL     1      13.497  11.271  15.665  0.00  0.00    -0.269 N 
ATOM     13  C   UNL     1      12.993  10.001  15.961  0.00  0.00    +0.304 C 
ATOM     24  H   UNL     1      12.965  10.669  17.935  0.00  0.00    +0.151 HD
ATOM     26  H   UNL     1      13.763  11.816  16.477  0.00  0.00    +0.156 HD
ENDROOT
BRANCH   6  14
ATOM     14  C   UNL     1      13.888  11.778  14.403  0.00  0.00    +0.042 A 
ATOM     15  C   UNL     1      15.236  11.937  14.073  0.00  0.00    +0.003 A 
ATOM     16  C   UNL     1      15.567  12.449  12.795  0.00  0.00    -0.016 A 
ATOM     17  C   UNL     1      12.874  12.109  13.514  0.00  0.00    +0.024 A 
ATOM     18  C   UNL     1      16.266  11.603  14.967  0.00  0.00    +0.010 A 
ATOM     19  C   UNL     1      14.538  12.782  11.900  0.00  0.00    +0.008 A 
ATOM     20  C   UNL     1      13.200  12.612  12.259  0.00  0.00    +0.002 A 
ATOM     21  C   UNL     1      16.919  12.613  12.450  0.00  0.00    +0.008 A 
ATOM     22  C   UNL     1      17.603  11.773  14.608  0.00  0.00    +0.001 A 
ATOM     23  C   UNL     1      17.929  12.277  13.352  0.00  0.00    +0.001 A 
ENDBRANCH   6  14
BRANCH   5   9
ATOM      1  O   UNL     1      13.968   7.756  19.235  0.00  0.00    -0.369 OA
ATOM      2  O   UNL     1      10.983   7.859  19.881  0.00  0.00    -0.369 OA
ATOM      7  C   UNL     1      11.891   8.881  19.414  0.00  0.00    +0.172 C 
ATOM      8  C   UNL     1      13.220   8.630  20.098  0.00  0.00    +0.179 C 
ATOM      9  C   UNL     1      12.188   8.676  17.944  0.00  0.00    +0.131 C 
ATOM     10  C   UNL     1      12.805   7.934  21.372  0.00  0.00    +0.171 C 
ATOM     11  C   UNL     1      13.265   7.601  17.992  0.00  0.00    +0.185 C 
ATOM     12  C   UNL     1      11.631   7.098  20.911  0.00  0.00    +0.194 C 
BRANCH  10   3
ATOM      3  O   UNL     1      13.825   7.147  21.942  0.00  0.00    -0.387 OA
ATOM     25  H   UNL     1      13.406   6.397  22.400  0.00  0.00    +0.210 HD
ENDBRANCH  10   3
ENDBRANCH   5   9
TORSDOF 3
ENDMDL
MODEL 6
REMARK VINA RESULT:      -6.8     16.557     19.388
REMARK  Name = 11884352
REMARK  3 active torsions:
REMARK  status: ('A' for Active; 'I' for Inactive)
REMARK    1  A    between atoms: O_3  and  C_10
REMARK    2  A    between atoms: N_5  and  C_9
REMARK    3  A    between atoms: N_6  and  C_14
REMARK                            x       y       z     vdW  Elec       q    Type
REMARK                         _______ _______ _______ _____ _____    ______ ____
ROOT
ATOM      4  O   UNL     1      12.367   6.829   3.682  0.00  0.00    -0.252 OA
ATOM      5  N   UNL     1      11.931   4.783   2.696  0.00  0.00    -0.292 N 
ATOM      6  N   UNL     1      10.479   5.573   4.292  0.00  0.00    -0.269 N 
ATOM     13  C   UNL     1      11.653   5.834   3.579  0.00  0.00    +0.304 C 
ATOM     24  H   UNL     1      11.325   3.969   2.709  0.00  0.00    +0.151 HD
ATOM     26  H   UNL     1      10.139   4.623   4.207  0.00  0.00    +0.156 HD
ENDROOT
BRANCH   6  14
ATOM     14  C   UNL     1       9.863   6.383   5.275  0.00  0.00    +0.042 A 
ATOM     15  C   UNL     1       9.673   5.922   6.580  0.00  0.00    +0.003 A 
ATOM     16  C   UNL     1       9.049   6.777   7.520  0.00  0.00    -0.016 A 
ATOM     17  C   UNL     1       9.455   7.651   4.882  0.00  0.00    +0.024 A 
ATOM     18  C   UNL     1      10.083   4.641   6.984  0.00  0.00    +0.010 A 
ATOM     19  C   UNL     1       8.640   8.059   7.117  0.00  0.00    +0.008 A 
ATOM     20  C   UNL     1       8.843   8.492   5.807  0.00  0.00    +0.002 A 
ATOM     21  C   UNL     1       8.854   6.325   8.836  0.00  0.00    +0.008 A 
ATOM     22  C   UNL     1       9.880   4.208   8.294  0.00  0.00    +0.001 A 
ATOM     23  C   UNL     1       9.267   5.049   9.218  0.00  0.00    +0.001 A 
ENDBRANCH   6  14
BRANCH   5   9
ATOM      1  O   UNL     1      12.775   2.916   0.346  0.00  0.00    -0.369 OA
ATOM      2  O   UNL     1      13.956   5.667  -0.266  0.00  0.00    -0.369 OA
ATOM      7  C   UNL     1      12.751   5.283   0.432  0.00  0.00    +0.172 C 
ATOM      8  C   UNL     1      12.197   4.070  -0.289  0.00  0.00    +0.179 C 
ATOM      9  C   UNL     1      13.095   4.768   1.812  0.00  0.00    +0.131 C 
ATOM     10  C   UNL     1      12.722   4.256  -1.692  0.00  0.00    +0.171 C 
ATOM     11  C   UNL     1      13.499   3.330   1.515  0.00  0.00    +0.185 C 
ATOM     12  C   UNL     1      14.088   4.859  -1.445  0.00  0.00    +0.194 C 
BRANCH  10   3
ATOM      3  O   UNL     1      12.797   3.057  -2.429  0.00  0.00    -0.387 OA
ATOM     25  H   UNL     1      11.952   2.586  -2.322  0.00  0.00    +0.210 HD
ENDBRANCH  10   3
ENDBRANCH   5   9
TORSDOF 3
ENDMDL
MODEL 7
REMARK VINA RESULT:      -6.7     32.249     33.053
REMARK  Name = 11884352
REMARK  3 active torsions:
REMARK  status: ('A' for Active; 'I' for Inactive)
REMARK    1  A    between atoms: O_3  and  C_10
REMARK    2  A    between atoms: N_5  and  C_9
REMARK    3  A    between atoms: N_6  and  C_14
REMARK                            x       y       z     vdW  Elec       q    Type
REMARK                         _______ _______ _______ _____ _____    ______ ____
ROOT
ATOM      4  O   UNL     1     -16.945   2.177  27.915  0.00  0.00    -0.252 OA
ATOM      5  N   UNL     1     -15.745   3.612  26.556  0.00  0.00    -0.292 N 
ATOM      6  N   UNL     1     -14.981   3.208  28.685  0.00  0.00    -0.269 N 
ATOM     13  C   UNL     1     -15.981   2.921  27.751  0.00  0.00    +0.304 C 
ATOM     24  H   UNL     1     -14.959   4.252  26.515  0.00  0.00    +0.151 HD
ATOM     26  H   UNL     1     -14.382   3.985  28.433  0.00  0.00    +0.156 HD
ENDROOT
BRANCH   6  14
ATOM     14  C   UNL     1     -14.858   2.713  30.005  0.00  0.00    +0.042 A 
ATOM     15  C   UNL     1     -15.042   3.546  31.111  0.00  0.00    +0.003 A 
ATOM     16  C   UNL     1     -14.905   2.994  32.407  0.00  0.00    -0.016 A 
ATOM     17  C   UNL     1     -14.547   1.367  30.147  0.00  0.00    +0.024 A 
ATOM     18  C   UNL     1     -15.357   4.907  30.974  0.00  0.00    +0.010 A 
ATOM     19  C   UNL     1     -14.591   1.633  32.546  0.00  0.00    +0.008 A 
ATOM     20  C   UNL     1     -14.413   0.825  31.422  0.00  0.00    +0.002 A 
ATOM     21  C   UNL     1     -15.088   3.822  33.528  0.00  0.00    +0.008 A 
ATOM     22  C   UNL     1     -15.534   5.714  32.097  0.00  0.00    +0.001 A 
ATOM     23  C   UNL     1     -15.401   5.172  33.372  0.00  0.00    +0.001 A 
ENDBRANCH   6  14
BRANCH   5   9
ATOM      1  O   UNL     1     -16.936   5.748  24.622  0.00  0.00    -0.369 OA
ATOM      2  O   UNL     1     -16.612   3.187  22.988  0.00  0.00    -0.369 OA
ATOM      7  C   UNL     1     -15.851   3.708  24.100  0.00  0.00    +0.172 C 
ATOM      8  C   UNL     1     -15.799   5.213  23.925  0.00  0.00    +0.179 C 
ATOM      9  C   UNL     1     -16.620   3.514  25.389  0.00  0.00    +0.131 C 
ATOM     10  C   UNL     1     -15.936   5.372  22.430  0.00  0.00    +0.171 C 
ATOM     11  C   UNL     1     -17.578   4.697  25.361  0.00  0.00    +0.185 C 
ATOM     12  C   UNL     1     -16.897   4.259  22.077  0.00  0.00    +0.194 C 
BRANCH  10   3
ATOM      3  O   UNL     1     -16.423   6.636  22.040  0.00  0.00    -0.387 OA
ATOM     25  H   UNL     1     -17.097   6.910  22.686  0.00  0.00    +0.210 HD
ENDBRANCH  10   3
ENDBRANCH   5   9
TORSDOF 3
ENDMDL
MODEL 8
REMARK VINA RESULT:      -6.7      4.898      7.296
REMARK  Name = 11884352
REMARK  3 active torsions:
REMARK  status: ('A' for Active; 'I' for Inactive)
REMARK    1  A    between atoms: O_3  and  C_10
REMARK    2  A    between atoms: N_5  and  C_9
REMARK    3  A    between atoms: N_6  and  C_14
REMARK                            x       y       z     vdW  Elec       q    Type
REMARK                         _______ _______ _______ _____ _____    ______ ____
ROOT
ATOM      4  O   UNL     1      13.649  11.332  22.155  0.00  0.00    -0.252 OA
ATOM      5  N   UNL     1      12.906   9.149  22.332  0.00  0.00    -0.292 N 
ATOM      6  N   UNL     1      12.038  10.732  23.754  0.00  0.00    -0.269 N 
ATOM     13  C   UNL     1      12.930  10.500  22.703  0.00  0.00    +0.304 C 
ATOM     24  H   UNL     1      12.328   8.511  22.869  0.00  0.00    +0.151 HD
ATOM     26  H   UNL     1      11.680   9.891  24.193  0.00  0.00    +0.156 HD
ENDROOT
BRANCH   6  14
ATOM     14  C   UNL     1      11.770  11.956  24.411  0.00  0.00    +0.042 A 
ATOM     15  C   UNL     1      12.650  12.476  25.362  0.00  0.00    +0.003 A 
ATOM     16  C   UNL     1      12.328  13.705  25.987  0.00  0.00    -0.016 A 
ATOM     17  C   UNL     1      10.595  12.611  24.068  0.00  0.00    +0.024 A 
ATOM     18  C   UNL     1      13.841  11.819  25.714  0.00  0.00    +0.010 A 
ATOM     19  C   UNL     1      11.139  14.363  25.636  0.00  0.00    +0.008 A 
ATOM     20  C   UNL     1      10.279  13.819  24.682  0.00  0.00    +0.002 A 
ATOM     21  C   UNL     1      13.206  14.239  26.945  0.00  0.00    +0.008 A 
ATOM     22  C   UNL     1      14.700  12.363  26.667  0.00  0.00    +0.001 A 
ATOM     23  C   UNL     1      14.384  13.571  27.282  0.00  0.00    +0.001 A 
ENDBRANCH   6  14
BRANCH   5   9
ATOM      1  O   UNL     1      12.394   6.943  20.189  0.00  0.00    -0.369 OA
ATOM      2  O   UNL     1      14.355   8.925  18.939  0.00  0.00    -0.369 OA
ATOM      7  C   UNL     1      13.296   9.115  19.903  0.00  0.00    +0.172 C 
ATOM      8  C   UNL     1      12.168   8.185  19.501  0.00  0.00    +0.179 C 
ATOM      9  C   UNL     1      13.732   8.600  21.258  0.00  0.00    +0.131 C 
ATOM     10  C   UNL     1      12.378   8.044  18.012  0.00  0.00    +0.171 C 
ATOM     11  C   UNL     1      13.475   7.106  21.121  0.00  0.00    +0.185 C 
ATOM     12  C   UNL     1      13.886   8.054  17.900  0.00  0.00    +0.194 C 
BRANCH  10   3
ATOM      3  O   UNL     1      11.813   6.871  17.473  0.00  0.00    -0.387 OA
ATOM     25  H   UNL     1      10.876   6.841  17.735  0.00  0.00    +0.210 HD
ENDBRANCH  10   3
ENDBRANCH   5   9
TORSDOF 3
ENDMDL
MODEL 9
REMARK VINA RESULT:      -6.7     12.327     14.775
REMARK  Name = 11884352
REMARK  3 active torsions:
REMARK  status: ('A' for Active; 'I' for Inactive)
REMARK    1  A    between atoms: O_3  and  C_10
REMARK    2  A    between atoms: N_5  and  C_9
REMARK    3  A    between atoms: N_6  and  C_14
REMARK                            x       y       z     vdW  Elec       q    Type
REMARK                         _______ _______ _______ _____ _____    ______ ____
ROOT
ATOM      4  O   UNL     1      11.151  10.068   8.222  0.00  0.00    -0.252 OA
ATOM      5  N   UNL     1       9.172  10.963   9.017  0.00  0.00    -0.292 N 
ATOM      6  N   UNL     1       9.095   9.015   7.800  0.00  0.00    -0.269 N 
ATOM     13  C   UNL     1       9.928  10.007   8.327  0.00  0.00    +0.304 C 
ATOM     24  H   UNL     1       8.161  10.874   9.012  0.00  0.00    +0.151 HD
ATOM     26  H   UNL     1       8.107   9.239   7.828  0.00  0.00    +0.156 HD
ENDROOT
BRANCH   6  14
ATOM     14  C   UNL     1       9.469   7.881   7.041  0.00  0.00    +0.042 A 
ATOM     15  C   UNL     1       9.499   6.606   7.610  0.00  0.00    +0.003 A 
ATOM     16  C   UNL     1       9.882   5.509   6.802  0.00  0.00    -0.016 A 
ATOM     17  C   UNL     1       9.804   8.095   5.710  0.00  0.00    +0.024 A 
ATOM     18  C   UNL     1       9.161   6.383   8.955  0.00  0.00    +0.010 A 
ATOM     19  C   UNL     1      10.219   5.731   5.457  0.00  0.00    +0.008 A 
ATOM     20  C   UNL     1      10.180   7.016   4.916  0.00  0.00    +0.002 A 
ATOM     21  C   UNL     1       9.915   4.221   7.363  0.00  0.00    +0.008 A 
ATOM     22  C   UNL     1       9.201   5.098   9.495  0.00  0.00    +0.001 A 
ATOM     23  C   UNL     1       9.577   4.019   8.701  0.00  0.00    +0.001 A 
ENDBRANCH   6  14
BRANCH   5   9
ATOM      1  O   UNL     1       8.056  13.010  11.086  0.00  0.00    -0.369 OA
ATOM      2  O   UNL     1      11.057  12.793  11.616  0.00  0.00    -0.369 OA
ATOM      7  C   UNL     1      10.106  11.824  11.123  0.00  0.00    +0.172 C 
ATOM      8  C   UNL     1       8.809  12.068  11.869  0.00  0.00    +0.179 C 
ATOM      9  C   UNL     1       9.764  12.123   9.680  0.00  0.00    +0.131 C 
ATOM     10  C   UNL     1       9.287  12.677  13.165  0.00  0.00    +0.171 C 
ATOM     11  C   UNL     1       8.719  13.221   9.830  0.00  0.00    +0.185 C 
ATOM     12  C   UNL     1      10.466  13.508  12.711  0.00  0.00    +0.194 C 
BRANCH  10   3
ATOM      3  O   UNL     1       8.309  13.455  13.817  0.00  0.00    -0.387 OA
ATOM     25  H   UNL     1       8.726  13.875  14.590  0.00  0.00    +0.210 HD
ENDBRANCH  10   3
ENDBRANCH   5   9
TORSDOF 3
ENDMDL
MODEL 10
REMARK VINA RESULT:      -6.6     17.195     19.399
REMARK  Name = 11884352
REMARK  3 active torsions:
REMARK  status: ('A' for Active; 'I' for Inactive)
REMARK    1  A    between atoms: O_3  and  C_10
REMARK    2  A    between atoms: N_5  and  C_9
REMARK    3  A    between atoms: N_6  and  C_14
REMARK                            x       y       z     vdW  Elec       q    Type
REMARK                         _______ _______ _______ _____ _____    ______ ____
ROOT
ATOM      4  O   UNL     1      12.236   6.722   2.516  0.00  0.00    -0.252 OA
ATOM      5  N   UNL     1      11.154   5.304   3.989  0.00  0.00    -0.292 N 
ATOM      6  N   UNL     1      12.502   4.394   2.366  0.00  0.00    -0.269 N 
ATOM     13  C   UNL     1      11.998   5.580   2.905  0.00  0.00    +0.304 C 
ATOM     24  H   UNL     1      10.961   4.334   4.215  0.00  0.00    +0.151 HD
ATOM     26  H   UNL     1      12.044   3.553   2.699  0.00  0.00    +0.156 HD
ENDROOT
BRANCH   6  14
ATOM     14  C   UNL     1      13.383   4.244   1.269  0.00  0.00    +0.042 A 
ATOM     15  C   UNL     1      12.900   4.086  -0.032  0.00  0.00    +0.003 A 
ATOM     16  C   UNL     1      13.830   3.940  -1.090  0.00  0.00    -0.016 A 
ATOM     17  C   UNL     1      14.744   4.261   1.546  0.00  0.00    +0.024 A 
ATOM     18  C   UNL     1      11.526   4.068  -0.320  0.00  0.00    +0.010 A 
ATOM     19  C   UNL     1      15.205   3.958  -0.804  0.00  0.00    +0.008 A 
ATOM     20  C   UNL     1      15.657   4.118   0.506  0.00  0.00    +0.002 A 
ATOM     21  C   UNL     1      13.357   3.781  -2.403  0.00  0.00    +0.008 A 
ATOM     22  C   UNL     1      11.074   3.909  -1.629  0.00  0.00    +0.001 A 
ATOM     23  C   UNL     1      11.988   3.765  -2.669  0.00  0.00    +0.001 A 
ENDBRANCH   6  14
BRANCH   5   9
ATOM      1  O   UNL     1       9.125   5.197   6.354  0.00  0.00    -0.369 OA
ATOM      2  O   UNL     1      10.716   7.783   6.694  0.00  0.00    -0.369 OA
ATOM      7  C   UNL     1      11.088   6.505   6.134  0.00  0.00    +0.172 C 
ATOM      8  C   UNL     1      10.399   5.445   6.972  0.00  0.00    +0.179 C 
ATOM      9  C   UNL     1      10.476   6.345   4.760  0.00  0.00    +0.131 C 
ATOM     10  C   UNL     1      10.247   6.133   8.307  0.00  0.00    +0.171 C 
ATOM     11  C   UNL     1       9.061   5.896   5.100  0.00  0.00    +0.185 C 
ATOM     12  C   UNL     1       9.970   7.563   7.900  0.00  0.00    +0.194 C 
BRANCH  10   3
ATOM      3  O   UNL     1       9.213   5.598   9.102  0.00  0.00    -0.387 OA
ATOM     25  H   UNL     1       9.478   4.702   9.375  0.00  0.00    +0.210 HD
ENDBRANCH  10   3
ENDBRANCH   5   9
TORSDOF 3
ENDMDL
