MODEL 1
REMARK VINA RESULT:      -7.4      0.000      0.000
REMARK  Name = 51137874
REMARK  5 active torsions:
REMARK  status: ('A' for Active; 'I' for Inactive)
REMARK    1  A    between atoms: N_5  and  C_14
REMARK    2  A    between atoms: C_9  and  C_13
REMARK    3  A    between atoms: C_14  and  C_15
REMARK    4  A    between atoms: C_20  and  C_27
REMARK    5  A    between atoms: C_26  and  C_28
REMARK                            x       y       z     vdW  Elec       q    Type
REMARK                         _______ _______ _______ _____ _____    ______ ____
ROOT
ATOM      5  N   UNL     1     -14.705   6.354  21.958  0.00  0.00    -0.297 NA
ATOM      9  C   UNL     1     -15.577   4.342  22.788  0.00  0.00    +0.070 C 
ATOM     10  C   UNL     1     -16.712   5.180  22.174  0.00  0.00    +0.028 C 
ATOM     11  C   UNL     1     -14.416   5.329  22.963  0.00  0.00    +0.096 C 
ATOM     12  C   UNL     1     -16.145   6.590  22.064  0.00  0.00    +0.085 C 
ENDROOT
BRANCH   9  13
ATOM      6  N   UNL     1     -15.579   4.122  25.289  0.00  0.00    -0.342 N 
ATOM      7  N   UNL     1     -16.602   2.494  24.174  0.00  0.00    -0.231 NA
ATOM     13  C   UNL     1     -15.938   3.624  24.068  0.00  0.00    +0.113 A 
ATOM     16  C   UNL     1     -16.042   3.258  26.247  0.00  0.00    +0.067 A 
ATOM     17  C   UNL     1     -16.678   2.250  25.527  0.00  0.00    +0.101 A 
ATOM     20  C   UNL     1     -17.274   1.184  26.220  0.00  0.00    +0.064 A 
ATOM     21  C   UNL     1     -15.964   3.271  27.640  0.00  0.00    +0.028 A 
ATOM     22  C   UNL     1     -17.206   1.175  27.619  0.00  0.00    +0.015 A 
ATOM     23  C   UNL     1     -16.563   2.201  28.314  0.00  0.00    +0.003 A 
ATOM     29  H   UNL     1     -15.065   4.977  25.459  0.00  0.00    +0.167 HD
BRANCH  20  27
ATOM      4  O   UNL     1     -19.001  -0.390  25.927  0.00  0.00    -0.270 OA
ATOM      8  N   UNL     1     -17.370  -0.334  24.317  0.00  0.00    -0.325 N 
ATOM     27  C   UNL     1     -17.942   0.111  25.507  0.00  0.00    +0.244 C 
ATOM     30  H   UNL     1     -17.812  -1.079  23.787  0.00  0.00    +0.145 HD
ATOM     31  H   UNL     1     -16.514   0.040  23.926  0.00  0.00    +0.145 HD
ENDBRANCH  20  27
ENDBRANCH   9  13
BRANCH   5  14
ATOM     14  C   UNL     1     -13.929   7.568  22.163  0.00  0.00    +0.119 C 
BRANCH  14  15
ATOM     15  C   UNL     1     -13.053   7.879  20.979  0.00  0.00    -0.033 A 
ATOM     18  C   UNL     1     -12.161   6.920  20.500  0.00  0.00    +0.005 A 
ATOM     19  C   UNL     1     -13.132   9.127  20.362  0.00  0.00    +0.005 A 
ATOM     24  C   UNL     1     -11.349   7.208  19.403  0.00  0.00    +0.012 A 
ATOM     25  C   UNL     1     -12.320   9.416  19.264  0.00  0.00    +0.012 A 
ATOM     26  C   UNL     1     -11.429   8.456  18.786  0.00  0.00    +0.055 A 
BRANCH  26  28
ATOM      1  F   UNL     1      -9.373   9.343  17.946  0.00  0.00    -0.166 F 
ATOM      2  F   UNL     1     -11.155   9.621  16.731  0.00  0.00    -0.166 F 
ATOM      3  F   UNL     1     -10.226   7.661  16.877  0.00  0.00    -0.166 F 
ATOM     28  C   UNL     1     -10.562   8.762  17.611  0.00  0.00    +0.417 C 
ENDBRANCH  26  28
ENDBRANCH  14  15
ENDBRANCH   5  14
TORSDOF 5
ENDMDL
MODEL 2
REMARK VINA RESULT:      -7.3     29.313     32.503
REMARK  Name = 51137874
REMARK  5 active torsions:
REMARK  status: ('A' for Active; 'I' for Inactive)
REMARK    1  A    between atoms: N_5  and  C_14
REMARK    2  A    between atoms: C_9  and  C_13
REMARK    3  A    between atoms: C_14  and  C_15
REMARK    4  A    between atoms: C_20  and  C_27
REMARK    5  A    between atoms: C_26  and  C_28
REMARK                            x       y       z     vdW  Elec       q    Type
REMARK                         _______ _______ _______ _____ _____    ______ ____
ROOT
ATOM      5  N   UNL     1      18.464   7.256  21.452  0.00  0.00    -0.297 NA
ATOM      9  C   UNL     1      16.301   7.475  20.574  0.00  0.00    +0.070 C 
ATOM     10  C   UNL     1      17.035   8.825  20.480  0.00  0.00    +0.028 C 
ATOM     11  C   UNL     1      17.137   6.647  21.559  0.00  0.00    +0.096 C 
ATOM     12  C   UNL     1      18.218   8.697  21.431  0.00  0.00    +0.085 C 
ENDROOT
BRANCH   9  13
ATOM      6  N   UNL     1      14.006   6.497  20.850  0.00  0.00    -0.342 N 
ATOM      7  N   UNL     1      14.229   8.626  21.449  0.00  0.00    -0.231 NA
ATOM     13  C   UNL     1      14.846   7.569  20.969  0.00  0.00    +0.113 A 
ATOM     16  C   UNL     1      12.765   6.888  21.282  0.00  0.00    +0.067 A 
ATOM     17  C   UNL     1      12.929   8.220  21.651  0.00  0.00    +0.101 A 
ATOM     20  C   UNL     1      11.827   8.935  22.147  0.00  0.00    +0.064 A 
ATOM     21  C   UNL     1      11.548   6.211  21.380  0.00  0.00    +0.028 A 
ATOM     22  C   UNL     1      10.595   8.276  22.253  0.00  0.00    +0.015 A 
ATOM     23  C   UNL     1      10.461   6.938  21.876  0.00  0.00    +0.003 A 
ATOM     29  H   UNL     1      14.253   5.579  20.506  0.00  0.00    +0.167 HD
BRANCH  20  27
ATOM      4  O   UNL     1      11.153  11.192  22.141  0.00  0.00    -0.270 OA
ATOM      8  N   UNL     1      12.998  10.667  23.398  0.00  0.00    -0.325 N 
ATOM     27  C   UNL     1      11.955  10.326  22.539  0.00  0.00    +0.244 C 
ATOM     30  H   UNL     1      13.116  11.630  23.699  0.00  0.00    +0.145 HD
ATOM     31  H   UNL     1      13.675  10.005  23.757  0.00  0.00    +0.145 HD
ENDBRANCH  20  27
ENDBRANCH   9  13
BRANCH   5  14
ATOM     14  C   UNL     1      19.346   6.861  22.541  0.00  0.00    +0.119 C 
BRANCH  14  15
ATOM     15  C   UNL     1      20.500   6.026  22.053  0.00  0.00    -0.033 A 
ATOM     18  C   UNL     1      21.578   5.764  22.899  0.00  0.00    +0.005 A 
ATOM     19  C   UNL     1      20.492   5.515  20.756  0.00  0.00    +0.005 A 
ATOM     24  C   UNL     1      22.647   4.991  22.447  0.00  0.00    +0.012 A 
ATOM     25  C   UNL     1      21.561   4.741  20.303  0.00  0.00    +0.012 A 
ATOM     26  C   UNL     1      22.638   4.479  21.150  0.00  0.00    +0.055 A 
BRANCH  26  28
ATOM      1  F   UNL     1      24.301   4.073  19.479  0.00  0.00    -0.166 F 
ATOM      2  F   UNL     1      23.436   2.344  20.474  0.00  0.00    -0.166 F 
ATOM      3  F   UNL     1      24.839   3.624  21.531  0.00  0.00    -0.166 F 
ATOM     28  C   UNL     1      23.781   3.650  20.669  0.00  0.00    +0.417 C 
ENDBRANCH  26  28
ENDBRANCH  14  15
ENDBRANCH   5  14
TORSDOF 5
ENDMDL
MODEL 3
REMARK VINA RESULT:      -7.3     29.658     34.550
REMARK  Name = 51137874
REMARK  5 active torsions:
REMARK  status: ('A' for Active; 'I' for Inactive)
REMARK    1  A    between atoms: N_5  and  C_14
REMARK    2  A    between atoms: C_9  and  C_13
REMARK    3  A    between atoms: C_14  and  C_15
REMARK    4  A    between atoms: C_20  and  C_27
REMARK    5  A    between atoms: C_26  and  C_28
REMARK                            x       y       z     vdW  Elec       q    Type
REMARK                         _______ _______ _______ _____ _____    ______ ____
ROOT
ATOM      5  N   UNL     1      12.058   5.039   2.508  0.00  0.00    -0.297 NA
ATOM      9  C   UNL     1      12.387   3.614   0.675  0.00  0.00    +0.070 C 
ATOM     10  C   UNL     1      13.747   4.129   1.177  0.00  0.00    +0.028 C 
ATOM     11  C   UNL     1      11.355   4.549   1.321  0.00  0.00    +0.096 C 
ATOM     12  C   UNL     1      13.415   5.334   2.048  0.00  0.00    +0.085 C 
ENDROOT
BRANCH   9  13
ATOM      6  N   UNL     1      13.302   3.831  -1.652  0.00  0.00    -0.342 N 
ATOM      7  N   UNL     1      11.177   3.198  -1.504  0.00  0.00    -0.231 NA
ATOM     13  C   UNL     1      12.252   3.536  -0.828  0.00  0.00    +0.113 A 
ATOM     16  C   UNL     1      12.877   3.672  -2.946  0.00  0.00    +0.067 A 
ATOM     17  C   UNL     1      11.547   3.277  -2.827  0.00  0.00    +0.101 A 
ATOM     20  C   UNL     1      10.800   3.025  -3.990  0.00  0.00    +0.064 A 
ATOM     21  C   UNL     1      13.521   3.834  -4.173  0.00  0.00    +0.028 A 
ATOM     22  C   UNL     1      11.426   3.182  -5.233  0.00  0.00    +0.015 A 
ATOM     23  C   UNL     1      12.762   3.579  -5.321  0.00  0.00    +0.003 A 
ATOM     29  H   UNL     1      14.229   4.115  -1.363  0.00  0.00    +0.167 HD
BRANCH  20  27
ATOM      4  O   UNL     1       9.085   1.499  -3.466  0.00  0.00    -0.270 OA
ATOM      8  N   UNL     1       8.440   3.522  -4.330  0.00  0.00    -0.325 N 
ATOM     27  C   UNL     1       9.411   2.615  -3.910  0.00  0.00    +0.244 C 
ATOM     30  H   UNL     1       7.456   3.273  -4.283  0.00  0.00    +0.145 HD
ATOM     31  H   UNL     1       8.646   4.444  -4.694  0.00  0.00    +0.145 HD
ENDBRANCH  20  27
ENDBRANCH   9  13
BRANCH   5  14
ATOM     14  C   UNL     1      11.409   6.200   3.098  0.00  0.00    +0.119 C 
BRANCH  14  15
ATOM     15  C   UNL     1      10.976   5.941   4.516  0.00  0.00    -0.033 A 
ATOM     18  C   UNL     1       9.981   4.999   4.780  0.00  0.00    +0.005 A 
ATOM     19  C   UNL     1      11.570   6.641   5.566  0.00  0.00    +0.005 A 
ATOM     24  C   UNL     1       9.581   4.758   6.094  0.00  0.00    +0.012 A 
ATOM     25  C   UNL     1      11.169   6.400   6.881  0.00  0.00    +0.012 A 
ATOM     26  C   UNL     1      10.174   5.459   7.144  0.00  0.00    +0.055 A 
BRANCH  26  28
ATOM      1  F   UNL     1       8.639   5.904   8.923  0.00  0.00    -0.166 F 
ATOM      2  F   UNL     1      10.711   5.520   9.460  0.00  0.00    -0.166 F 
ATOM      3  F   UNL     1       9.435   3.891   8.793  0.00  0.00    -0.166 F 
ATOM     28  C   UNL     1       9.747   5.198   8.549  0.00  0.00    +0.417 C 
ENDBRANCH  26  28
ENDBRANCH  14  15
ENDBRANCH   5  14
TORSDOF 5
ENDMDL
MODEL 4
REMARK VINA RESULT:      -7.2     17.930     19.271
REMARK  Name = 51137874
REMARK  5 active torsions:
REMARK  status: ('A' for Active; 'I' for Inactive)
REMARK    1  A    between atoms: N_5  and  C_14
REMARK    2  A    between atoms: C_9  and  C_13
REMARK    3  A    between atoms: C_14  and  C_15
REMARK    4  A    between atoms: C_20  and  C_27
REMARK    5  A    between atoms: C_26  and  C_28
REMARK                            x       y       z     vdW  Elec       q    Type
REMARK                         _______ _______ _______ _____ _____    ______ ____
ROOT
ATOM      5  N   UNL     1      -4.269 -11.772  16.385  0.00  0.00    -0.297 NA
ATOM      9  C   UNL     1      -5.775 -10.295  17.412  0.00  0.00    +0.070 C 
ATOM     10  C   UNL     1      -5.497 -11.483  18.350  0.00  0.00    +0.028 C 
ATOM     11  C   UNL     1      -5.268 -10.758  16.039  0.00  0.00    +0.096 C 
ATOM     12  C   UNL     1      -4.882 -12.554  17.458  0.00  0.00    +0.085 C 
ENDROOT
BRANCH   9  13
ATOM      6  N   UNL     1      -7.642  -8.905  16.473  0.00  0.00    -0.342 N 
ATOM      7  N   UNL     1      -8.181 -10.223  18.179  0.00  0.00    -0.231 NA
ATOM     13  C   UNL     1      -7.212  -9.830  17.383  0.00  0.00    +0.113 A 
ATOM     16  C   UNL     1      -8.977  -8.688  16.695  0.00  0.00    +0.067 A 
ATOM     17  C   UNL     1      -9.291  -9.522  17.765  0.00  0.00    +0.101 A 
ATOM     20  C   UNL     1     -10.607  -9.543  18.255  0.00  0.00    +0.064 A 
ATOM     21  C   UNL     1      -9.911  -7.859  16.071  0.00  0.00    +0.028 A 
ATOM     22  C   UNL     1     -11.560  -8.718  17.645  0.00  0.00    +0.015 A 
ATOM     23  C   UNL     1     -11.217  -7.893  16.572  0.00  0.00    +0.003 A 
ATOM     29  H   UNL     1      -7.079  -8.460  15.760  0.00  0.00    +0.167 HD
BRANCH  20  27
ATOM      4  O   UNL     1     -11.799 -11.319  19.242  0.00  0.00    -0.270 OA
ATOM      8  N   UNL     1     -10.357 -10.162  20.598  0.00  0.00    -0.325 N 
ATOM     27  C   UNL     1     -10.974 -10.395  19.371  0.00  0.00    +0.244 C 
ATOM     30  H   UNL     1     -10.583 -10.742  21.401  0.00  0.00    +0.145 HD
ATOM     31  H   UNL     1      -9.675  -9.430  20.759  0.00  0.00    +0.145 HD
ENDBRANCH  20  27
ENDBRANCH   9  13
BRANCH   5  14
ATOM     14  C   UNL     1      -3.894 -12.594  15.245  0.00  0.00    +0.119 C 
BRANCH  14  15
ATOM     15  C   UNL     1      -3.713 -11.773  13.996  0.00  0.00    -0.033 A 
ATOM     18  C   UNL     1      -4.736 -11.706  13.050  0.00  0.00    +0.005 A 
ATOM     19  C   UNL     1      -2.522 -11.078  13.785  0.00  0.00    +0.005 A 
ATOM     24  C   UNL     1      -4.568 -10.944  11.894  0.00  0.00    +0.012 A 
ATOM     25  C   UNL     1      -2.354 -10.316  12.628  0.00  0.00    +0.012 A 
ATOM     26  C   UNL     1      -3.377 -10.250  11.683  0.00  0.00    +0.055 A 
BRANCH  26  28
ATOM      1  F   UNL     1      -3.478 -10.116   9.297  0.00  0.00    -0.166 F 
ATOM      2  F   UNL     1      -1.924  -8.973  10.301  0.00  0.00    -0.166 F 
ATOM      3  F   UNL     1      -3.997  -8.326  10.405  0.00  0.00    -0.166 F 
ATOM     28  C   UNL     1      -3.200  -9.434  10.447  0.00  0.00    +0.417 C 
ENDBRANCH  26  28
ENDBRANCH  14  15
ENDBRANCH   5  14
TORSDOF 5
ENDMDL
MODEL 5
REMARK VINA RESULT:      -7.2     19.502     20.781
REMARK  Name = 51137874
REMARK  5 active torsions:
REMARK  status: ('A' for Active; 'I' for Inactive)
REMARK    1  A    between atoms: N_5  and  C_14
REMARK    2  A    between atoms: C_9  and  C_13
REMARK    3  A    between atoms: C_14  and  C_15
REMARK    4  A    between atoms: C_20  and  C_27
REMARK    5  A    between atoms: C_26  and  C_28
REMARK                            x       y       z     vdW  Elec       q    Type
REMARK                         _______ _______ _______ _____ _____    ______ ____
ROOT
ATOM      5  N   UNL     1      -1.950 -11.041  13.994  0.00  0.00    -0.297 NA
ATOM      9  C   UNL     1      -3.236 -10.113  15.721  0.00  0.00    +0.070 C 
ATOM     10  C   UNL     1      -1.938 -10.699  16.303  0.00  0.00    +0.028 C 
ATOM     11  C   UNL     1      -3.342 -10.723  14.317  0.00  0.00    +0.096 C 
ATOM     12  C   UNL     1      -1.402 -11.624  15.218  0.00  0.00    +0.085 C 
ENDROOT
BRANCH   9  13
ATOM      6  N   UNL     1      -4.475 -11.250  17.584  0.00  0.00    -0.342 N 
ATOM      7  N   UNL     1      -5.635  -9.749  16.425  0.00  0.00    -0.231 NA
ATOM     13  C   UNL     1      -4.471 -10.345  16.559  0.00  0.00    +0.113 A 
ATOM     16  C   UNL     1      -5.724 -11.237  18.150  0.00  0.00    +0.067 A 
ATOM     17  C   UNL     1      -6.430 -10.292  17.410  0.00  0.00    +0.101 A 
ATOM     20  C   UNL     1      -7.771 -10.029  17.735  0.00  0.00    +0.064 A 
ATOM     21  C   UNL     1      -6.280 -11.948  19.214  0.00  0.00    +0.028 A 
ATOM     22  C   UNL     1      -8.350 -10.732  18.799  0.00  0.00    +0.015 A 
ATOM     23  C   UNL     1      -7.617 -11.673  19.524  0.00  0.00    +0.003 A 
ATOM     29  H   UNL     1      -3.697 -11.827  17.876  0.00  0.00    +0.167 HD
BRANCH  20  27
ATOM      4  O   UNL     1      -9.258  -8.212  17.558  0.00  0.00    -0.270 OA
ATOM      8  N   UNL     1      -8.445  -9.078  15.596  0.00  0.00    -0.325 N 
ATOM     27  C   UNL     1      -8.543  -9.055  16.986  0.00  0.00    +0.244 C 
ATOM     30  H   UNL     1      -8.966  -8.407  15.038  0.00  0.00    +0.145 HD
ATOM     31  H   UNL     1      -7.875  -9.736  15.079  0.00  0.00    +0.145 HD
ENDBRANCH  20  27
ENDBRANCH   9  13
BRANCH   5  14
ATOM     14  C   UNL     1      -1.834 -11.938  12.854  0.00  0.00    +0.119 C 
BRANCH  14  15
ATOM     15  C   UNL     1      -2.638 -11.455  11.677  0.00  0.00    -0.033 A 
ATOM     18  C   UNL     1      -2.525 -10.132  11.249  0.00  0.00    +0.005 A 
ATOM     19  C   UNL     1      -3.498 -12.330  11.012  0.00  0.00    +0.005 A 
ATOM     24  C   UNL     1      -3.269  -9.685  10.158  0.00  0.00    +0.012 A 
ATOM     25  C   UNL     1      -4.243 -11.883   9.921  0.00  0.00    +0.012 A 
ATOM     26  C   UNL     1      -4.129 -10.560   9.494  0.00  0.00    +0.055 A 
BRANCH  26  28
ATOM      1  F   UNL     1      -6.271 -10.227   8.485  0.00  0.00    -0.166 F 
ATOM      2  F   UNL     1      -4.615 -10.746   7.174  0.00  0.00    -0.166 F 
ATOM      3  F   UNL     1      -4.738  -8.758   8.045  0.00  0.00    -0.166 F 
ATOM     28  C   UNL     1      -4.923 -10.081   8.326  0.00  0.00    +0.417 C 
ENDBRANCH  26  28
ENDBRANCH  14  15
ENDBRANCH   5  14
TORSDOF 5
ENDMDL
MODEL 6
REMARK VINA RESULT:      -7.2     29.899     34.568
REMARK  Name = 51137874
REMARK  5 active torsions:
REMARK  status: ('A' for Active; 'I' for Inactive)
REMARK    1  A    between atoms: N_5  and  C_14
REMARK    2  A    between atoms: C_9  and  C_13
REMARK    3  A    between atoms: C_14  and  C_15
REMARK    4  A    between atoms: C_20  and  C_27
REMARK    5  A    between atoms: C_26  and  C_28
REMARK                            x       y       z     vdW  Elec       q    Type
REMARK                         _______ _______ _______ _____ _____    ______ ____
ROOT
ATOM      5  N   UNL     1      16.080   8.288   5.205  0.00  0.00    -0.297 NA
ATOM      9  C   UNL     1      13.942   7.345   5.005  0.00  0.00    +0.070 C 
ATOM     10  C   UNL     1      14.132   8.426   3.926  0.00  0.00    +0.028 C 
ATOM     11  C   UNL     1      15.071   7.600   6.013  0.00  0.00    +0.096 C 
ATOM     12  C   UNL     1      15.327   9.245   4.396  0.00  0.00    +0.085 C 
ENDROOT
BRANCH   9  13
ATOM      6  N   UNL     1      11.611   8.225   5.303  0.00  0.00    -0.342 N 
ATOM      7  N   UNL     1      12.152   6.473   6.559  0.00  0.00    -0.231 NA
ATOM     13  C   UNL     1      12.575   7.318   5.645  0.00  0.00    +0.113 A 
ATOM     16  C   UNL     1      10.493   7.949   6.046  0.00  0.00    +0.067 A 
ATOM     17  C   UNL     1      10.854   6.851   6.822  0.00  0.00    +0.101 A 
ATOM     20  C   UNL     1       9.918   6.304   7.714  0.00  0.00    +0.064 A 
ATOM     21  C   UNL     1       9.232   8.545   6.103  0.00  0.00    +0.028 A 
ATOM     22  C   UNL     1       8.647   6.887   7.790  0.00  0.00    +0.015 A 
ATOM     23  C   UNL     1       8.312   7.987   6.998  0.00  0.00    +0.003 A 
ATOM     29  H   UNL     1      11.704   8.969   4.624  0.00  0.00    +0.167 HD
BRANCH  20  27
ATOM      4  O   UNL     1      10.411   5.275   9.774  0.00  0.00    -0.270 OA
ATOM      8  N   UNL     1      10.385   3.922   7.923  0.00  0.00    -0.325 N 
ATOM     27  C   UNL     1      10.256   5.162   8.544  0.00  0.00    +0.244 C 
ATOM     30  H   UNL     1      10.615   3.099   8.472  0.00  0.00    +0.145 HD
ATOM     31  H   UNL     1      10.265   3.771   6.929  0.00  0.00    +0.145 HD
ENDBRANCH  20  27
ENDBRANCH   9  13
BRANCH   5  14
ATOM     14  C   UNL     1      17.099   8.932   6.020  0.00  0.00    +0.119 C 
BRANCH  14  15
ATOM     15  C   UNL     1      18.488   8.520   5.611  0.00  0.00    -0.033 A 
ATOM     18  C   UNL     1      19.522   8.527   6.548  0.00  0.00    +0.005 A 
ATOM     19  C   UNL     1      18.741   8.131   4.296  0.00  0.00    +0.005 A 
ATOM     24  C   UNL     1      20.808   8.145   6.169  0.00  0.00    +0.012 A 
ATOM     25  C   UNL     1      20.029   7.748   3.917  0.00  0.00    +0.012 A 
ATOM     26  C   UNL     1      21.062   7.755   4.853  0.00  0.00    +0.055 A 
BRANCH  26  28
ATOM      1  F   UNL     1      22.820   7.834   3.234  0.00  0.00    -0.166 F 
ATOM      2  F   UNL     1      22.574   5.989   4.359  0.00  0.00    -0.166 F 
ATOM      3  F   UNL     1      23.407   7.752   5.320  0.00  0.00    -0.166 F 
ATOM     28  C   UNL     1      22.437   7.344   4.450  0.00  0.00    +0.417 C 
ENDBRANCH  26  28
ENDBRANCH  14  15
ENDBRANCH   5  14
TORSDOF 5
ENDMDL
MODEL 7
REMARK VINA RESULT:      -7.0     17.701     19.070
REMARK  Name = 51137874
REMARK  5 active torsions:
REMARK  status: ('A' for Active; 'I' for Inactive)
REMARK    1  A    between atoms: N_5  and  C_14
REMARK    2  A    between atoms: C_9  and  C_13
REMARK    3  A    between atoms: C_14  and  C_15
REMARK    4  A    between atoms: C_20  and  C_27
REMARK    5  A    between atoms: C_26  and  C_28
REMARK                            x       y       z     vdW  Elec       q    Type
REMARK                         _______ _______ _______ _____ _____    ______ ____
ROOT
ATOM      5  N   UNL     1      -4.466 -11.384  16.567  0.00  0.00    -0.297 NA
ATOM      9  C   UNL     1      -6.044 -10.156  17.794  0.00  0.00    +0.070 C 
ATOM     10  C   UNL     1      -5.206 -11.021  18.752  0.00  0.00    +0.028 C 
ATOM     11  C   UNL     1      -5.773 -10.745  16.402  0.00  0.00    +0.096 C 
ATOM     12  C   UNL     1      -4.538 -12.061  17.861  0.00  0.00    +0.085 C 
ENDROOT
BRANCH   9  13
ATOM      6  N   UNL     1      -8.049 -10.804  19.157  0.00  0.00    -0.342 N 
ATOM      7  N   UNL     1      -8.424  -9.359  17.510  0.00  0.00    -0.231 NA
ATOM     13  C   UNL     1      -7.515 -10.081  18.127  0.00  0.00    +0.113 A 
ATOM     16  C   UNL     1      -9.391 -10.530  19.210  0.00  0.00    +0.067 A 
ATOM     17  C   UNL     1      -9.602  -9.625  18.172  0.00  0.00    +0.101 A 
ATOM     20  C   UNL     1     -10.897  -9.132  17.945  0.00  0.00    +0.064 A 
ATOM     21  C   UNL     1     -10.409 -10.981  20.050  0.00  0.00    +0.028 A 
ATOM     22  C   UNL     1     -11.935  -9.572  18.776  0.00  0.00    +0.015 A 
ATOM     23  C   UNL     1     -11.693 -10.479  19.810  0.00  0.00    +0.003 A 
ATOM     29  H   UNL     1      -7.546 -11.429  19.772  0.00  0.00    +0.167 HD
BRANCH  20  27
ATOM      4  O   UNL     1     -11.975  -8.445  15.967  0.00  0.00    -0.270 OA
ATOM      8  N   UNL     1     -10.481  -6.973  16.894  0.00  0.00    -0.325 N 
ATOM     27  C   UNL     1     -11.159  -8.190  16.872  0.00  0.00    +0.244 C 
ATOM     30  H   UNL     1     -10.644  -6.287  16.164  0.00  0.00    +0.145 HD
ATOM     31  H   UNL     1      -9.812  -6.711  17.608  0.00  0.00    +0.145 HD
ENDBRANCH  20  27
ENDBRANCH   9  13
BRANCH   5  14
ATOM     14  C   UNL     1      -4.155 -12.299  15.479  0.00  0.00    +0.119 C 
BRANCH  14  15
ATOM     15  C   UNL     1      -3.909 -11.570  14.186  0.00  0.00    -0.033 A 
ATOM     18  C   UNL     1      -4.903 -11.529  13.208  0.00  0.00    +0.005 A 
ATOM     19  C   UNL     1      -2.687 -10.935  13.964  0.00  0.00    +0.005 A 
ATOM     24  C   UNL     1      -4.676 -10.853  12.010  0.00  0.00    +0.012 A 
ATOM     25  C   UNL     1      -2.459 -10.258  12.765  0.00  0.00    +0.012 A 
ATOM     26  C   UNL     1      -3.454 -10.218  11.788  0.00  0.00    +0.055 A 
BRANCH  26  28
ATOM      1  F   UNL     1      -3.475 -10.244   9.397  0.00  0.00    -0.166 F 
ATOM      2  F   UNL     1      -1.919  -9.080  10.373  0.00  0.00    -0.166 F 
ATOM      3  F   UNL     1      -3.973  -8.368  10.364  0.00  0.00    -0.166 F 
ATOM     28  C   UNL     1      -3.213  -9.493  10.507  0.00  0.00    +0.417 C 
ENDBRANCH  26  28
ENDBRANCH  14  15
ENDBRANCH   5  14
TORSDOF 5
ENDMDL
MODEL 8
REMARK VINA RESULT:      -7.0     27.119     30.712
REMARK  Name = 51137874
REMARK  5 active torsions:
REMARK  status: ('A' for Active; 'I' for Inactive)
REMARK    1  A    between atoms: N_5  and  C_14
REMARK    2  A    between atoms: C_9  and  C_13
REMARK    3  A    between atoms: C_14  and  C_15
REMARK    4  A    between atoms: C_20  and  C_27
REMARK    5  A    between atoms: C_26  and  C_28
REMARK                            x       y       z     vdW  Elec       q    Type
REMARK                         _______ _______ _______ _____ _____    ______ ____
ROOT
ATOM      5  N   UNL     1      12.798   8.276  20.280  0.00  0.00    -0.297 NA
ATOM      9  C   UNL     1      15.042   8.113  19.620  0.00  0.00    +0.070 C 
ATOM     10  C   UNL     1      14.178   7.192  18.741  0.00  0.00    +0.028 C 
ATOM     11  C   UNL     1      14.147   8.457  20.818  0.00  0.00    +0.096 C 
ATOM     12  C   UNL     1      12.866   7.042  19.499  0.00  0.00    +0.085 C 
ENDROOT
BRANCH   9  13
ATOM      6  N   UNL     1      16.901   6.442  19.396  0.00  0.00    -0.342 N 
ATOM      7  N   UNL     1      17.165   7.975  20.983  0.00  0.00    -0.231 NA
ATOM     13  C   UNL     1      16.377   7.535  20.027  0.00  0.00    +0.113 A 
ATOM     16  C   UNL     1      18.107   6.158  19.982  0.00  0.00    +0.067 A 
ATOM     17  C   UNL     1      18.250   7.128  20.970  0.00  0.00    +0.101 A 
ATOM     20  C   UNL     1      19.401   7.124  21.775  0.00  0.00    +0.064 A 
ATOM     21  C   UNL     1      19.058   5.165  19.741  0.00  0.00    +0.028 A 
ATOM     22  C   UNL     1      20.369   6.136  21.551  0.00  0.00    +0.015 A 
ATOM     23  C   UNL     1      20.199   5.175  20.551  0.00  0.00    +0.003 A 
ATOM     29  H   UNL     1      16.478   5.933  18.631  0.00  0.00    +0.167 HD
BRANCH  20  27
ATOM      4  O   UNL     1      20.165   7.838  23.885  0.00  0.00    -0.270 OA
ATOM      8  N   UNL     1      19.113   9.404  22.582  0.00  0.00    -0.325 N 
ATOM     27  C   UNL     1      19.587   8.115  22.818  0.00  0.00    +0.244 C 
ATOM     30  H   UNL     1      19.230  10.126  23.286  0.00  0.00    +0.145 HD
ATOM     31  H   UNL     1      18.641   9.687  21.732  0.00  0.00    +0.145 HD
ENDBRANCH  20  27
ENDBRANCH   9  13
BRANCH   5  14
ATOM     14  C   UNL     1      11.787   8.216  21.325  0.00  0.00    +0.119 C 
BRANCH  14  15
ATOM     15  C   UNL     1      11.501   9.574  21.908  0.00  0.00    -0.033 A 
ATOM     18  C   UNL     1      11.017   9.685  23.212  0.00  0.00    +0.005 A 
ATOM     19  C   UNL     1      11.719  10.721  21.145  0.00  0.00    +0.005 A 
ATOM     24  C   UNL     1      10.753  10.944  23.752  0.00  0.00    +0.012 A 
ATOM     25  C   UNL     1      11.455  11.980  21.686  0.00  0.00    +0.012 A 
ATOM     26  C   UNL     1      10.972  12.091  22.989  0.00  0.00    +0.055 A 
BRANCH  26  28
ATOM      1  F   UNL     1       9.661  14.091  22.958  0.00  0.00    -0.166 F 
ATOM      2  F   UNL     1      11.762  14.277  23.485  0.00  0.00    -0.166 F 
ATOM      3  F   UNL     1      10.356  13.402  24.893  0.00  0.00    -0.166 F 
ATOM     28  C   UNL     1      10.692  13.436  23.569  0.00  0.00    +0.417 C 
ENDBRANCH  26  28
ENDBRANCH  14  15
ENDBRANCH   5  14
TORSDOF 5
ENDMDL
MODEL 9
REMARK VINA RESULT:      -6.9     29.339     32.750
REMARK  Name = 51137874
REMARK  5 active torsions:
REMARK  status: ('A' for Active; 'I' for Inactive)
REMARK    1  A    between atoms: N_5  and  C_14
REMARK    2  A    between atoms: C_9  and  C_13
REMARK    3  A    between atoms: C_14  and  C_15
REMARK    4  A    between atoms: C_20  and  C_27
REMARK    5  A    between atoms: C_26  and  C_28
REMARK                            x       y       z     vdW  Elec       q    Type
REMARK                         _______ _______ _______ _____ _____    ______ ____
ROOT
ATOM      5  N   UNL     1      18.279   6.566  21.121  0.00  0.00    -0.297 NA
ATOM      9  C   UNL     1      16.092   6.133  20.393  0.00  0.00    +0.070 C 
ATOM     10  C   UNL     1      17.094   5.658  19.326  0.00  0.00    +0.028 C 
ATOM     11  C   UNL     1      16.911   7.049  21.313  0.00  0.00    +0.096 C 
ATOM     12  C   UNL     1      18.404   6.349  19.680  0.00  0.00    +0.085 C 
ENDROOT
BRANCH   9  13
ATOM      6  N   UNL     1      14.796   7.256  18.561  0.00  0.00    -0.342 N 
ATOM      7  N   UNL     1      13.729   7.020  20.496  0.00  0.00    -0.231 NA
ATOM     13  C   UNL     1      14.851   6.800  19.849  0.00  0.00    +0.113 A 
ATOM     16  C   UNL     1      13.556   7.806  18.364  0.00  0.00    +0.067 A 
ATOM     17  C   UNL     1      12.908   7.647  19.586  0.00  0.00    +0.101 A 
ATOM     20  C   UNL     1      11.591   8.113  19.730  0.00  0.00    +0.064 A 
ATOM     21  C   UNL     1      12.962   8.411  17.256  0.00  0.00    +0.028 A 
ATOM     22  C   UNL     1      10.975   8.724  18.630  0.00  0.00    +0.015 A 
ATOM     23  C   UNL     1      11.650   8.870  17.416  0.00  0.00    +0.003 A 
ATOM     29  H   UNL     1      15.536   7.199  17.874  0.00  0.00    +0.167 HD
BRANCH  20  27
ATOM      4  O   UNL     1      10.550   8.960  21.665  0.00  0.00    -0.270 OA
ATOM      8  N   UNL     1      10.561   6.682  21.411  0.00  0.00    -0.325 N 
ATOM     27  C   UNL     1      10.881   7.970  20.988  0.00  0.00    +0.244 C 
ATOM     30  H   UNL     1      10.059   6.542  22.282  0.00  0.00    +0.145 HD
ATOM     31  H   UNL     1      10.800   5.841  20.898  0.00  0.00    +0.145 HD
ENDBRANCH  20  27
ENDBRANCH   9  13
BRANCH   5  14
ATOM     14  C   UNL     1      19.274   7.498  21.629  0.00  0.00    +0.119 C 
BRANCH  14  15
ATOM     15  C   UNL     1      20.674   6.968  21.469  0.00  0.00    -0.033 A 
ATOM     18  C   UNL     1      21.069   5.823  22.162  0.00  0.00    +0.005 A 
ATOM     19  C   UNL     1      21.575   7.620  20.628  0.00  0.00    +0.005 A 
ATOM     24  C   UNL     1      22.366   5.331  22.012  0.00  0.00    +0.012 A 
ATOM     25  C   UNL     1      22.873   7.128  20.479  0.00  0.00    +0.012 A 
ATOM     26  C   UNL     1      23.267   5.983  21.172  0.00  0.00    +0.055 A 
BRANCH  26  28
ATOM      1  F   UNL     1      25.558   6.027  21.858  0.00  0.00    -0.166 F 
ATOM      2  F   UNL     1      25.148   5.654  19.755  0.00  0.00    -0.166 F 
ATOM      3  F   UNL     1      24.755   4.112  21.236  0.00  0.00    -0.166 F 
ATOM     28  C   UNL     1      24.653   5.455  21.011  0.00  0.00    +0.417 C 
ENDBRANCH  26  28
ENDBRANCH  14  15
ENDBRANCH   5  14
TORSDOF 5
ENDMDL
MODEL 10
REMARK VINA RESULT:      -6.9     29.927     34.620
REMARK  Name = 51137874
REMARK  5 active torsions:
REMARK  status: ('A' for Active; 'I' for Inactive)
REMARK    1  A    between atoms: N_5  and  C_14
REMARK    2  A    between atoms: C_9  and  C_13
REMARK    3  A    between atoms: C_14  and  C_15
REMARK    4  A    between atoms: C_20  and  C_27
REMARK    5  A    between atoms: C_26  and  C_28
REMARK                            x       y       z     vdW  Elec       q    Type
REMARK                         _______ _______ _______ _____ _____    ______ ____
ROOT
ATOM      5  N   UNL     1      16.134   8.497   5.341  0.00  0.00    -0.297 NA
ATOM      9  C   UNL     1      14.020   7.490   5.201  0.00  0.00    +0.070 C 
ATOM     10  C   UNL     1      14.070   8.716   4.272  0.00  0.00    +0.028 C 
ATOM     11  C   UNL     1      15.229   7.659   6.131  0.00  0.00    +0.096 C 
ATOM     12  C   UNL     1      15.275   9.519   4.743  0.00  0.00    +0.085 C 
ENDROOT
BRANCH   9  13
ATOM      6  N   UNL     1      12.544   6.284   6.833  0.00  0.00    -0.342 N 
ATOM      7  N   UNL     1      11.651   8.070   5.858  0.00  0.00    -0.231 NA
ATOM     13  C   UNL     1      12.721   7.312   5.949  0.00  0.00    +0.113 A 
ATOM     16  C   UNL     1      11.277   6.386   7.347  0.00  0.00    +0.067 A 
ATOM     17  C   UNL     1      10.739   7.509   6.723  0.00  0.00    +0.101 A 
ATOM     20  C   UNL     1       9.426   7.901   7.031  0.00  0.00    +0.064 A 
ATOM     21  C   UNL     1      10.576   5.617   8.276  0.00  0.00    +0.028 A 
ATOM     22  C   UNL     1       8.703   7.143   7.960  0.00  0.00    +0.015 A 
ATOM     23  C   UNL     1       9.269   6.022   8.571  0.00  0.00    +0.003 A 
ATOM     29  H   UNL     1      13.225   5.574   7.070  0.00  0.00    +0.167 HD
BRANCH  20  27
ATOM      4  O   UNL     1       7.890   8.951   5.588  0.00  0.00    -0.270 OA
ATOM      8  N   UNL     1       9.321  10.318   6.746  0.00  0.00    -0.325 N 
ATOM     27  C   UNL     1       8.827   9.062   6.400  0.00  0.00    +0.244 C 
ATOM     30  H   UNL     1       8.922  11.154   6.330  0.00  0.00    +0.145 HD
ATOM     31  H   UNL     1      10.076  10.468   7.404  0.00  0.00    +0.145 HD
ENDBRANCH  20  27
ENDBRANCH   9  13
BRANCH   5  14
ATOM     14  C   UNL     1      17.202   9.072   6.145  0.00  0.00    +0.119 C 
BRANCH  14  15
ATOM     15  C   UNL     1      18.559   8.607   5.688  0.00  0.00    -0.033 A 
ATOM     18  C   UNL     1      18.752   8.208   4.366  0.00  0.00    +0.005 A 
ATOM     19  C   UNL     1      19.624   8.576   6.588  0.00  0.00    +0.005 A 
ATOM     24  C   UNL     1      20.009   7.778   3.943  0.00  0.00    +0.012 A 
ATOM     25  C   UNL     1      20.883   8.145   6.165  0.00  0.00    +0.012 A 
ATOM     26  C   UNL     1      21.075   7.747   4.843  0.00  0.00    +0.055 A 
BRANCH  26  28
ATOM      1  F   UNL     1      22.548   5.931   4.342  0.00  0.00    -0.166 F 
ATOM      2  F   UNL     1      23.425   7.724   5.203  0.00  0.00    -0.166 F 
ATOM      3  F   UNL     1      22.750   7.722   3.136  0.00  0.00    -0.166 F 
ATOM     28  C   UNL     1      22.420   7.289   4.389  0.00  0.00    +0.417 C 
ENDBRANCH  26  28
ENDBRANCH  14  15
ENDBRANCH   5  14
TORSDOF 5
ENDMDL
