MODEL 1
REMARK VINA RESULT:      -6.2      0.000      0.000
REMARK  Name = 38028596
REMARK  14 active torsions:
REMARK  status: ('A' for Active; 'I' for Inactive)
REMARK    1  A    between atoms: S_1  and  N_6
REMARK    2  A    between atoms: S_1  and  C_21
REMARK    3  A    between atoms: O_5  and  C_27
REMARK    4  A    between atoms: O_5  and  C_30
REMARK    5  A    between atoms: N_6  and  C_15
REMARK    6  A    between atoms: N_7  and  C_22
REMARK    7  A    between atoms: C_8  and  C_12
REMARK    8  A    between atoms: C_9  and  C_15
REMARK    9  A    between atoms: C_11  and  C_16
REMARK   10  A    between atoms: C_12  and  C_17
REMARK   11  A    between atoms: C_12  and  C_18
REMARK   12  A    between atoms: C_13  and  C_19
REMARK   13  A    between atoms: C_16  and  C_20
REMARK   14  A    between atoms: C_22  and  C_28
REMARK                            x       y       z     vdW  Elec       q    Type
REMARK                         _______ _______ _______ _____ _____    ______ ____
ROOT
ATOM      8  C   UNL     1      15.026   8.486  20.361  0.00  0.00    +0.000 C 
ATOM      9  C   UNL     1      14.624   7.185  19.621  0.00  0.00    +0.030 C 
ATOM     10  C   UNL     1      14.543   8.445  21.819  0.00  0.00    +0.012 C 
ATOM     11  C   UNL     1      13.015   8.276  21.923  0.00  0.00    +0.023 C 
ATOM     13  C   UNL     1      12.507   7.177  21.011  0.00  0.00    -0.073 C 
ATOM     14  C   UNL     1      13.246   6.694  19.996  0.00  0.00    -0.023 C 
ATOM     19  C   UNL     1      11.148   6.615  21.320  0.00  0.00    +0.039 C 
ENDROOT
BRANCH   8  12
ATOM     12  C   UNL     1      16.539   8.719  20.322  0.00  0.00    -0.013 C 
ATOM     17  C   UNL     1      16.873  10.129  20.799  0.00  0.00    +0.007 C 
ATOM     18  C   UNL     1      17.260   7.677  21.170  0.00  0.00    +0.007 C 
ENDBRANCH   8  12
BRANCH   9  15
ATOM     15  C   UNL     1      14.707   7.365  18.102  0.00  0.00    +0.113 C 
BRANCH  15   6
ATOM      6  N   UNL     1      13.347   7.504  17.558  0.00  0.00    -0.189 NA
ATOM     31  H   UNL     1      12.766   6.657  17.541  0.00  0.00    +0.148 HD
BRANCH   6   1
ATOM      1  S   UNL     1      12.998   8.728  16.425  0.00  0.00    +0.058 S 
ATOM      3  O   UNL     1      11.561   8.917  16.354  0.00  0.00    -0.153 OA
ATOM      4  O   UNL     1      13.763   8.488  15.217  0.00  0.00    -0.153 OA
BRANCH   1  21
ATOM     21  C   UNL     1      13.698  10.151  17.205  0.00  0.00    +0.105 A 
ATOM     23  C   UNL     1      13.104  10.682  18.350  0.00  0.00    +0.032 A 
ATOM     24  C   UNL     1      14.843  10.745  16.675  0.00  0.00    +0.032 A 
ATOM     25  C   UNL     1      13.654  11.806  18.964  0.00  0.00    +0.047 A 
ATOM     26  C   UNL     1      15.394  11.869  17.288  0.00  0.00    +0.047 A 
ATOM     27  C   UNL     1      14.799  12.400  18.433  0.00  0.00    +0.120 A 
BRANCH  27   5
ATOM      5  O   UNL     1      15.337  13.498  19.033  0.00  0.00    -0.495 OA
ATOM     30  C   UNL     1      14.442  14.354  19.741  0.00  0.00    +0.277 C 
ENDBRANCH  27   5
ENDBRANCH   1  21
ENDBRANCH   6   1
ENDBRANCH  15   6
ENDBRANCH   9  15
BRANCH  11  16
ATOM     16  C   UNL     1      12.293   9.598  21.645  0.00  0.00    +0.103 C 
BRANCH  16  20
ATOM      2  O   UNL     1      10.157   9.606  22.781  0.00  0.00    -0.276 OA
ATOM      7  N   UNL     1      11.954  10.750  23.712  0.00  0.00    -0.304 N 
ATOM     20  C   UNL     1      11.331   9.964  22.752  0.00  0.00    +0.214 C 
ATOM     32  H   UNL     1      12.936  10.988  23.605  0.00  0.00    +0.150 HD
BRANCH   7  22
ATOM     22  C   UNL     1      11.275  11.249  24.885  0.00  0.00    +0.193 C 
BRANCH  22  28
ATOM     28  C   UNL     1      10.697  12.569  24.638  0.00  0.00    -0.087 C 
ATOM     29  C   UNL     1      10.226  13.655  24.436  0.00  0.00    +0.005 C 
ENDBRANCH  22  28
ENDBRANCH   7  22
ENDBRANCH  16  20
ENDBRANCH  11  16
TORSDOF 10
ENDMDL
MODEL 2
REMARK VINA RESULT:      -6.0      3.555      7.038
REMARK  Name = 38028596
REMARK  14 active torsions:
REMARK  status: ('A' for Active; 'I' for Inactive)
REMARK    1  A    between atoms: S_1  and  N_6
REMARK    2  A    between atoms: S_1  and  C_21
REMARK    3  A    between atoms: O_5  and  C_27
REMARK    4  A    between atoms: O_5  and  C_30
REMARK    5  A    between atoms: N_6  and  C_15
REMARK    6  A    between atoms: N_7  and  C_22
REMARK    7  A    between atoms: C_8  and  C_12
REMARK    8  A    between atoms: C_9  and  C_15
REMARK    9  A    between atoms: C_11  and  C_16
REMARK   10  A    between atoms: C_12  and  C_17
REMARK   11  A    between atoms: C_12  and  C_18
REMARK   12  A    between atoms: C_13  and  C_19
REMARK   13  A    between atoms: C_16  and  C_20
REMARK   14  A    between atoms: C_22  and  C_28
REMARK                            x       y       z     vdW  Elec       q    Type
REMARK                         _______ _______ _______ _____ _____    ______ ____
ROOT
ATOM      8  C   UNL     1      16.064   8.655  21.152  0.00  0.00    +0.000 C 
ATOM      9  C   UNL     1      15.340   7.938  19.984  0.00  0.00    +0.030 C 
ATOM     10  C   UNL     1      17.568   8.766  20.863  0.00  0.00    +0.012 C 
ATOM     11  C   UNL     1      18.225   7.388  20.656  0.00  0.00    +0.023 C 
ATOM     13  C   UNL     1      17.419   6.516  19.714  0.00  0.00    -0.073 C 
ATOM     14  C   UNL     1      16.135   6.785  19.416  0.00  0.00    -0.023 C 
ATOM     19  C   UNL     1      18.135   5.352  19.088  0.00  0.00    +0.039 C 
ENDROOT
BRANCH   8  12
ATOM     12  C   UNL     1      15.481  10.048  21.411  0.00  0.00    -0.013 C 
ATOM     17  C   UNL     1      14.916  10.133  22.826  0.00  0.00    +0.007 C 
ATOM     18  C   UNL     1      16.544  11.119  21.189  0.00  0.00    +0.007 C 
ENDBRANCH   8  12
BRANCH   9  15
ATOM     15  C   UNL     1      13.955   7.442  20.413  0.00  0.00    +0.113 C 
BRANCH  15   6
ATOM      6  N   UNL     1      12.930   8.124  19.608  0.00  0.00    -0.189 NA
ATOM     31  H   UNL     1      13.250   8.885  18.995  0.00  0.00    +0.148 HD
BRANCH   6   1
ATOM      1  S   UNL     1      11.311   8.163  20.136  0.00  0.00    +0.058 S 
ATOM      3  O   UNL     1      11.028   6.963  20.900  0.00  0.00    -0.153 OA
ATOM      4  O   UNL     1      10.457   8.539  19.025  0.00  0.00    -0.153 OA
BRANCH   1  21
ATOM     21  C   UNL     1      11.330   9.530  21.256  0.00  0.00    +0.105 A 
ATOM     23  C   UNL     1      11.845  10.761  20.846  0.00  0.00    +0.032 A 
ATOM     24  C   UNL     1      10.833   9.379  22.551  0.00  0.00    +0.032 A 
ATOM     25  C   UNL     1      11.863  11.839  21.731  0.00  0.00    +0.047 A 
ATOM     26  C   UNL     1      10.851  10.457  23.436  0.00  0.00    +0.047 A 
ATOM     27  C   UNL     1      11.366  11.687  23.025  0.00  0.00    +0.120 A 
BRANCH  27   5
ATOM      5  O   UNL     1      11.383  12.739  23.889  0.00  0.00    -0.495 OA
ATOM     30  C   UNL     1      10.999  12.477  25.238  0.00  0.00    +0.277 C 
ENDBRANCH  27   5
ENDBRANCH   1  21
ENDBRANCH   6   1
ENDBRANCH  15   6
ENDBRANCH   9  15
BRANCH  11  16
ATOM     16  C   UNL     1      18.459   6.680  21.994  0.00  0.00    +0.103 C 
BRANCH  16  20
ATOM      2  O   UNL     1      20.379   6.166  23.373  0.00  0.00    -0.276 OA
ATOM      7  N   UNL     1      20.680   6.613  21.112  0.00  0.00    -0.304 N 
ATOM     20  C   UNL     1      19.928   6.452  22.268  0.00  0.00    +0.214 C 
ATOM     32  H   UNL     1      20.214   6.844  20.239  0.00  0.00    +0.150 HD
BRANCH   7  22
ATOM     22  C   UNL     1      22.116   6.457  21.076  0.00  0.00    +0.193 C 
BRANCH  22  28
ATOM     28  C   UNL     1      22.492   5.044  21.089  0.00  0.00    -0.087 C 
ATOM     29  C   UNL     1      22.803   3.885  21.095  0.00  0.00    +0.005 C 
ENDBRANCH  22  28
ENDBRANCH   7  22
ENDBRANCH  16  20
ENDBRANCH  11  16
TORSDOF 10
ENDMDL
MODEL 3
REMARK VINA RESULT:      -5.8     13.766     17.637
REMARK  Name = 38028596
REMARK  14 active torsions:
REMARK  status: ('A' for Active; 'I' for Inactive)
REMARK    1  A    between atoms: S_1  and  N_6
REMARK    2  A    between atoms: S_1  and  C_21
REMARK    3  A    between atoms: O_5  and  C_27
REMARK    4  A    between atoms: O_5  and  C_30
REMARK    5  A    between atoms: N_6  and  C_15
REMARK    6  A    between atoms: N_7  and  C_22
REMARK    7  A    between atoms: C_8  and  C_12
REMARK    8  A    between atoms: C_9  and  C_15
REMARK    9  A    between atoms: C_11  and  C_16
REMARK   10  A    between atoms: C_12  and  C_17
REMARK   11  A    between atoms: C_12  and  C_18
REMARK   12  A    between atoms: C_13  and  C_19
REMARK   13  A    between atoms: C_16  and  C_20
REMARK   14  A    between atoms: C_22  and  C_28
REMARK                            x       y       z     vdW  Elec       q    Type
REMARK                         _______ _______ _______ _____ _____    ______ ____
ROOT
ATOM      8  C   UNL     1       9.223   8.477   2.759  0.00  0.00    +0.000 C 
ATOM      9  C   UNL     1       8.196   8.171   3.879  0.00  0.00    +0.030 C 
ATOM     10  C   UNL     1       9.605   7.188   2.015  0.00  0.00    +0.012 C 
ATOM     11  C   UNL     1      10.209   6.129   2.956  0.00  0.00    +0.023 C 
ATOM     13  C   UNL     1       9.387   5.962   4.218  0.00  0.00    -0.073 C 
ATOM     14  C   UNL     1       8.483   6.880   4.607  0.00  0.00    -0.023 C 
ATOM     19  C   UNL     1       9.596   4.696   5.000  0.00  0.00    +0.039 C 
ENDROOT
BRANCH   8  12
ATOM     12  C   UNL     1       8.690   9.512   1.765  0.00  0.00    -0.013 C 
ATOM     17  C   UNL     1       9.654  10.689   1.653  0.00  0.00    +0.007 C 
ATOM     18  C   UNL     1       8.460   8.870   0.400  0.00  0.00    +0.007 C 
ENDBRANCH   8  12
BRANCH   9  15
ATOM     15  C   UNL     1       8.120   9.321   4.888  0.00  0.00    +0.113 C 
BRANCH  15   6
ATOM      6  N   UNL     1       9.467   9.880   5.084  0.00  0.00    -0.189 NA
ATOM     31  H   UNL     1      10.150   9.719   4.334  0.00  0.00    +0.148 HD
BRANCH   6   1
ATOM      1  S   UNL     1      10.066  10.140   6.658  0.00  0.00    +0.058 S 
ATOM      3  O   UNL     1       9.074  10.860   7.434  0.00  0.00    -0.153 OA
ATOM      4  O   UNL     1      11.426  10.635   6.572  0.00  0.00    -0.153 OA
BRANCH   1  21
ATOM     21  C   UNL     1      10.156   8.490   7.286  0.00  0.00    +0.105 A 
ATOM     23  C   UNL     1      11.303   7.724   7.073  0.00  0.00    +0.032 A 
ATOM     24  C   UNL     1       9.080   7.952   7.993  0.00  0.00    +0.032 A 
ATOM     25  C   UNL     1      11.373   6.422   7.566  0.00  0.00    +0.047 A 
ATOM     26  C   UNL     1       9.151   6.650   8.486  0.00  0.00    +0.047 A 
ATOM     27  C   UNL     1      10.298   5.884   8.272  0.00  0.00    +0.120 A 
BRANCH  27   5
ATOM      5  O   UNL     1      10.366   4.612   8.753  0.00  0.00    -0.495 OA
ATOM     30  C   UNL     1       9.339   4.204   9.655  0.00  0.00    +0.277 C 
ENDBRANCH  27   5
ENDBRANCH   1  21
ENDBRANCH   6   1
ENDBRANCH  15   6
ENDBRANCH   9  15
BRANCH  11  16
ATOM     16  C   UNL     1      11.668   6.455   3.290  0.00  0.00    +0.103 C 
BRANCH  16  20
ATOM      2  O   UNL     1      13.466   6.327   1.676  0.00  0.00    -0.276 OA
ATOM      7  N   UNL     1      12.448   4.372   2.412  0.00  0.00    -0.304 N 
ATOM     20  C   UNL     1      12.634   5.746   2.367  0.00  0.00    +0.214 C 
ATOM     32  H   UNL     1      11.737   3.982   3.024  0.00  0.00    +0.150 HD
BRANCH   7  22
ATOM     22  C   UNL     1      13.231   3.443   1.630  0.00  0.00    +0.193 C 
BRANCH  22  28
ATOM     28  C   UNL     1      12.779   3.413   0.240  0.00  0.00    -0.087 C 
ATOM     29  C   UNL     1      12.405   3.391  -0.901  0.00  0.00    +0.005 C 
ENDBRANCH  22  28
ENDBRANCH   7  22
ENDBRANCH  16  20
ENDBRANCH  11  16
TORSDOF 10
ENDMDL
MODEL 4
REMARK VINA RESULT:      -5.7      3.922      6.364
REMARK  Name = 38028596
REMARK  14 active torsions:
REMARK  status: ('A' for Active; 'I' for Inactive)
REMARK    1  A    between atoms: S_1  and  N_6
REMARK    2  A    between atoms: S_1  and  C_21
REMARK    3  A    between atoms: O_5  and  C_27
REMARK    4  A    between atoms: O_5  and  C_30
REMARK    5  A    between atoms: N_6  and  C_15
REMARK    6  A    between atoms: N_7  and  C_22
REMARK    7  A    between atoms: C_8  and  C_12
REMARK    8  A    between atoms: C_9  and  C_15
REMARK    9  A    between atoms: C_11  and  C_16
REMARK   10  A    between atoms: C_12  and  C_17
REMARK   11  A    between atoms: C_12  and  C_18
REMARK   12  A    between atoms: C_13  and  C_19
REMARK   13  A    between atoms: C_16  and  C_20
REMARK   14  A    between atoms: C_22  and  C_28
REMARK                            x       y       z     vdW  Elec       q    Type
REMARK                         _______ _______ _______ _____ _____    ______ ____
ROOT
ATOM      8  C   UNL     1      16.697   8.212  21.040  0.00  0.00    +0.000 C 
ATOM      9  C   UNL     1      16.340   7.314  19.829  0.00  0.00    +0.030 C 
ATOM     10  C   UNL     1      18.209   8.481  21.081  0.00  0.00    +0.012 C 
ATOM     11  C   UNL     1      19.030   7.181  21.178  0.00  0.00    +0.023 C 
ATOM     13  C   UNL     1      18.556   6.140  20.184  0.00  0.00    -0.073 C 
ATOM     14  C   UNL     1      17.355   6.224  19.582  0.00  0.00    -0.023 C 
ATOM     19  C   UNL     1      19.510   5.024  19.865  0.00  0.00    +0.039 C 
ENDROOT
BRANCH   8  12
ATOM     12  C   UNL     1      15.934   9.539  21.009  0.00  0.00    -0.013 C 
ATOM     17  C   UNL     1      15.128   9.720  22.292  0.00  0.00    +0.007 C 
ATOM     18  C   UNL     1      16.899  10.703  20.809  0.00  0.00    +0.007 C 
ENDBRANCH   8  12
BRANCH   9  15
ATOM     15  C   UNL     1      14.950   6.691  19.993  0.00  0.00    +0.113 C 
BRANCH  15   6
ATOM      6  N   UNL     1      14.145   6.989  18.798  0.00  0.00    -0.189 NA
ATOM     31  H   UNL     1      14.628   7.444  18.014  0.00  0.00    +0.148 HD
BRANCH   6   1
ATOM      1  S   UNL     1      12.463   7.224  18.934  0.00  0.00    +0.058 S 
ATOM      3  O   UNL     1      11.932   6.313  19.931  0.00  0.00    -0.153 OA
ATOM      4  O   UNL     1      11.881   7.272  17.607  0.00  0.00    -0.153 OA
BRANCH   1  21
ATOM     21  C   UNL     1      12.381   8.862  19.593  0.00  0.00    +0.105 A 
ATOM     23  C   UNL     1      13.033   9.909  18.942  0.00  0.00    +0.032 A 
ATOM     24  C   UNL     1      11.665   9.108  20.765  0.00  0.00    +0.032 A 
ATOM     25  C   UNL     1      12.970  11.201  19.464  0.00  0.00    +0.047 A 
ATOM     26  C   UNL     1      11.602  10.399  21.287  0.00  0.00    +0.047 A 
ATOM     27  C   UNL     1      12.256  11.446  20.636  0.00  0.00    +0.120 A 
BRANCH  27   5
ATOM      5  O   UNL     1      12.194  12.708  21.145  0.00  0.00    -0.495 OA
ATOM     30  C   UNL     1      11.111  12.999  22.027  0.00  0.00    +0.277 C 
ENDBRANCH  27   5
ENDBRANCH   1  21
ENDBRANCH   6   1
ENDBRANCH  15   6
ENDBRANCH   9  15
BRANCH  11  16
ATOM     16  C   UNL     1      19.016   6.624  22.605  0.00  0.00    +0.103 C 
BRANCH  16  20
ATOM      2  O   UNL     1      21.100   5.552  23.207  0.00  0.00    -0.276 OA
ATOM      7  N   UNL     1      20.767   7.789  23.742  0.00  0.00    -0.304 N 
ATOM     20  C   UNL     1      20.403   6.563  23.204  0.00  0.00    +0.214 C 
ATOM     32  H   UNL     1      20.123   8.573  23.684  0.00  0.00    +0.150 HD
BRANCH   7  22
ATOM     22  C   UNL     1      22.040   8.023  24.383  0.00  0.00    +0.193 C 
BRANCH  22  28
ATOM     28  C   UNL     1      22.064   7.454  25.731  0.00  0.00    -0.087 C 
ATOM     29  C   UNL     1      22.080   6.989  26.837  0.00  0.00    +0.005 C 
ENDBRANCH  22  28
ENDBRANCH   7  22
ENDBRANCH  16  20
ENDBRANCH  11  16
TORSDOF 10
ENDMDL
MODEL 5
REMARK VINA RESULT:      -5.5     27.002     28.617
REMARK  Name = 38028596
REMARK  14 active torsions:
REMARK  status: ('A' for Active; 'I' for Inactive)
REMARK    1  A    between atoms: S_1  and  N_6
REMARK    2  A    between atoms: S_1  and  C_21
REMARK    3  A    between atoms: O_5  and  C_27
REMARK    4  A    between atoms: O_5  and  C_30
REMARK    5  A    between atoms: N_6  and  C_15
REMARK    6  A    between atoms: N_7  and  C_22
REMARK    7  A    between atoms: C_8  and  C_12
REMARK    8  A    between atoms: C_9  and  C_15
REMARK    9  A    between atoms: C_11  and  C_16
REMARK   10  A    between atoms: C_12  and  C_17
REMARK   11  A    between atoms: C_12  and  C_18
REMARK   12  A    between atoms: C_13  and  C_19
REMARK   13  A    between atoms: C_16  and  C_20
REMARK   14  A    between atoms: C_22  and  C_28
REMARK                            x       y       z     vdW  Elec       q    Type
REMARK                         _______ _______ _______ _____ _____    ______ ____
ROOT
ATOM      8  C   UNL     1      -5.612 -10.882  17.168  0.00  0.00    +0.000 C 
ATOM      9  C   UNL     1      -4.730 -11.865  16.357  0.00  0.00    +0.030 C 
ATOM     10  C   UNL     1      -7.085 -11.317  17.117  0.00  0.00    +0.012 C 
ATOM     11  C   UNL     1      -7.624 -11.382  15.675  0.00  0.00    +0.023 C 
ATOM     13  C   UNL     1      -6.672 -12.111  14.749  0.00  0.00    -0.073 C 
ATOM     14  C   UNL     1      -5.385 -12.329  15.078  0.00  0.00    -0.023 C 
ATOM     19  C   UNL     1      -7.242 -12.625  13.458  0.00  0.00    +0.039 C 
ENDROOT
BRANCH   8  12
ATOM     12  C   UNL     1      -5.153 -10.775  18.625  0.00  0.00    -0.013 C 
ATOM     17  C   UNL     1      -6.331 -10.425  19.529  0.00  0.00    +0.007 C 
ATOM     18  C   UNL     1      -4.496 -12.076  19.073  0.00  0.00    +0.007 C 
ENDBRANCH   8  12
BRANCH   9  15
ATOM     15  C   UNL     1      -3.365 -11.247  16.037  0.00  0.00    +0.113 C 
BRANCH  15   6
ATOM      6  N   UNL     1      -3.479 -10.433  14.817  0.00  0.00    -0.189 NA
ATOM     31  H   UNL     1      -4.403 -10.037  14.607  0.00  0.00    +0.148 HD
BRANCH   6   1
ATOM      1  S   UNL     1      -2.415 -10.693  13.511  0.00  0.00    +0.058 S 
ATOM      3  O   UNL     1      -2.193 -12.118  13.351  0.00  0.00    -0.153 OA
ATOM      4  O   UNL     1      -1.287  -9.788  13.630  0.00  0.00    -0.153 OA
BRANCH   1  21
ATOM     21  C   UNL     1      -3.382 -10.134  12.142  0.00  0.00    +0.105 A 
ATOM     23  C   UNL     1      -4.764  -9.997  12.273  0.00  0.00    +0.032 A 
ATOM     24  C   UNL     1      -2.764  -9.830  10.928  0.00  0.00    +0.032 A 
ATOM     25  C   UNL     1      -5.528  -9.559  11.192  0.00  0.00    +0.047 A 
ATOM     26  C   UNL     1      -3.527  -9.392   9.847  0.00  0.00    +0.047 A 
ATOM     27  C   UNL     1      -4.910  -9.256   9.979  0.00  0.00    +0.120 A 
BRANCH  27   5
ATOM      5  O   UNL     1      -5.655  -8.828   8.923  0.00  0.00    -0.495 OA
ATOM     30  C   UNL     1      -7.011  -8.472   9.189  0.00  0.00    +0.277 C 
ENDBRANCH  27   5
ENDBRANCH   1  21
ENDBRANCH   6   1
ENDBRANCH  15   6
ENDBRANCH   9  15
BRANCH  11  16
ATOM     16  C   UNL     1      -7.943  -9.981  15.142  0.00  0.00    +0.103 C 
BRANCH  16  20
ATOM      2  O   UNL     1     -10.339  -9.968  15.479  0.00  0.00    -0.276 OA
ATOM      7  N   UNL     1      -9.036  -8.306  16.450  0.00  0.00    -0.304 N 
ATOM     20  C   UNL     1      -9.247  -9.448  15.690  0.00  0.00    +0.214 C 
ATOM     32  H   UNL     1      -8.091  -7.954  16.576  0.00  0.00    +0.150 HD
BRANCH   7  22
ATOM     22  C   UNL     1     -10.105  -7.580  17.098  0.00  0.00    +0.193 C 
BRANCH  22  28
ATOM     28  C   UNL     1     -10.764  -6.668  16.163  0.00  0.00    -0.087 C 
ATOM     29  C   UNL     1     -11.304  -5.917  15.399  0.00  0.00    +0.005 C 
ENDBRANCH  22  28
ENDBRANCH   7  22
ENDBRANCH  16  20
ENDBRANCH  11  16
TORSDOF 10
ENDMDL
MODEL 6
REMARK VINA RESULT:      -5.5     14.875     18.117
REMARK  Name = 38028596
REMARK  14 active torsions:
REMARK  status: ('A' for Active; 'I' for Inactive)
REMARK    1  A    between atoms: S_1  and  N_6
REMARK    2  A    between atoms: S_1  and  C_21
REMARK    3  A    between atoms: O_5  and  C_27
REMARK    4  A    between atoms: O_5  and  C_30
REMARK    5  A    between atoms: N_6  and  C_15
REMARK    6  A    between atoms: N_7  and  C_22
REMARK    7  A    between atoms: C_8  and  C_12
REMARK    8  A    between atoms: C_9  and  C_15
REMARK    9  A    between atoms: C_11  and  C_16
REMARK   10  A    between atoms: C_12  and  C_17
REMARK   11  A    between atoms: C_12  and  C_18
REMARK   12  A    between atoms: C_13  and  C_19
REMARK   13  A    between atoms: C_16  and  C_20
REMARK   14  A    between atoms: C_22  and  C_28
REMARK                            x       y       z     vdW  Elec       q    Type
REMARK                         _______ _______ _______ _____ _____    ______ ____
ROOT
ATOM      8  C   UNL     1      12.903   7.598   2.422  0.00  0.00    +0.000 C 
ATOM      9  C   UNL     1      14.409   7.774   2.741  0.00  0.00    +0.030 C 
ATOM     10  C   UNL     1      12.043   8.252   3.514  0.00  0.00    +0.012 C 
ATOM     11  C   UNL     1      12.320   7.657   4.908  0.00  0.00    +0.023 C 
ATOM     13  C   UNL     1      13.805   7.550   5.190  0.00  0.00    -0.073 C 
ATOM     14  C   UNL     1      14.724   7.617   4.209  0.00  0.00    -0.023 C 
ATOM     19  C   UNL     1      14.213   7.408   6.629  0.00  0.00    +0.039 C 
ENDROOT
BRANCH   8  12
ATOM     12  C   UNL     1      12.539   8.184   1.055  0.00  0.00    -0.013 C 
ATOM     17  C   UNL     1      11.031   8.118   0.832  0.00  0.00    +0.007 C 
ATOM     18  C   UNL     1      13.039   9.620   0.941  0.00  0.00    +0.007 C 
ENDBRANCH   8  12
BRANCH   9  15
ATOM     15  C   UNL     1      15.264   6.797   1.927  0.00  0.00    +0.113 C 
BRANCH  15   6
ATOM      6  N   UNL     1      15.047   5.432   2.432  0.00  0.00    -0.189 NA
ATOM     31  H   UNL     1      15.371   5.233   3.387  0.00  0.00    +0.148 HD
BRANCH   6   1
ATOM      1  S   UNL     1      14.933   4.124   1.346  0.00  0.00    +0.058 S 
ATOM      3  O   UNL     1      14.998   2.879   2.088  0.00  0.00    -0.153 OA
ATOM      4  O   UNL     1      15.829   4.356   0.229  0.00  0.00    -0.153 OA
BRANCH   1  21
ATOM     21  C   UNL     1      13.286   4.309   0.732  0.00  0.00    +0.105 A 
ATOM     23  C   UNL     1      12.198   4.056   1.568  0.00  0.00    +0.032 A 
ATOM     24  C   UNL     1      13.073   4.706  -0.588  0.00  0.00    +0.032 A 
ATOM     25  C   UNL     1      10.898   4.199   1.083  0.00  0.00    +0.047 A 
ATOM     26  C   UNL     1      11.774   4.849  -1.073  0.00  0.00    +0.047 A 
ATOM     27  C   UNL     1      10.686   4.595  -0.237  0.00  0.00    +0.120 A 
BRANCH  27   5
ATOM      5  O   UNL     1       9.417   4.734  -0.711  0.00  0.00    -0.495 OA
ATOM     30  C   UNL     1       9.257   5.451  -1.934  0.00  0.00    +0.277 C 
ENDBRANCH  27   5
ENDBRANCH   1  21
ENDBRANCH   6   1
ENDBRANCH  15   6
ENDBRANCH   9  15
BRANCH  11  16
ATOM     16  C   UNL     1      11.631   6.299   5.076  0.00  0.00    +0.103 C 
BRANCH  16  20
ATOM      2  O   UNL     1       9.234   6.596   5.221  0.00  0.00    -0.276 OA
ATOM      7  N   UNL     1      10.472   6.306   7.167  0.00  0.00    -0.304 N 
ATOM     20  C   UNL     1      10.305   6.420   5.794  0.00  0.00    +0.214 C 
ATOM     32  H   UNL     1      11.401   6.152   7.548  0.00  0.00    +0.150 HD
BRANCH   7  22
ATOM     22  C   UNL     1       9.375   6.385   8.104  0.00  0.00    +0.193 C 
BRANCH  22  28
ATOM     28  C   UNL     1       9.398   5.258   9.036  0.00  0.00    -0.087 C 
ATOM     29  C   UNL     1       9.418   4.335   9.804  0.00  0.00    +0.005 C 
ENDBRANCH  22  28
ENDBRANCH   7  22
ENDBRANCH  16  20
ENDBRANCH  11  16
TORSDOF 10
ENDMDL
MODEL 7
REMARK VINA RESULT:      -5.4     26.686     28.706
REMARK  Name = 38028596
REMARK  14 active torsions:
REMARK  status: ('A' for Active; 'I' for Inactive)
REMARK    1  A    between atoms: S_1  and  N_6
REMARK    2  A    between atoms: S_1  and  C_21
REMARK    3  A    between atoms: O_5  and  C_27
REMARK    4  A    between atoms: O_5  and  C_30
REMARK    5  A    between atoms: N_6  and  C_15
REMARK    6  A    between atoms: N_7  and  C_22
REMARK    7  A    between atoms: C_8  and  C_12
REMARK    8  A    between atoms: C_9  and  C_15
REMARK    9  A    between atoms: C_11  and  C_16
REMARK   10  A    between atoms: C_12  and  C_17
REMARK   11  A    between atoms: C_12  and  C_18
REMARK   12  A    between atoms: C_13  and  C_19
REMARK   13  A    between atoms: C_16  and  C_20
REMARK   14  A    between atoms: C_22  and  C_28
REMARK                            x       y       z     vdW  Elec       q    Type
REMARK                         _______ _______ _______ _____ _____    ______ ____
ROOT
ATOM      8  C   UNL     1      -4.263 -11.650  12.319  0.00  0.00    +0.000 C 
ATOM      9  C   UNL     1      -3.132 -11.042  11.451  0.00  0.00    +0.030 C 
ATOM     10  C   UNL     1      -5.614 -11.534  11.598  0.00  0.00    +0.012 C 
ATOM     11  C   UNL     1      -5.978 -10.071  11.275  0.00  0.00    +0.023 C 
ATOM     13  C   UNL     1      -4.814  -9.324  10.656  0.00  0.00    -0.073 C 
ATOM     14  C   UNL     1      -3.551  -9.781  10.734  0.00  0.00    -0.023 C 
ATOM     19  C   UNL     1      -5.141  -8.064   9.906  0.00  0.00    +0.039 C 
ENDROOT
BRANCH   8  12
ATOM     12  C   UNL     1      -3.987 -13.115  12.669  0.00  0.00    -0.013 C 
ATOM     17  C   UNL     1      -5.180 -13.722  13.400  0.00  0.00    +0.007 C 
ATOM     18  C   UNL     1      -3.664 -13.911  11.408  0.00  0.00    +0.007 C 
ENDBRANCH   8  12
BRANCH   9  15
ATOM     15  C   UNL     1      -1.881 -10.761  12.291  0.00  0.00    +0.113 C 
BRANCH  15   6
ATOM      6  N   UNL     1      -2.286 -10.158  13.570  0.00  0.00    -0.189 NA
ATOM     31  H   UNL     1      -2.486  -9.150  13.565  0.00  0.00    +0.148 HD
BRANCH   6   1
ATOM      1  S   UNL     1      -1.794 -10.859  15.043  0.00  0.00    +0.058 S 
ATOM      3  O   UNL     1      -0.819  -9.997  15.681  0.00  0.00    -0.153 OA
ATOM      4  O   UNL     1      -1.496 -12.262  14.824  0.00  0.00    -0.153 OA
BRANCH   1  21
ATOM     21  C   UNL     1      -3.285 -10.791  15.989  0.00  0.00    +0.105 A 
ATOM     23  C   UNL     1      -3.301 -11.264  17.302  0.00  0.00    +0.032 A 
ATOM     24  C   UNL     1      -4.447 -10.265  15.424  0.00  0.00    +0.032 A 
ATOM     25  C   UNL     1      -4.478 -11.212  18.047  0.00  0.00    +0.047 A 
ATOM     26  C   UNL     1      -5.624 -10.213  16.170  0.00  0.00    +0.047 A 
ATOM     27  C   UNL     1      -5.640 -10.687  17.482  0.00  0.00    +0.120 A 
BRANCH  27   5
ATOM      5  O   UNL     1      -6.789 -10.636  18.210  0.00  0.00    -0.495 OA
ATOM     30  C   UNL     1      -7.827  -9.787  17.724  0.00  0.00    +0.277 C 
ENDBRANCH  27   5
ENDBRANCH   1  21
ENDBRANCH   6   1
ENDBRANCH  15   6
ENDBRANCH   9  15
BRANCH  11  16
ATOM     16  C   UNL     1      -6.497  -9.344  12.520  0.00  0.00    +0.103 C 
BRANCH  16  20
ATOM      2  O   UNL     1      -8.744  -9.899  11.817  0.00  0.00    -0.276 OA
ATOM      7  N   UNL     1      -8.362  -9.235  14.011  0.00  0.00    -0.304 N 
ATOM     20  C   UNL     1      -7.985  -9.532  12.710  0.00  0.00    +0.214 C 
ATOM     32  H   UNL     1      -7.658  -8.946  14.684  0.00  0.00    +0.150 HD
BRANCH   7  22
ATOM     22  C   UNL     1      -9.727  -9.325  14.478  0.00  0.00    +0.193 C 
BRANCH  22  28
ATOM     28  C   UNL     1     -10.085  -8.159  15.285  0.00  0.00    -0.087 C 
ATOM     29  C   UNL     1     -10.383  -7.201  15.945  0.00  0.00    +0.005 C 
ENDBRANCH  22  28
ENDBRANCH   7  22
ENDBRANCH  16  20
ENDBRANCH  11  16
TORSDOF 10
ENDMDL
MODEL 8
REMARK VINA RESULT:      -5.4     27.267     28.932
REMARK  Name = 38028596
REMARK  14 active torsions:
REMARK  status: ('A' for Active; 'I' for Inactive)
REMARK    1  A    between atoms: S_1  and  N_6
REMARK    2  A    between atoms: S_1  and  C_21
REMARK    3  A    between atoms: O_5  and  C_27
REMARK    4  A    between atoms: O_5  and  C_30
REMARK    5  A    between atoms: N_6  and  C_15
REMARK    6  A    between atoms: N_7  and  C_22
REMARK    7  A    between atoms: C_8  and  C_12
REMARK    8  A    between atoms: C_9  and  C_15
REMARK    9  A    between atoms: C_11  and  C_16
REMARK   10  A    between atoms: C_12  and  C_17
REMARK   11  A    between atoms: C_12  and  C_18
REMARK   12  A    between atoms: C_13  and  C_19
REMARK   13  A    between atoms: C_16  and  C_20
REMARK   14  A    between atoms: C_22  and  C_28
REMARK                            x       y       z     vdW  Elec       q    Type
REMARK                         _______ _______ _______ _____ _____    ______ ____
ROOT
ATOM      8  C   UNL     1      -5.969 -11.275  14.987  0.00  0.00    +0.000 C 
ATOM      9  C   UNL     1      -4.623 -11.603  15.682  0.00  0.00    +0.030 C 
ATOM     10  C   UNL     1      -6.607 -10.027  15.614  0.00  0.00    +0.012 C 
ATOM     11  C   UNL     1      -6.867 -10.201  17.123  0.00  0.00    +0.023 C 
ATOM     13  C   UNL     1      -5.663 -10.777  17.840  0.00  0.00    -0.073 C 
ATOM     14  C   UNL     1      -4.664 -11.389  17.177  0.00  0.00    -0.023 C 
ATOM     19  C   UNL     1      -5.610 -10.596  19.330  0.00  0.00    +0.039 C 
ENDROOT
BRANCH   8  12
ATOM     12  C   UNL     1      -5.794 -11.066  13.480  0.00  0.00    -0.013 C 
ATOM     17  C   UNL     1      -6.761 -11.954  12.703  0.00  0.00    +0.007 C 
ATOM     18  C   UNL     1      -5.999  -9.598  13.118  0.00  0.00    +0.007 C 
ENDBRANCH   8  12
BRANCH   9  15
ATOM     15  C   UNL     1      -4.182 -13.039  15.383  0.00  0.00    +0.113 C 
BRANCH  15   6
ATOM      6  N   UNL     1      -2.771 -13.032  14.967  0.00  0.00    -0.189 NA
ATOM     31  H   UNL     1      -2.179 -12.283  15.347  0.00  0.00    +0.148 HD
BRANCH   6   1
ATOM      1  S   UNL     1      -2.312 -13.728  13.481  0.00  0.00    +0.058 S 
ATOM      3  O   UNL     1      -3.214 -14.819  13.165  0.00  0.00    -0.153 OA
ATOM      4  O   UNL     1      -0.878 -13.943  13.480  0.00  0.00    -0.153 OA
BRANCH   1  21
ATOM     21  C   UNL     1      -2.636 -12.408  12.351  0.00  0.00    +0.105 A 
ATOM     23  C   UNL     1      -3.406 -12.639  11.210  0.00  0.00    +0.032 A 
ATOM     24  C   UNL     1      -2.121 -11.135  12.598  0.00  0.00    +0.032 A 
ATOM     25  C   UNL     1      -3.660 -11.599  10.318  0.00  0.00    +0.047 A 
ATOM     26  C   UNL     1      -2.374 -10.095  11.705  0.00  0.00    +0.047 A 
ATOM     27  C   UNL     1      -3.144 -10.327  10.564  0.00  0.00    +0.120 A 
BRANCH  27   5
ATOM      5  O   UNL     1      -3.392  -9.311   9.692  0.00  0.00    -0.495 OA
ATOM     30  C   UNL     1      -4.570  -9.413   8.895  0.00  0.00    +0.277 C 
ENDBRANCH  27   5
ENDBRANCH   1  21
ENDBRANCH   6   1
ENDBRANCH  15   6
ENDBRANCH   9  15
BRANCH  11  16
ATOM     16  C   UNL     1      -8.115 -11.055  17.373  0.00  0.00    +0.103 C 
BRANCH  16  20
ATOM      2  O   UNL     1     -10.131 -10.685  16.088  0.00  0.00    -0.276 OA
ATOM      7  N   UNL     1      -9.583  -9.219  17.806  0.00  0.00    -0.304 N 
ATOM     20  C   UNL     1      -9.386 -10.327  16.996  0.00  0.00    +0.214 C 
ATOM     32  H   UNL     1      -8.912  -9.007  18.539  0.00  0.00    +0.150 HD
BRANCH   7  22
ATOM     22  C   UNL     1     -10.718  -8.335  17.672  0.00  0.00    +0.193 C 
BRANCH  22  28
ATOM     28  C   UNL     1     -10.509  -7.369  16.593  0.00  0.00    -0.087 C 
ATOM     29  C   UNL     1     -10.334  -6.576  15.710  0.00  0.00    +0.005 C 
ENDBRANCH  22  28
ENDBRANCH   7  22
ENDBRANCH  16  20
ENDBRANCH  11  16
TORSDOF 10
ENDMDL
MODEL 9
REMARK VINA RESULT:      -5.4     13.627     17.311
REMARK  Name = 38028596
REMARK  14 active torsions:
REMARK  status: ('A' for Active; 'I' for Inactive)
REMARK    1  A    between atoms: S_1  and  N_6
REMARK    2  A    between atoms: S_1  and  C_21
REMARK    3  A    between atoms: O_5  and  C_27
REMARK    4  A    between atoms: O_5  and  C_30
REMARK    5  A    between atoms: N_6  and  C_15
REMARK    6  A    between atoms: N_7  and  C_22
REMARK    7  A    between atoms: C_8  and  C_12
REMARK    8  A    between atoms: C_9  and  C_15
REMARK    9  A    between atoms: C_11  and  C_16
REMARK   10  A    between atoms: C_12  and  C_17
REMARK   11  A    between atoms: C_12  and  C_18
REMARK   12  A    between atoms: C_13  and  C_19
REMARK   13  A    between atoms: C_16  and  C_20
REMARK   14  A    between atoms: C_22  and  C_28
REMARK                            x       y       z     vdW  Elec       q    Type
REMARK                         _______ _______ _______ _____ _____    ______ ____
ROOT
ATOM      8  C   UNL     1       8.879   8.456   3.189  0.00  0.00    +0.000 C 
ATOM      9  C   UNL     1       7.956   7.802   4.249  0.00  0.00    +0.030 C 
ATOM     10  C   UNL     1       9.546   7.378   2.321  0.00  0.00    +0.012 C 
ATOM     11  C   UNL     1      10.385   6.393   3.159  0.00  0.00    +0.023 C 
ATOM     13  C   UNL     1       9.630   5.906   4.380  0.00  0.00    -0.073 C 
ATOM     14  C   UNL     1       8.539   6.543   4.844  0.00  0.00    -0.023 C 
ATOM     19  C   UNL     1      10.130   4.647   5.028  0.00  0.00    +0.039 C 
ENDROOT
BRANCH   8  12
ATOM     12  C   UNL     1       8.114   9.439   2.297  0.00  0.00    -0.013 C 
ATOM     17  C   UNL     1       8.592  10.866   2.548  0.00  0.00    +0.007 C 
ATOM     18  C   UNL     1       8.279   9.064   0.828  0.00  0.00    +0.007 C 
ENDBRANCH   8  12
BRANCH   9  15
ATOM     15  C   UNL     1       7.618   8.789   5.371  0.00  0.00    +0.113 C 
BRANCH  15   6
ATOM      6  N   UNL     1       8.864   9.378   5.886  0.00  0.00    -0.189 NA
ATOM     31  H   UNL     1       9.584   9.619   5.194  0.00  0.00    +0.148 HD
BRANCH   6   1
ATOM      1  S   UNL     1       9.375   9.046   7.477  0.00  0.00    +0.058 S 
ATOM      3  O   UNL     1       8.623   7.920   7.996  0.00  0.00    -0.153 OA
ATOM      4  O   UNL     1       9.439  10.288   8.224  0.00  0.00    -0.153 OA
BRANCH   1  21
ATOM     21  C   UNL     1      11.041   8.515   7.217  0.00  0.00    +0.105 A 
ATOM     23  C   UNL     1      12.035   9.451   6.928  0.00  0.00    +0.032 A 
ATOM     24  C   UNL     1      11.363   7.160   7.299  0.00  0.00    +0.032 A 
ATOM     25  C   UNL     1      13.348   9.032   6.720  0.00  0.00    +0.047 A 
ATOM     26  C   UNL     1      12.676   6.741   7.091  0.00  0.00    +0.047 A 
ATOM     27  C   UNL     1      13.669   7.678   6.801  0.00  0.00    +0.120 A 
BRANCH  27   5
ATOM      5  O   UNL     1      14.952   7.269   6.598  0.00  0.00    -0.495 OA
ATOM     30  C   UNL     1      15.773   8.093   5.772  0.00  0.00    +0.277 C 
ENDBRANCH  27   5
ENDBRANCH   1  21
ENDBRANCH   6   1
ENDBRANCH  15   6
ENDBRANCH   9  15
BRANCH  11  16
ATOM     16  C   UNL     1      11.729   7.011   3.556  0.00  0.00    +0.103 C 
BRANCH  16  20
ATOM      2  O   UNL     1      14.051   6.690   2.954  0.00  0.00    -0.276 OA
ATOM      7  N   UNL     1      12.486   5.071   2.381  0.00  0.00    -0.304 N 
ATOM     20  C   UNL     1      12.897   6.270   2.944  0.00  0.00    +0.214 C 
ATOM     32  H   UNL     1      11.507   4.803   2.430  0.00  0.00    +0.150 HD
BRANCH   7  22
ATOM     22  C   UNL     1      13.390   4.156   1.723  0.00  0.00    +0.193 C 
BRANCH  22  28
ATOM     28  C   UNL     1      12.871   3.749   0.418  0.00  0.00    -0.087 C 
ATOM     29  C   UNL     1      12.443   3.419  -0.654  0.00  0.00    +0.005 C 
ENDBRANCH  22  28
ENDBRANCH   7  22
ENDBRANCH  16  20
ENDBRANCH  11  16
TORSDOF 10
ENDMDL
MODEL 10
REMARK VINA RESULT:      -5.3     13.849     17.716
REMARK  Name = 38028596
REMARK  14 active torsions:
REMARK  status: ('A' for Active; 'I' for Inactive)
REMARK    1  A    between atoms: S_1  and  N_6
REMARK    2  A    between atoms: S_1  and  C_21
REMARK    3  A    between atoms: O_5  and  C_27
REMARK    4  A    between atoms: O_5  and  C_30
REMARK    5  A    between atoms: N_6  and  C_15
REMARK    6  A    between atoms: N_7  and  C_22
REMARK    7  A    between atoms: C_8  and  C_12
REMARK    8  A    between atoms: C_9  and  C_15
REMARK    9  A    between atoms: C_11  and  C_16
REMARK   10  A    between atoms: C_12  and  C_17
REMARK   11  A    between atoms: C_12  and  C_18
REMARK   12  A    between atoms: C_13  and  C_19
REMARK   13  A    between atoms: C_16  and  C_20
REMARK   14  A    between atoms: C_22  and  C_28
REMARK                            x       y       z     vdW  Elec       q    Type
REMARK                         _______ _______ _______ _____ _____    ______ ____
ROOT
ATOM      8  C   UNL     1      12.744   7.554   4.900  0.00  0.00    +0.000 C 
ATOM      9  C   UNL     1      12.109   8.888   4.432  0.00  0.00    +0.030 C 
ATOM     10  C   UNL     1      13.601   6.946   3.779  0.00  0.00    +0.012 C 
ATOM     11  C   UNL     1      12.782   6.676   2.501  0.00  0.00    +0.023 C 
ATOM     13  C   UNL     1      11.919   7.863   2.124  0.00  0.00    -0.073 C 
ATOM     14  C   UNL     1      11.640   8.848   2.997  0.00  0.00    -0.023 C 
ATOM     19  C   UNL     1      11.421   7.915   0.707  0.00  0.00    +0.039 C 
ENDROOT
BRANCH   8  12
ATOM     12  C   UNL     1      13.594   7.740   6.160  0.00  0.00    -0.013 C 
ATOM     17  C   UNL     1      13.223   6.697   7.210  0.00  0.00    +0.007 C 
ATOM     18  C   UNL     1      15.078   7.657   5.817  0.00  0.00    +0.007 C 
ENDBRANCH   8  12
BRANCH   9  15
ATOM     15  C   UNL     1      10.943   9.294   5.340  0.00  0.00    +0.113 C 
BRANCH  15   6
ATOM      6  N   UNL     1       9.764   9.581   4.509  0.00  0.00    -0.189 NA
ATOM     31  H   UNL     1       9.611  10.561   4.242  0.00  0.00    +0.148 HD
BRANCH   6   1
ATOM      1  S   UNL     1       8.404   8.555   4.567  0.00  0.00    +0.058 S 
ATOM      3  O   UNL     1       8.269   7.867   3.297  0.00  0.00    -0.153 OA
ATOM      4  O   UNL     1       7.282   9.286   5.125  0.00  0.00    -0.153 OA
BRANCH   1  21
ATOM     21  C   UNL     1       8.900   7.369   5.780  0.00  0.00    +0.105 A 
ATOM     23  C   UNL     1       8.693   7.628   7.135  0.00  0.00    +0.032 A 
ATOM     24  C   UNL     1       9.499   6.173   5.383  0.00  0.00    +0.032 A 
ATOM     25  C   UNL     1       9.087   6.694   8.092  0.00  0.00    +0.047 A 
ATOM     26  C   UNL     1       9.893   5.239   6.339  0.00  0.00    +0.047 A 
ATOM     27  C   UNL     1       9.687   5.499   7.695  0.00  0.00    +0.120 A 
BRANCH  27   5
ATOM      5  O   UNL     1      10.071   4.586   8.629  0.00  0.00    -0.495 OA
ATOM     30  C   UNL     1       9.358   4.584   9.865  0.00  0.00    +0.277 C 
ENDBRANCH  27   5
ENDBRANCH   1  21
ENDBRANCH   6   1
ENDBRANCH  15   6
ENDBRANCH   9  15
BRANCH  11  16
ATOM     16  C   UNL     1      11.937   5.406   2.645  0.00  0.00    +0.103 C 
BRANCH  16  20
ATOM      2  O   UNL     1      12.311   3.074   2.122  0.00  0.00    -0.276 OA
ATOM      7  N   UNL     1      13.252   4.715   0.772  0.00  0.00    -0.304 N 
ATOM     20  C   UNL     1      12.501   4.254   1.844  0.00  0.00    +0.214 C 
ATOM     32  H   UNL     1      13.345   5.715   0.617  0.00  0.00    +0.150 HD
BRANCH   7  22
ATOM     22  C   UNL     1      13.912   3.836  -0.166  0.00  0.00    +0.193 C 
BRANCH  22  28
ATOM     28  C   UNL     1      12.963   3.292  -1.136  0.00  0.00    -0.087 C 
ATOM     29  C   UNL     1      12.181   2.847  -1.931  0.00  0.00    +0.005 C 
ENDBRANCH  22  28
ENDBRANCH   7  22
ENDBRANCH  16  20
ENDBRANCH  11  16
TORSDOF 10
ENDMDL
