MODEL 1
REMARK VINA RESULT:      -7.2      0.000      0.000
REMARK  Name = 7155415
REMARK  2 active torsions:
REMARK  status: ('A' for Active; 'I' for Inactive)
REMARK    1  A    between atoms: C_13  and  C_18
REMARK    2  A    between atoms: C_15  and  C_19
REMARK                            x       y       z     vdW  Elec       q    Type
REMARK                         _______ _______ _______ _____ _____    ______ ____
ROOT
ATOM      2  O   UNL     1      13.399  10.361  16.044  0.00  0.00    -0.268 OA
ATOM      3  O   UNL     1      10.547   8.453  19.782  0.00  0.00    -0.270 OA
ATOM      4  N   UNL     1      12.768   8.006  20.358  0.00  0.00    -0.297 N 
ATOM      5  N   UNL     1      14.301   9.450  18.005  0.00  0.00    -0.311 N 
ATOM      6  C   UNL     1      14.090   6.950  18.542  0.00  0.00    +0.027 C 
ATOM      7  C   UNL     1      15.201   8.462  20.133  0.00  0.00    +0.054 C 
ATOM      8  C   UNL     1      15.366   7.164  19.344  0.00  0.00    +0.018 C 
ATOM      9  C   UNL     1      12.875   6.844  19.478  0.00  0.00    +0.113 C 
ATOM     10  C   UNL     1      13.946   8.099  17.544  0.00  0.00    +0.130 C 
ATOM     11  C   UNL     1      13.998   8.334  21.092  0.00  0.00    +0.117 C 
ATOM     12  C   UNL     1      15.005   9.665  19.206  0.00  0.00    +0.034 A 
ATOM     13  C   UNL     1      15.449  10.910  19.518  0.00  0.00    +0.002 A 
ATOM     14  C   UNL     1      13.998  10.493  17.112  0.00  0.00    +0.252 A 
ATOM     15  C   UNL     1      11.574   8.730  20.399  0.00  0.00    +0.247 C 
ATOM     16  C   UNL     1      15.151  12.012  18.623  0.00  0.00    +0.015 A 
ATOM     17  C   UNL     1      14.459  11.847  17.496  0.00  0.00    +0.071 A 
ENDROOT
BRANCH  15  19
ATOM      1  F   UNL     1      11.380  13.341  23.558  0.00  0.00    -0.205 F 
ATOM     19  C   UNL     1      11.524   9.940  21.229  0.00  0.00    +0.037 A 
ATOM     22  C   UNL     1      12.023  11.141  20.732  0.00  0.00    +0.016 A 
ATOM     23  C   UNL     1      10.977   9.880  22.508  0.00  0.00    +0.016 A 
ATOM     27  C   UNL     1      11.974  12.291  21.519  0.00  0.00    +0.039 A 
ATOM     28  C   UNL     1      10.929  11.031  23.295  0.00  0.00    +0.039 A 
ATOM     29  C   UNL     1      11.427  12.237  22.802  0.00  0.00    +0.123 A 
ENDBRANCH  15  19
BRANCH  13  18
ATOM     18  C   UNL     1      16.214  11.178  20.755  0.00  0.00    -0.016 A 
ATOM     20  C   UNL     1      15.553  11.637  21.890  0.00  0.00    +0.008 A 
ATOM     21  C   UNL     1      17.589  10.967  20.778  0.00  0.00    +0.008 A 
ATOM     24  C   UNL     1      16.273  11.889  23.058  0.00  0.00    +0.001 A 
ATOM     25  C   UNL     1      18.309  11.218  21.945  0.00  0.00    +0.001 A 
ATOM     26  C   UNL     1      17.652  11.679  23.085  0.00  0.00    +0.000 A 
ENDBRANCH  13  18
TORSDOF 2
ENDMDL
MODEL 2
REMARK VINA RESULT:      -6.9     13.999     16.914
REMARK  Name = 7155415
REMARK  2 active torsions:
REMARK  status: ('A' for Active; 'I' for Inactive)
REMARK    1  A    between atoms: C_13  and  C_18
REMARK    2  A    between atoms: C_15  and  C_19
REMARK                            x       y       z     vdW  Elec       q    Type
REMARK                         _______ _______ _______ _____ _____    ______ ____
ROOT
ATOM      2  O   UNL     1      10.914   5.633   8.751  0.00  0.00    -0.268 OA
ATOM      3  O   UNL     1      10.738  10.481   7.265  0.00  0.00    -0.270 OA
ATOM      4  N   UNL     1      11.965   9.340   5.636  0.00  0.00    -0.297 N 
ATOM      5  N   UNL     1      11.750   6.372   6.691  0.00  0.00    -0.311 N 
ATOM      6  C   UNL     1      13.788   7.923   6.549  0.00  0.00    +0.027 C 
ATOM      7  C   UNL     1      12.622   7.230   4.497  0.00  0.00    +0.054 C 
ATOM      8  C   UNL     1      13.989   7.294   5.179  0.00  0.00    +0.018 C 
ATOM      9  C   UNL     1      13.202   9.339   6.414  0.00  0.00    +0.113 C 
ATOM     10  C   UNL     1      12.885   7.007   7.376  0.00  0.00    +0.130 C 
ATOM     11  C   UNL     1      12.058   8.658   4.336  0.00  0.00    +0.117 C 
ATOM     12  C   UNL     1      11.638   6.364   5.287  0.00  0.00    +0.034 A 
ATOM     13  C   UNL     1      10.660   5.634   4.688  0.00  0.00    +0.002 A 
ATOM     14  C   UNL     1      10.856   5.673   7.522  0.00  0.00    +0.252 A 
ATOM     15  C   UNL     1      10.812   9.913   6.177  0.00  0.00    +0.247 C 
ATOM     16  C   UNL     1       9.717   4.904   5.514  0.00  0.00    +0.015 A 
ATOM     17  C   UNL     1       9.777   4.918   6.845  0.00  0.00    +0.071 A 
ENDROOT
BRANCH  15  19
ATOM      1  F   UNL     1       6.063   9.577   3.243  0.00  0.00    -0.205 F 
ATOM     19  C   UNL     1       9.566   9.825   5.408  0.00  0.00    +0.037 A 
ATOM     22  C   UNL     1       9.172  10.890   4.602  0.00  0.00    +0.016 A 
ATOM     23  C   UNL     1       8.782   8.676   5.487  0.00  0.00    +0.016 A 
ATOM     27  C   UNL     1       7.988  10.807   3.869  0.00  0.00    +0.039 A 
ATOM     28  C   UNL     1       7.598   8.593   4.754  0.00  0.00    +0.039 A 
ATOM     29  C   UNL     1       7.200   9.658   3.945  0.00  0.00    +0.123 A 
ENDBRANCH  15  19
BRANCH  13  18
ATOM     18  C   UNL     1      10.520   5.577   3.217  0.00  0.00    -0.016 A 
ATOM     20  C   UNL     1      11.026   4.486   2.517  0.00  0.00    +0.008 A 
ATOM     21  C   UNL     1       9.884   6.613   2.542  0.00  0.00    +0.008 A 
ATOM     24  C   UNL     1      10.893   4.430   1.129  0.00  0.00    +0.001 A 
ATOM     25  C   UNL     1       9.750   6.558   1.155  0.00  0.00    +0.001 A 
ATOM     26  C   UNL     1      10.255   5.467   0.449  0.00  0.00    +0.000 A 
ENDBRANCH  13  18
TORSDOF 2
ENDMDL
MODEL 3
REMARK VINA RESULT:      -6.7     14.042     17.156
REMARK  Name = 7155415
REMARK  2 active torsions:
REMARK  status: ('A' for Active; 'I' for Inactive)
REMARK    1  A    between atoms: C_13  and  C_18
REMARK    2  A    between atoms: C_15  and  C_19
REMARK                            x       y       z     vdW  Elec       q    Type
REMARK                         _______ _______ _______ _____ _____    ______ ____
ROOT
ATOM      2  O   UNL     1       7.319   8.889   4.289  0.00  0.00    -0.268 OA
ATOM      3  O   UNL     1      11.283   9.687   7.355  0.00  0.00    -0.270 OA
ATOM      4  N   UNL     1      11.253   7.394   6.904  0.00  0.00    -0.297 N 
ATOM      5  N   UNL     1       8.856   7.215   4.856  0.00  0.00    -0.311 N 
ATOM      6  C   UNL     1       9.042   6.322   7.254  0.00  0.00    +0.027 C 
ATOM      7  C   UNL     1      10.543   5.468   5.502  0.00  0.00    +0.054 C 
ATOM      8  C   UNL     1       9.550   5.052   6.587  0.00  0.00    +0.018 C 
ATOM      9  C   UNL     1      10.207   7.105   7.882  0.00  0.00    +0.113 C 
ATOM     10  C   UNL     1       8.291   7.151   6.212  0.00  0.00    +0.130 C 
ATOM     11  C   UNL     1      11.724   6.225   6.146  0.00  0.00    +0.117 C 
ATOM     12  C   UNL     1       9.879   6.343   4.435  0.00  0.00    +0.034 A 
ATOM     13  C   UNL     1      10.265   6.329   3.133  0.00  0.00    +0.002 A 
ATOM     14  C   UNL     1       8.226   8.116   3.980  0.00  0.00    +0.252 A 
ATOM     15  C   UNL     1      11.680   8.711   6.720  0.00  0.00    +0.247 C 
ATOM     16  C   UNL     1       9.641   7.249   2.200  0.00  0.00    +0.015 A 
ATOM     17  C   UNL     1       8.693   8.107   2.575  0.00  0.00    +0.071 A 
ENDROOT
BRANCH  15  19
ATOM      1  F   UNL     1      15.460   9.738   2.729  0.00  0.00    -0.205 F 
ATOM     19  C   UNL     1      12.671   8.981   5.673  0.00  0.00    +0.037 A 
ATOM     22  C   UNL     1      14.027   8.995   5.990  0.00  0.00    +0.016 A 
ATOM     23  C   UNL     1      12.252   9.223   4.367  0.00  0.00    +0.016 A 
ATOM     27  C   UNL     1      14.971   9.251   4.995  0.00  0.00    +0.039 A 
ATOM     28  C   UNL     1      13.196   9.478   3.372  0.00  0.00    +0.039 A 
ATOM     29  C   UNL     1      14.555   9.492   3.685  0.00  0.00    +0.123 A 
ENDBRANCH  15  19
BRANCH  13  18
ATOM     18  C   UNL     1      11.318   5.414   2.641  0.00  0.00    -0.016 A 
ATOM     20  C   UNL     1      11.025   4.068   2.444  0.00  0.00    +0.008 A 
ATOM     21  C   UNL     1      12.593   5.904   2.378  0.00  0.00    +0.008 A 
ATOM     24  C   UNL     1      12.017   3.203   1.979  0.00  0.00    +0.001 A 
ATOM     25  C   UNL     1      13.585   5.040   1.913  0.00  0.00    +0.001 A 
ATOM     26  C   UNL     1      13.297   3.690   1.714  0.00  0.00    +0.000 A 
ENDBRANCH  13  18
TORSDOF 2
ENDMDL
MODEL 4
REMARK VINA RESULT:      -6.6     14.920     17.313
REMARK  Name = 7155415
REMARK  2 active torsions:
REMARK  status: ('A' for Active; 'I' for Inactive)
REMARK    1  A    between atoms: C_13  and  C_18
REMARK    2  A    between atoms: C_15  and  C_19
REMARK                            x       y       z     vdW  Elec       q    Type
REMARK                         _______ _______ _______ _____ _____    ______ ____
ROOT
ATOM      2  O   UNL     1      22.556  -6.839  23.467  0.00  0.00    -0.268 OA
ATOM      3  O   UNL     1      20.524  -6.823  28.117  0.00  0.00    -0.270 OA
ATOM      4  N   UNL     1      20.212  -4.672  27.256  0.00  0.00    -0.297 N 
ATOM      5  N   UNL     1      21.367  -5.018  24.338  0.00  0.00    -0.311 N 
ATOM      6  C   UNL     1      22.269  -3.650  26.313  0.00  0.00    +0.027 C 
ATOM      7  C   UNL     1      20.080  -3.103  25.332  0.00  0.00    +0.054 C 
ATOM      8  C   UNL     1      21.439  -2.521  25.721  0.00  0.00    +0.018 C 
ATOM      9  C   UNL     1      21.575  -4.238  27.554  0.00  0.00    +0.113 C 
ATOM     10  C   UNL     1      22.494  -4.706  25.230  0.00  0.00    +0.130 C 
ATOM     11  C   UNL     1      19.378  -3.660  26.590  0.00  0.00    +0.117 C 
ATOM     12  C   UNL     1      20.219  -4.205  24.278  0.00  0.00    +0.034 A 
ATOM     13  C   UNL     1      19.271  -4.437  23.333  0.00  0.00    +0.002 A 
ATOM     14  C   UNL     1      21.567  -6.105  23.469  0.00  0.00    +0.252 A 
ATOM     15  C   UNL     1      19.824  -5.979  27.559  0.00  0.00    +0.247 C 
ATOM     16  C   UNL     1      19.441  -5.554  22.422  0.00  0.00    +0.015 A 
ATOM     17  C   UNL     1      20.501  -6.360  22.474  0.00  0.00    +0.071 A 
ENDROOT
BRANCH  15  19
ATOM      1  F   UNL     1      14.687  -7.628  26.088  0.00  0.00    -0.205 F 
ATOM     19  C   UNL     1      18.476  -6.411  27.173  0.00  0.00    +0.037 A 
ATOM     22  C   UNL     1      18.255  -6.943  25.905  0.00  0.00    +0.016 A 
ATOM     23  C   UNL     1      17.423  -6.287  28.077  0.00  0.00    +0.016 A 
ATOM     27  C   UNL     1      16.975  -7.355  25.538  0.00  0.00    +0.039 A 
ATOM     28  C   UNL     1      16.142  -6.699  27.709  0.00  0.00    +0.039 A 
ATOM     29  C   UNL     1      15.917  -7.233  26.440  0.00  0.00    +0.123 A 
ENDBRANCH  15  19
BRANCH  13  18
ATOM     18  C   UNL     1      18.062  -3.594  23.217  0.00  0.00    -0.016 A 
ATOM     20  C   UNL     1      16.897  -3.963  23.883  0.00  0.00    +0.008 A 
ATOM     21  C   UNL     1      18.096  -2.438  22.445  0.00  0.00    +0.008 A 
ATOM     24  C   UNL     1      15.755  -3.168  23.775  0.00  0.00    +0.001 A 
ATOM     25  C   UNL     1      16.956  -1.642  22.338  0.00  0.00    +0.001 A 
ATOM     26  C   UNL     1      15.785  -2.007  23.003  0.00  0.00    +0.000 A 
ENDBRANCH  13  18
TORSDOF 2
ENDMDL
MODEL 5
REMARK VINA RESULT:      -6.5     14.413     17.064
REMARK  Name = 7155415
REMARK  2 active torsions:
REMARK  status: ('A' for Active; 'I' for Inactive)
REMARK    1  A    between atoms: C_13  and  C_18
REMARK    2  A    between atoms: C_15  and  C_19
REMARK                            x       y       z     vdW  Elec       q    Type
REMARK                         _______ _______ _______ _____ _____    ______ ____
ROOT
ATOM      2  O   UNL     1      17.632  -7.370  27.938  0.00  0.00    -0.268 OA
ATOM      3  O   UNL     1      18.564  -2.385  27.793  0.00  0.00    -0.270 OA
ATOM      4  N   UNL     1      20.161  -3.391  26.415  0.00  0.00    -0.297 N 
ATOM      5  N   UNL     1      19.239  -6.409  26.530  0.00  0.00    -0.311 N 
ATOM      6  C   UNL     1      21.351  -5.297  27.470  0.00  0.00    +0.027 C 
ATOM      7  C   UNL     1      20.942  -5.313  25.044  0.00  0.00    +0.054 C 
ATOM      8  C   UNL     1      21.964  -5.661  26.125  0.00  0.00    +0.018 C 
ATOM      9  C   UNL     1      21.021  -3.796  27.525  0.00  0.00    +0.113 C 
ATOM     10  C   UNL     1      20.111  -6.165  27.688  0.00  0.00    +0.130 C 
ATOM     11  C   UNL     1      20.642  -3.798  25.086  0.00  0.00    +0.117 C 
ATOM     12  C   UNL     1      19.645  -6.108  25.216  0.00  0.00    +0.034 A 
ATOM     13  C   UNL     1      18.877  -6.491  24.163  0.00  0.00    +0.002 A 
ATOM     14  C   UNL     1      18.030  -7.070  26.812  0.00  0.00    +0.252 A 
ATOM     15  C   UNL     1      18.964  -2.723  26.680  0.00  0.00    +0.247 C 
ATOM     16  C   UNL     1      17.620  -7.172  24.416  0.00  0.00    +0.015 A 
ATOM     17  C   UNL     1      17.193  -7.442  25.649  0.00  0.00    +0.071 A 
ENDROOT
BRANCH  15  19
ATOM      1  F   UNL     1      15.604  -1.504  22.379  0.00  0.00    -0.205 F 
ATOM     19  C   UNL     1      18.082  -2.403  25.552  0.00  0.00    +0.037 A 
ATOM     22  C   UNL     1      18.194  -1.171  24.912  0.00  0.00    +0.016 A 
ATOM     23  C   UNL     1      17.136  -3.332  25.126  0.00  0.00    +0.016 A 
ATOM     27  C   UNL     1      17.357  -0.867  23.839  0.00  0.00    +0.039 A 
ATOM     28  C   UNL     1      16.299  -3.028  24.053  0.00  0.00    +0.039 A 
ATOM     29  C   UNL     1      16.409  -1.795  23.409  0.00  0.00    +0.123 A 
ENDBRANCH  15  19
BRANCH  13  18
ATOM     18  C   UNL     1      19.277  -6.219  22.765  0.00  0.00    -0.016 A 
ATOM     20  C   UNL     1      19.979  -7.182  22.047  0.00  0.00    +0.008 A 
ATOM     21  C   UNL     1      18.947  -5.002  22.177  0.00  0.00    +0.008 A 
ATOM     24  C   UNL     1      20.355  -6.926  20.728  0.00  0.00    +0.001 A 
ATOM     25  C   UNL     1      19.323  -4.746  20.858  0.00  0.00    +0.001 A 
ATOM     26  C   UNL     1      20.027  -5.708  20.134  0.00  0.00    +0.000 A 
ENDBRANCH  13  18
TORSDOF 2
ENDMDL
MODEL 6
REMARK VINA RESULT:      -6.5     28.276     30.145
REMARK  Name = 7155415
REMARK  2 active torsions:
REMARK  status: ('A' for Active; 'I' for Inactive)
REMARK    1  A    between atoms: C_13  and  C_18
REMARK    2  A    between atoms: C_15  and  C_19
REMARK                            x       y       z     vdW  Elec       q    Type
REMARK                         _______ _______ _______ _____ _____    ______ ____
ROOT
ATOM      2  O   UNL     1      -6.599 -14.966  16.522  0.00  0.00    -0.268 OA
ATOM      3  O   UNL     1      -8.140 -10.708  18.811  0.00  0.00    -0.270 OA
ATOM      4  N   UNL     1      -6.232 -10.141  17.585  0.00  0.00    -0.297 N 
ATOM      5  N   UNL     1      -5.616 -12.876  16.133  0.00  0.00    -0.311 N 
ATOM      6  C   UNL     1      -4.300 -11.652  17.964  0.00  0.00    +0.027 C 
ATOM      7  C   UNL     1      -4.609 -10.604  15.759  0.00  0.00    +0.054 C 
ATOM      8  C   UNL     1      -3.564 -11.006  16.799  0.00  0.00    +0.018 C 
ATOM      9  C   UNL     1      -5.303 -10.665  18.583  0.00  0.00    +0.113 C 
ATOM     10  C   UNL     1      -4.984 -12.923  17.460  0.00  0.00    +0.130 C 
ATOM     11  C   UNL     1      -5.592  -9.589  16.382  0.00  0.00    +0.117 C 
ATOM     12  C   UNL     1      -5.377 -11.820  15.232  0.00  0.00    +0.034 A 
ATOM     13  C   UNL     1      -5.853 -11.890  13.962  0.00  0.00    +0.002 A 
ATOM     14  C   UNL     1      -6.371 -14.009  15.782  0.00  0.00    +0.252 A 
ATOM     15  C   UNL     1      -7.608 -10.245  17.803  0.00  0.00    +0.247 C 
ATOM     16  C   UNL     1      -6.641 -13.043  13.565  0.00  0.00    +0.015 A 
ATOM     17  C   UNL     1      -6.911 -14.043  14.404  0.00  0.00    +0.071 A 
ENDROOT
BRANCH  15  19
ATOM      1  F   UNL     1     -11.067  -8.491  13.774  0.00  0.00    -0.205 F 
ATOM     19  C   UNL     1      -8.516  -9.785  16.746  0.00  0.00    +0.037 A 
ATOM     22  C   UNL     1      -9.038  -8.495  16.794  0.00  0.00    +0.016 A 
ATOM     23  C   UNL     1      -8.851 -10.641  15.700  0.00  0.00    +0.016 A 
ATOM     27  C   UNL     1      -9.901  -8.057  15.790  0.00  0.00    +0.039 A 
ATOM     28  C   UNL     1      -9.713 -10.203  14.695  0.00  0.00    +0.039 A 
ATOM     29  C   UNL     1     -10.239  -8.911  14.739  0.00  0.00    +0.123 A 
ENDBRANCH  15  19
BRANCH  13  18
ATOM     18  C   UNL     1      -5.605 -10.817  12.976  0.00  0.00    -0.016 A 
ATOM     20  C   UNL     1      -4.423 -10.812  12.241  0.00  0.00    +0.008 A 
ATOM     21  C   UNL     1      -6.556  -9.819  12.787  0.00  0.00    +0.008 A 
ATOM     24  C   UNL     1      -4.190  -9.800  11.310  0.00  0.00    +0.001 A 
ATOM     25  C   UNL     1      -6.323  -8.807  11.856  0.00  0.00    +0.001 A 
ATOM     26  C   UNL     1      -5.140  -8.798  11.117  0.00  0.00    +0.000 A 
ENDBRANCH  13  18
TORSDOF 2
ENDMDL
MODEL 7
REMARK VINA RESULT:      -6.5     14.000     16.781
REMARK  Name = 7155415
REMARK  2 active torsions:
REMARK  status: ('A' for Active; 'I' for Inactive)
REMARK    1  A    between atoms: C_13  and  C_18
REMARK    2  A    between atoms: C_15  and  C_19
REMARK                            x       y       z     vdW  Elec       q    Type
REMARK                         _______ _______ _______ _____ _____    ______ ____
ROOT
ATOM      2  O   UNL     1       9.077  11.373   4.488  0.00  0.00    -0.268 OA
ATOM      3  O   UNL     1      13.062   9.065   2.358  0.00  0.00    -0.270 OA
ATOM      4  N   UNL     1      13.087   8.465   4.617  0.00  0.00    -0.297 N 
ATOM      5  N   UNL     1      10.438   9.850   5.635  0.00  0.00    -0.311 N 
ATOM      6  C   UNL     1      12.888  10.386   6.176  0.00  0.00    +0.027 C 
ATOM      7  C   UNL     1      11.936   8.207   6.806  0.00  0.00    +0.054 C 
ATOM      8  C   UNL     1      12.690   9.425   7.339  0.00  0.00    +0.018 C 
ATOM      9  C   UNL     1      13.700   9.717   5.054  0.00  0.00    +0.113 C 
ATOM     10  C   UNL     1      11.515  10.851   5.691  0.00  0.00    +0.130 C 
ATOM     11  C   UNL     1      12.773   7.524   5.702  0.00  0.00    +0.117 C 
ATOM     12  C   UNL     1      10.560   8.591   6.255  0.00  0.00    +0.034 A 
ATOM     13  C   UNL     1       9.489   7.758   6.315  0.00  0.00    +0.002 A 
ATOM     14  C   UNL     1       9.244  10.280   5.031  0.00  0.00    +0.252 A 
ATOM     15  C   UNL     1      12.799   8.275   3.263  0.00  0.00    +0.247 C 
ATOM     16  C   UNL     1       8.240   8.166   5.698  0.00  0.00    +0.015 A 
ATOM     17  C   UNL     1       8.103   9.337   5.076  0.00  0.00    +0.071 A 
ENDROOT
BRANCH  15  19
ATOM      1  F   UNL     1      10.167   3.578   1.751  0.00  0.00    -0.205 F 
ATOM     19  C   UNL     1      12.108   7.043   2.866  0.00  0.00    +0.037 A 
ATOM     22  C   UNL     1      12.848   5.933   2.463  0.00  0.00    +0.016 A 
ATOM     23  C   UNL     1      10.717   6.989   2.893  0.00  0.00    +0.016 A 
ATOM     27  C   UNL     1      12.192   4.761   2.087  0.00  0.00    +0.039 A 
ATOM     28  C   UNL     1      10.061   5.817   2.516  0.00  0.00    +0.039 A 
ATOM     29  C   UNL     1      10.798   4.703   2.112  0.00  0.00    +0.123 A 
ENDBRANCH  15  19
BRANCH  13  18
ATOM     18  C   UNL     1       9.563   6.438   6.978  0.00  0.00    -0.016 A 
ATOM     20  C   UNL     1       9.780   5.294   6.216  0.00  0.00    +0.008 A 
ATOM     21  C   UNL     1       9.418   6.348   8.358  0.00  0.00    +0.008 A 
ATOM     24  C   UNL     1       9.852   4.048   6.840  0.00  0.00    +0.001 A 
ATOM     25  C   UNL     1       9.490   5.103   8.983  0.00  0.00    +0.001 A 
ATOM     26  C   UNL     1       9.707   3.953   8.224  0.00  0.00    +0.000 A 
ENDBRANCH  13  18
TORSDOF 2
ENDMDL
MODEL 8
REMARK VINA RESULT:      -6.0     14.157     16.610
REMARK  Name = 7155415
REMARK  2 active torsions:
REMARK  status: ('A' for Active; 'I' for Inactive)
REMARK    1  A    between atoms: C_13  and  C_18
REMARK    2  A    between atoms: C_15  and  C_19
REMARK                            x       y       z     vdW  Elec       q    Type
REMARK                         _______ _______ _______ _____ _____    ______ ____
ROOT
ATOM      2  O   UNL     1      19.839  -5.048  21.709  0.00  0.00    -0.268 OA
ATOM      3  O   UNL     1      20.518  -0.993  24.683  0.00  0.00    -0.270 OA
ATOM      4  N   UNL     1      18.311  -1.689  25.015  0.00  0.00    -0.297 N 
ATOM      5  N   UNL     1      18.226  -4.292  23.231  0.00  0.00    -0.311 N 
ATOM      6  C   UNL     1      17.035  -2.042  22.915  0.00  0.00    +0.027 C 
ATOM      7  C   UNL     1      16.543  -3.431  24.885  0.00  0.00    +0.054 C 
ATOM      8  C   UNL     1      15.910  -2.692  23.706  0.00  0.00    +0.018 C 
ATOM      9  C   UNL     1      17.814  -1.052  23.798  0.00  0.00    +0.113 C 
ATOM     10  C   UNL     1      17.937  -3.144  22.359  0.00  0.00    +0.130 C 
ATOM     11  C   UNL     1      17.294  -2.423  25.782  0.00  0.00    +0.117 C 
ATOM     12  C   UNL     1      17.501  -4.529  24.415  0.00  0.00    +0.034 A 
ATOM     13  C   UNL     1      17.692  -5.681  25.109  0.00  0.00    +0.002 A 
ATOM     14  C   UNL     1      19.187  -5.196  22.743  0.00  0.00    +0.252 A 
ATOM     15  C   UNL     1      19.670  -1.609  25.328  0.00  0.00    +0.247 C 
ATOM     16  C   UNL     1      18.678  -6.635  24.638  0.00  0.00    +0.015 A 
ATOM     17  C   UNL     1      19.403  -6.425  23.540  0.00  0.00    +0.071 A 
ENDROOT
BRANCH  15  19
ATOM      1  F   UNL     1      21.512  -4.348  29.842  0.00  0.00    -0.205 F 
ATOM     19  C   UNL     1      20.154  -2.327  26.512  0.00  0.00    +0.037 A 
ATOM     22  C   UNL     1      20.227  -1.672  27.738  0.00  0.00    +0.016 A 
ATOM     23  C   UNL     1      20.537  -3.662  26.405  0.00  0.00    +0.016 A 
ATOM     27  C   UNL     1      20.686  -2.354  28.865  0.00  0.00    +0.039 A 
ATOM     28  C   UNL     1      20.996  -4.344  27.531  0.00  0.00    +0.039 A 
ATOM     29  C   UNL     1      21.071  -3.691  28.762  0.00  0.00    +0.123 A 
ENDBRANCH  15  19
BRANCH  13  18
ATOM     18  C   UNL     1      16.934  -5.982  26.343  0.00  0.00    -0.016 A 
ATOM     20  C   UNL     1      17.403  -5.524  27.571  0.00  0.00    +0.008 A 
ATOM     21  C   UNL     1      15.758  -6.721  26.269  0.00  0.00    +0.008 A 
ATOM     24  C   UNL     1      16.688  -5.807  28.735  0.00  0.00    +0.001 A 
ATOM     25  C   UNL     1      15.043  -7.004  27.433  0.00  0.00    +0.001 A 
ATOM     26  C   UNL     1      15.508  -6.547  28.666  0.00  0.00    +0.000 A 
ENDBRANCH  13  18
TORSDOF 2
ENDMDL
MODEL 9
REMARK VINA RESULT:      -5.9     25.269     27.689
REMARK  Name = 7155415
REMARK  2 active torsions:
REMARK  status: ('A' for Active; 'I' for Inactive)
REMARK    1  A    between atoms: C_13  and  C_18
REMARK    2  A    between atoms: C_15  and  C_19
REMARK                            x       y       z     vdW  Elec       q    Type
REMARK                         _______ _______ _______ _____ _____    ______ ____
ROOT
ATOM      2  O   UNL     1     -10.906  12.864  18.561  0.00  0.00    -0.268 OA
ATOM      3  O   UNL     1     -14.229  11.120  15.147  0.00  0.00    -0.270 OA
ATOM      4  N   UNL     1     -13.105   9.249  15.983  0.00  0.00    -0.297 N 
ATOM      5  N   UNL     1     -11.278  10.581  18.186  0.00  0.00    -0.311 N 
ATOM      6  C   UNL     1     -10.632   9.464  15.969  0.00  0.00    +0.027 C 
ATOM      7  C   UNL     1     -11.728   8.150  17.737  0.00  0.00    +0.054 C 
ATOM      8  C   UNL     1     -10.516   8.200  16.807  0.00  0.00    +0.018 C 
ATOM      9  C   UNL     1     -11.928   9.445  15.140  0.00  0.00    +0.113 C 
ATOM     10  C   UNL     1     -10.567  10.674  16.902  0.00  0.00    +0.130 C 
ATOM     11  C   UNL     1     -13.021   8.099  16.895  0.00  0.00    +0.117 C 
ATOM     12  C   UNL     1     -11.765   9.356  18.681  0.00  0.00    +0.034 A 
ATOM     13  C   UNL     1     -12.275   9.285  19.938  0.00  0.00    +0.002 A 
ATOM     14  C   UNL     1     -11.328  11.769  18.936  0.00  0.00    +0.252 A 
ATOM     15  C   UNL     1     -14.163  10.158  15.911  0.00  0.00    +0.247 C 
ATOM     16  C   UNL     1     -12.348  10.492  20.740  0.00  0.00    +0.015 A 
ATOM     17  C   UNL     1     -11.925  11.673  20.288  0.00  0.00    +0.071 A 
ENDROOT
BRANCH  15  19
ATOM      1  F   UNL     1     -18.477   9.490  19.406  0.00  0.00    -0.205 F 
ATOM     19  C   UNL     1     -15.295   9.982  16.828  0.00  0.00    +0.037 A 
ATOM     22  C   UNL     1     -15.254  10.555  18.097  0.00  0.00    +0.016 A 
ATOM     23  C   UNL     1     -16.405   9.244  16.426  0.00  0.00    +0.016 A 
ATOM     27  C   UNL     1     -16.329  10.389  18.969  0.00  0.00    +0.039 A 
ATOM     28  C   UNL     1     -17.481   9.078  17.298  0.00  0.00    +0.039 A 
ATOM     29  C   UNL     1     -17.444   9.650  18.570  0.00  0.00    +0.123 A 
ENDBRANCH  15  19
BRANCH  13  18
ATOM     18  C   UNL     1     -12.775   8.015  20.506  0.00  0.00    -0.016 A 
ATOM     20  C   UNL     1     -14.144   7.772  20.557  0.00  0.00    +0.008 A 
ATOM     21  C   UNL     1     -11.874   7.070  20.987  0.00  0.00    +0.008 A 
ATOM     24  C   UNL     1     -14.617   6.573  21.092  0.00  0.00    +0.001 A 
ATOM     25  C   UNL     1     -12.345   5.872  21.522  0.00  0.00    +0.001 A 
ATOM     26  C   UNL     1     -13.717   5.623  21.575  0.00  0.00    +0.000 A 
ENDBRANCH  13  18
TORSDOF 2
ENDMDL
MODEL 10
REMARK VINA RESULT:      -5.8     25.123     28.284
REMARK  Name = 7155415
REMARK  2 active torsions:
REMARK  status: ('A' for Active; 'I' for Inactive)
REMARK    1  A    between atoms: C_13  and  C_18
REMARK    2  A    between atoms: C_15  and  C_19
REMARK                            x       y       z     vdW  Elec       q    Type
REMARK                         _______ _______ _______ _____ _____    ______ ____
ROOT
ATOM      2  O   UNL     1     -17.452  11.124  19.783  0.00  0.00    -0.268 OA
ATOM      3  O   UNL     1     -12.627  12.693  19.710  0.00  0.00    -0.270 OA
ATOM      4  N   UNL     1     -12.863  11.388  21.635  0.00  0.00    -0.297 N 
ATOM      5  N   UNL     1     -15.846  10.399  21.328  0.00  0.00    -0.311 N 
ATOM      6  C   UNL     1     -14.814  12.004  23.042  0.00  0.00    +0.027 C 
ATOM      7  C   UNL     1     -14.075   9.660  22.949  0.00  0.00    +0.054 C 
ATOM      8  C   UNL     1     -14.610  10.749  23.877  0.00  0.00    +0.018 C 
ATOM      9  C   UNL     1     -13.485  12.457  22.414  0.00  0.00    +0.113 C 
ATOM     10  C   UNL     1     -15.878  11.715  21.983  0.00  0.00    +0.130 C 
ATOM     11  C   UNL     1     -12.725  10.110  22.349  0.00  0.00    +0.117 C 
ATOM     12  C   UNL     1     -15.065   9.338  21.826  0.00  0.00    +0.034 A 
ATOM     13  C   UNL     1     -15.182   8.097  21.287  0.00  0.00    +0.002 A 
ATOM     14  C   UNL     1     -16.735  10.238  20.250  0.00  0.00    +0.252 A 
ATOM     15  C   UNL     1     -12.509  11.623  20.304  0.00  0.00    +0.247 C 
ATOM     16  C   UNL     1     -16.087   7.894  20.170  0.00  0.00    +0.015 A 
ATOM     17  C   UNL     1     -16.815   8.884  19.656  0.00  0.00    +0.071 A 
ENDROOT
BRANCH  15  19
ATOM      1  F   UNL     1     -10.430   7.367  17.330  0.00  0.00    -0.205 F 
ATOM     19  C   UNL     1     -11.963  10.506  19.523  0.00  0.00    +0.037 A 
ATOM     22  C   UNL     1     -10.585  10.347  19.413  0.00  0.00    +0.016 A 
ATOM     23  C   UNL     1     -12.827   9.612  18.896  0.00  0.00    +0.016 A 
ATOM     27  C   UNL     1     -10.065   9.286  18.672  0.00  0.00    +0.039 A 
ATOM     28  C   UNL     1     -12.308   8.551  18.155  0.00  0.00    +0.039 A 
ATOM     29  C   UNL     1     -10.927   8.387  18.042  0.00  0.00    +0.123 A 
ENDBRANCH  15  19
BRANCH  13  18
ATOM     18  C   UNL     1     -14.400   6.949  21.794  0.00  0.00    -0.016 A 
ATOM     20  C   UNL     1     -13.160   6.657  21.236  0.00  0.00    +0.008 A 
ATOM     21  C   UNL     1     -14.909   6.169  22.828  0.00  0.00    +0.008 A 
ATOM     24  C   UNL     1     -12.421   5.575  21.715  0.00  0.00    +0.001 A 
ATOM     25  C   UNL     1     -14.171   5.087  23.307  0.00  0.00    +0.001 A 
ATOM     26  C   UNL     1     -12.927   4.790  22.751  0.00  0.00    +0.000 A 
ENDBRANCH  13  18
TORSDOF 2
ENDMDL
