REMARK  Name = 11867282
REMARK  4 active torsions:
REMARK  status: ('A' for Active; 'I' for Inactive)
REMARK    1  A    between atoms: S_1  and  N_11
REMARK    2  A    between atoms: S_1  and  C_25
REMARK    3  A    between atoms: N_10  and  C_24
REMARK    4  A    between atoms: N_11  and  C_22
REMARK                            x       y       z     vdW  Elec       q    Type
REMARK                         _______ _______ _______ _____ _____    ______ ____
ROOT
ATOM      4  O   UNL     1      -0.954   2.753   1.742  0.00  0.00    -0.266 OA
ATOM      5  O   UNL     1      -2.866  -2.139   1.731  0.00  0.00    -0.252 OA
ATOM      8  N   UNL     1      -3.764  -0.993  -0.068  0.00  0.00    -0.284 N 
ATOM      9  N   UNL     1      -2.366   1.873   0.093  0.00  0.00    -0.310 N 
ATOM     10  N   UNL     1      -1.979  -2.505  -0.380  0.00  0.00    -0.269 N 
ATOM     12  C   UNL     1      -4.793   1.202   0.545  0.00  0.00    +0.027 C 
ATOM     13  C   UNL     1      -3.841   0.888  -1.699  0.00  0.00    +0.054 C 
ATOM     14  C   UNL     1      -5.008   1.504  -0.932  0.00  0.00    +0.018 C 
ATOM     15  C   UNL     1      -4.750  -0.317   0.780  0.00  0.00    +0.114 C 
ATOM     16  C   UNL     1      -3.509   1.896   1.014  0.00  0.00    +0.130 C 
ATOM     17  C   UNL     1      -3.831  -0.642  -1.498  0.00  0.00    +0.119 C 
ATOM     18  C   UNL     1      -2.516   1.471  -1.241  0.00  0.00    +0.027 A 
ATOM     19  C   UNL     1      -1.485   1.568  -2.101  0.00  0.00    +0.024 A 
ATOM     20  C   UNL     1      -1.143   2.371   0.588  0.00  0.00    +0.274 A 
ATOM     21  C   UNL     1      -2.856  -1.901   0.520  0.00  0.00    +0.306 C 
ATOM     22  C   UNL     1      -0.038   2.430  -0.401  0.00  0.00    +0.112 A 
ATOM     23  C   UNL     1      -0.205   2.062  -1.672  0.00  0.00    +0.031 A 
ATOM     36  H   UNL     1      -2.281  -2.619  -1.341  0.00  0.00    +0.156 HD
ENDROOT
BRANCH  10  24
ATOM      2  F   UNL     1       3.031  -4.599   0.719  0.00  0.00    -0.205 F 
ATOM     24  C   UNL     1      -0.697  -3.039  -0.099  0.00  0.00    +0.035 A 
ATOM     26  C   UNL     1       0.012  -3.697  -1.100  0.00  0.00    +0.026 A 
ATOM     27  C   UNL     1      -0.156  -2.905   1.176  0.00  0.00    +0.026 A 
ATOM     30  C   UNL     1       1.274  -4.224  -0.823  0.00  0.00    +0.040 A 
ATOM     31  C   UNL     1       1.105  -3.432   1.453  0.00  0.00    +0.040 A 
ATOM     32  C   UNL     1       1.820  -4.092   0.454  0.00  0.00    +0.124 A 
ENDBRANCH  10  24
BRANCH  22  11
ATOM     11  N   UNL     1       1.231   2.901  -0.019  0.00  0.00    -0.211 N 
ATOM     37  H   UNL     1       1.819   3.161  -0.823  0.00  0.00    +0.174 HD
BRANCH  11   1
ATOM      1  S   UNL     1       2.039   2.041   1.195  0.00  0.00    +0.073 S 
ATOM      6  O   UNL     1       2.448   2.950   2.248  0.00  0.00    -0.150 OA
ATOM      7  O   UNL     1       1.296   0.837   1.516  0.00  0.00    -0.150 OA
BRANCH   1  25
ATOM      3  F   UNL     1       4.680  -1.215  -1.694  0.00  0.00    -0.205 F 
ATOM     25  C   UNL     1       3.500   1.545   0.330  0.00  0.00    +0.111 A 
ATOM     28  C   UNL     1       3.505   0.340  -0.350  0.00  0.00    +0.067 A 
ATOM     29  C   UNL     1       4.609   2.371   0.352  0.00  0.00    +0.029 A 
ATOM     33  C   UNL     1       4.657  -0.052  -1.031  0.00  0.00    +0.125 A 
ATOM     34  C   UNL     1       5.762   1.979  -0.329  0.00  0.00    +0.005 A 
ATOM     35  C   UNL     1       5.786   0.768  -1.020  0.00  0.00    +0.038 A 
ENDBRANCH   1  25
ENDBRANCH  11   1
ENDBRANCH  22  11
TORSDOF 4
