MODEL 1
REMARK VINA RESULT:      -7.3      0.000      0.000
REMARK  Name = 11867236
REMARK  6 active torsions:
REMARK  status: ('A' for Active; 'I' for Inactive)
REMARK    1  A    between atoms: S_1  and  N_10
REMARK    2  A    between atoms: S_1  and  C_24
REMARK    3  A    between atoms: N_9  and  C_23
REMARK    4  A    between atoms: N_10  and  C_21
REMARK    5  A    between atoms: C_24  and  C_25
REMARK    6  A    between atoms: C_25  and  C_28
REMARK                            x       y       z     vdW  Elec       q    Type
REMARK                         _______ _______ _______ _____ _____    ______ ____
ROOT
ATOM      3  O   UNL     1      12.112   9.259  16.968  0.00  0.00    -0.266 OA
ATOM      4  O   UNL     1      10.546   9.123  21.980  0.00  0.00    -0.252 OA
ATOM      7  N   UNL     1      13.479   8.684  18.782  0.00  0.00    -0.310 N 
ATOM      8  N   UNL     1      12.738   8.390  21.873  0.00  0.00    -0.284 N 
ATOM      9  N   UNL     1      12.241  10.589  22.573  0.00  0.00    -0.269 N 
ATOM     11  C   UNL     1      13.118   6.579  20.190  0.00  0.00    +0.027 C 
ATOM     12  C   UNL     1      14.947   8.122  20.753  0.00  0.00    +0.054 C 
ATOM     13  C   UNL     1      14.617   6.663  20.452  0.00  0.00    +0.018 C 
ATOM     14  C   UNL     1      12.784   7.401  18.940  0.00  0.00    +0.130 C 
ATOM     15  C   UNL     1      12.332   7.056  21.423  0.00  0.00    +0.114 C 
ATOM     16  C   UNL     1      14.193   8.579  22.019  0.00  0.00    +0.119 C 
ATOM     17  C   UNL     1      14.577   9.020  19.586  0.00  0.00    +0.027 A 
ATOM     18  C   UNL     1      15.275  10.145  19.350  0.00  0.00    +0.024 A 
ATOM     19  C   UNL     1      13.056   9.507  17.717  0.00  0.00    +0.274 A 
ATOM     20  C   UNL     1      11.747   9.364  22.127  0.00  0.00    +0.306 C 
ATOM     21  C   UNL     1      13.850  10.746  17.522  0.00  0.00    +0.112 A 
ATOM     22  C   UNL     1      14.903  11.040  18.286  0.00  0.00    +0.031 A 
ATOM     32  H   UNL     1      13.122  10.597  23.077  0.00  0.00    +0.156 HD
ENDROOT
BRANCH   9  23
ATOM      2  F   UNL     1       9.822  15.549  22.077  0.00  0.00    -0.205 F 
ATOM     23  C   UNL     1      11.624  11.858  22.446  0.00  0.00    +0.035 A 
ATOM     26  C   UNL     1      11.731  12.563  21.251  0.00  0.00    +0.026 A 
ATOM     27  C   UNL     1      10.913  12.390  23.518  0.00  0.00    +0.026 A 
ATOM     29  C   UNL     1      11.122  13.813  21.126  0.00  0.00    +0.040 A 
ATOM     30  C   UNL     1      10.304  13.640  23.393  0.00  0.00    +0.040 A 
ATOM     31  C   UNL     1      10.408  14.350  22.197  0.00  0.00    +0.124 A 
ENDBRANCH   9  23
BRANCH  21  10
ATOM     10  N   UNL     1      13.515  11.649  16.498  0.00  0.00    -0.215 N 
ATOM     33  H   UNL     1      12.532  11.954  16.500  0.00  0.00    +0.173 HD
BRANCH  10   1
ATOM      1  S   UNL     1      14.126  11.265  14.953  0.00  0.00    +0.043 S 
ATOM      5  O   UNL     1      14.826   9.996  15.005  0.00  0.00    -0.155 OA
ATOM      6  O   UNL     1      13.104  11.518  13.956  0.00  0.00    -0.155 OA
BRANCH   1  24
ATOM     24  C   UNL     1      15.355  12.537  14.794  0.00  0.00    +0.188 C 
BRANCH  24  25
ATOM     25  C   UNL     1      16.745  12.003  15.093  0.00  0.00    +0.021 C 
ATOM     28  C   UNL     1      17.418  12.795  16.203  0.00  0.00    +0.005 C 
ENDBRANCH  24  25
ENDBRANCH   1  24
ENDBRANCH  10   1
ENDBRANCH  21  10
TORSDOF 5
ENDMDL
MODEL 2
REMARK VINA RESULT:      -6.5      4.406      6.679
REMARK  Name = 11867236
REMARK  6 active torsions:
REMARK  status: ('A' for Active; 'I' for Inactive)
REMARK    1  A    between atoms: S_1  and  N_10
REMARK    2  A    between atoms: S_1  and  C_24
REMARK    3  A    between atoms: N_9  and  C_23
REMARK    4  A    between atoms: N_10  and  C_21
REMARK    5  A    between atoms: C_24  and  C_25
REMARK    6  A    between atoms: C_25  and  C_28
REMARK                            x       y       z     vdW  Elec       q    Type
REMARK                         _______ _______ _______ _____ _____    ______ ____
ROOT
ATOM      3  O   UNL     1      13.392  11.254  21.776  0.00  0.00    -0.266 OA
ATOM      4  O   UNL     1      14.553   6.203  20.920  0.00  0.00    -0.252 OA
ATOM      7  N   UNL     1      13.310  10.198  19.686  0.00  0.00    -0.310 N 
ATOM      8  N   UNL     1      13.825   7.138  18.933  0.00  0.00    -0.284 N 
ATOM      9  N   UNL     1      16.128   6.812  19.331  0.00  0.00    -0.269 N 
ATOM     11  C   UNL     1      11.641   8.342  19.123  0.00  0.00    +0.027 C 
ATOM     12  C   UNL     1      13.282   9.056  17.438  0.00  0.00    +0.054 C 
ATOM     13  C   UNL     1      11.793   8.828  17.687  0.00  0.00    +0.018 C 
ATOM     14  C   UNL     1      12.110   9.449  20.076  0.00  0.00    +0.130 C 
ATOM     15  C   UNL     1      12.418   7.032  19.330  0.00  0.00    +0.114 C 
ATOM     16  C   UNL     1      14.049   7.727  17.600  0.00  0.00    +0.119 C 
ATOM     17  C   UNL     1      13.846  10.091  18.395  0.00  0.00    +0.027 A 
ATOM     18  C   UNL     1      14.874  10.872  18.018  0.00  0.00    +0.024 A 
ATOM     19  C   UNL     1      13.828  11.103  20.635  0.00  0.00    +0.274 A 
ATOM     20  C   UNL     1      14.828   6.686  19.818  0.00  0.00    +0.306 C 
ATOM     21  C   UNL     1      14.976  11.920  20.168  0.00  0.00    +0.112 A 
ATOM     22  C   UNL     1      15.461  11.817  18.930  0.00  0.00    +0.031 A 
ATOM     32  H   UNL     1      16.269   6.787  18.326  0.00  0.00    +0.156 HD
ENDROOT
BRANCH   9  23
ATOM      2  F   UNL     1      20.784   7.253  22.301  0.00  0.00    -0.205 F 
ATOM     23  C   UNL     1      17.319   6.926  20.089  0.00  0.00    +0.035 A 
ATOM     26  C   UNL     1      17.465   7.972  20.996  0.00  0.00    +0.026 A 
ATOM     27  C   UNL     1      18.336   5.989  19.925  0.00  0.00    +0.026 A 
ATOM     29  C   UNL     1      18.638   8.083  21.744  0.00  0.00    +0.040 A 
ATOM     30  C   UNL     1      19.508   6.100  20.674  0.00  0.00    +0.040 A 
ATOM     31  C   UNL     1      19.658   7.147  21.582  0.00  0.00    +0.124 A 
ENDBRANCH   9  23
BRANCH  21  10
ATOM     10  N   UNL     1      15.582  12.850  21.031  0.00  0.00    -0.215 N 
ATOM     33  H   UNL     1      15.886  13.722  20.577  0.00  0.00    +0.173 HD
BRANCH  10   1
ATOM      1  S   UNL     1      16.713  12.201  22.130  0.00  0.00    +0.043 S 
ATOM      5  O   UNL     1      16.669  12.945  23.374  0.00  0.00    -0.155 OA
ATOM      6  O   UNL     1      16.620  10.754  22.117  0.00  0.00    -0.155 OA
BRANCH   1  24
ATOM     24  C   UNL     1      18.221  12.647  21.304  0.00  0.00    +0.188 C 
BRANCH  24  25
ATOM     25  C   UNL     1      18.748  11.502  20.457  0.00  0.00    +0.021 C 
ATOM     28  C   UNL     1      20.234  11.280  20.684  0.00  0.00    +0.005 C 
ENDBRANCH  24  25
ENDBRANCH   1  24
ENDBRANCH  10   1
ENDBRANCH  21  10
TORSDOF 5
ENDMDL
MODEL 3
REMARK VINA RESULT:      -6.4     14.480     17.500
REMARK  Name = 11867236
REMARK  6 active torsions:
REMARK  status: ('A' for Active; 'I' for Inactive)
REMARK    1  A    between atoms: S_1  and  N_10
REMARK    2  A    between atoms: S_1  and  C_24
REMARK    3  A    between atoms: N_9  and  C_23
REMARK    4  A    between atoms: N_10  and  C_21
REMARK    5  A    between atoms: C_24  and  C_25
REMARK    6  A    between atoms: C_25  and  C_28
REMARK                            x       y       z     vdW  Elec       q    Type
REMARK                         _______ _______ _______ _____ _____    ______ ____
ROOT
ATOM      3  O   UNL     1      10.023   7.620   1.128  0.00  0.00    -0.266 OA
ATOM      4  O   UNL     1      11.836   9.400   5.725  0.00  0.00    -0.252 OA
ATOM      7  N   UNL     1       9.728   6.545   3.189  0.00  0.00    -0.310 N 
ATOM      8  N   UNL     1      10.600   7.484   6.114  0.00  0.00    -0.284 N 
ATOM      9  N   UNL     1      12.959   7.403   6.081  0.00  0.00    -0.269 N 
ATOM     11  C   UNL     1       8.320   7.526   5.087  0.00  0.00    +0.027 C 
ATOM     12  C   UNL     1       9.471   5.378   5.409  0.00  0.00    +0.054 C 
ATOM     13  C   UNL     1       8.116   6.074   5.501  0.00  0.00    +0.018 C 
ATOM     14  C   UNL     1       8.767   7.567   3.620  0.00  0.00    +0.130 C 
ATOM     15  C   UNL     1       9.331   8.212   6.020  0.00  0.00    +0.114 C 
ATOM     16  C   UNL     1      10.468   6.040   6.383  0.00  0.00    +0.119 C 
ATOM     17  C   UNL     1      10.022   5.437   3.996  0.00  0.00    +0.027 A 
ATOM     18  C   UNL     1      10.814   4.452   3.536  0.00  0.00    +0.024 A 
ATOM     19  C   UNL     1      10.256   6.681   1.888  0.00  0.00    +0.274 A 
ATOM     20  C   UNL     1      11.814   8.187   5.948  0.00  0.00    +0.306 C 
ATOM     21  C   UNL     1      11.141   5.574   1.447  0.00  0.00    +0.112 A 
ATOM     22  C   UNL     1      11.394   4.519   2.221  0.00  0.00    +0.031 A 
ATOM     32  H   UNL     1      12.910   6.578   6.670  0.00  0.00    +0.156 HD
ENDROOT
BRANCH   9  23
ATOM      2  F   UNL     1      17.947   8.372   3.875  0.00  0.00    -0.205 F 
ATOM     23  C   UNL     1      14.234   7.649   5.517  0.00  0.00    +0.035 A 
ATOM     26  C   UNL     1      14.469   7.348   4.178  0.00  0.00    +0.026 A 
ATOM     27  C   UNL     1      15.245   8.193   6.305  0.00  0.00    +0.026 A 
ATOM     29  C   UNL     1      15.726   7.592   3.623  0.00  0.00    +0.040 A 
ATOM     30  C   UNL     1      16.502   8.437   5.749  0.00  0.00    +0.040 A 
ATOM     31  C   UNL     1      16.741   8.136   4.408  0.00  0.00    +0.124 A 
ENDBRANCH   9  23
BRANCH  21  10
ATOM     10  N   UNL     1      11.733   5.606   0.172  0.00  0.00    -0.215 N 
ATOM     33  H   UNL     1      12.214   6.487  -0.056  0.00  0.00    +0.173 HD
BRANCH  10   1
ATOM      1  S   UNL     1      10.779   4.980  -1.095  0.00  0.00    +0.043 S 
ATOM      5  O   UNL     1       9.467   4.625  -0.589  0.00  0.00    -0.155 OA
ATOM      6  O   UNL     1      10.930   5.818  -2.268  0.00  0.00    -0.155 OA
BRANCH   1  24
ATOM     24  C   UNL     1      11.652   3.464  -1.403  0.00  0.00    +0.188 C 
BRANCH  24  25
ATOM     25  C   UNL     1      13.119   3.584  -1.030  0.00  0.00    +0.021 C 
ATOM     28  C   UNL     1      13.959   4.036  -2.213  0.00  0.00    +0.005 C 
ENDBRANCH  24  25
ENDBRANCH   1  24
ENDBRANCH  10   1
ENDBRANCH  21  10
TORSDOF 5
ENDMDL
MODEL 4
REMARK VINA RESULT:      -6.4     27.921     29.581
REMARK  Name = 11867236
REMARK  6 active torsions:
REMARK  status: ('A' for Active; 'I' for Inactive)
REMARK    1  A    between atoms: S_1  and  N_10
REMARK    2  A    between atoms: S_1  and  C_24
REMARK    3  A    between atoms: N_9  and  C_23
REMARK    4  A    between atoms: N_10  and  C_21
REMARK    5  A    between atoms: C_24  and  C_25
REMARK    6  A    between atoms: C_25  and  C_28
REMARK                            x       y       z     vdW  Elec       q    Type
REMARK                         _______ _______ _______ _____ _____    ______ ____
ROOT
ATOM      3  O   UNL     1      -4.878 -14.174  15.917  0.00  0.00    -0.266 OA
ATOM      4  O   UNL     1      -9.292 -11.545  14.824  0.00  0.00    -0.252 OA
ATOM      7  N   UNL     1      -5.616 -12.266  17.059  0.00  0.00    -0.310 N 
ATOM      8  N   UNL     1      -8.306 -10.587  16.685  0.00  0.00    -0.284 N 
ATOM      9  N   UNL     1      -8.085  -9.583  14.560  0.00  0.00    -0.269 N 
ATOM     11  C   UNL     1      -7.739 -12.227  18.486  0.00  0.00    +0.027 C 
ATOM     12  C   UNL     1      -6.401 -10.180  18.237  0.00  0.00    +0.054 C 
ATOM     13  C   UNL     1      -7.034 -11.120  19.260  0.00  0.00    +0.018 C 
ATOM     14  C   UNL     1      -6.694 -13.028  17.699  0.00  0.00    +0.130 C 
ATOM     15  C   UNL     1      -8.823 -11.634  17.571  0.00  0.00    +0.114 C 
ATOM     16  C   UNL     1      -7.498  -9.551  17.354  0.00  0.00    +0.119 C 
ATOM     17  C   UNL     1      -5.400 -10.915  17.363  0.00  0.00    +0.027 A 
ATOM     18  C   UNL     1      -4.337 -10.265  16.858  0.00  0.00    +0.024 A 
ATOM     19  C   UNL     1      -4.750 -12.985  16.209  0.00  0.00    +0.274 A 
ATOM     20  C   UNL     1      -8.606 -10.640  15.306  0.00  0.00    +0.306 C 
ATOM     21  C   UNL     1      -3.610 -12.207  15.663  0.00  0.00    +0.112 A 
ATOM     22  C   UNL     1      -3.411 -10.927  15.979  0.00  0.00    +0.031 A 
ATOM     32  H   UNL     1      -7.932  -8.696  15.027  0.00  0.00    +0.156 HD
ENDROOT
BRANCH   9  23
ATOM      2  F   UNL     1      -6.883  -9.571   9.152  0.00  0.00    -0.205 F 
ATOM     23  C   UNL     1      -7.777  -9.582  13.177  0.00  0.00    +0.035 A 
ATOM     26  C   UNL     1      -8.797  -9.734  12.242  0.00  0.00    +0.026 A 
ATOM     27  C   UNL     1      -6.458  -9.426  12.763  0.00  0.00    +0.026 A 
ATOM     29  C   UNL     1      -8.494  -9.731  10.879  0.00  0.00    +0.040 A 
ATOM     30  C   UNL     1      -6.155  -9.423  11.400  0.00  0.00    +0.040 A 
ATOM     31  C   UNL     1      -7.173  -9.575  10.460  0.00  0.00    +0.124 A 
ENDBRANCH   9  23
BRANCH  21  10
ATOM     10  N   UNL     1      -2.687 -12.817  14.796  0.00  0.00    -0.215 N 
ATOM     33  H   UNL     1      -1.706 -12.550  14.956  0.00  0.00    +0.173 HD
BRANCH  10   1
ATOM      1  S   UNL     1      -3.141 -12.858  13.152  0.00  0.00    +0.043 S 
ATOM      5  O   UNL     1      -2.816 -14.153  12.587  0.00  0.00    -0.155 OA
ATOM      6  O   UNL     1      -4.466 -12.287  13.007  0.00  0.00    -0.155 OA
BRANCH   1  24
ATOM     24  C   UNL     1      -1.978 -11.689  12.493  0.00  0.00    +0.188 C 
BRANCH  24  25
ATOM     25  C   UNL     1      -2.597 -10.308  12.360  0.00  0.00    +0.021 C 
ATOM     28  C   UNL     1      -2.543  -9.810  10.925  0.00  0.00    +0.005 C 
ENDBRANCH  24  25
ENDBRANCH   1  24
ENDBRANCH  10   1
ENDBRANCH  21  10
TORSDOF 5
ENDMDL
MODEL 5
REMARK VINA RESULT:      -6.3     27.678     29.831
REMARK  Name = 11867236
REMARK  6 active torsions:
REMARK  status: ('A' for Active; 'I' for Inactive)
REMARK    1  A    between atoms: S_1  and  N_10
REMARK    2  A    between atoms: S_1  and  C_24
REMARK    3  A    between atoms: N_9  and  C_23
REMARK    4  A    between atoms: N_10  and  C_21
REMARK    5  A    between atoms: C_24  and  C_25
REMARK    6  A    between atoms: C_25  and  C_28
REMARK                            x       y       z     vdW  Elec       q    Type
REMARK                         _______ _______ _______ _____ _____    ______ ____
ROOT
ATOM      3  O   UNL     1      -7.812  -8.479  16.877  0.00  0.00    -0.266 OA
ATOM      4  O   UNL     1      -3.013 -10.590  16.561  0.00  0.00    -0.252 OA
ATOM      7  N   UNL     1      -7.332 -10.756  17.150  0.00  0.00    -0.310 N 
ATOM      8  N   UNL     1      -4.512 -12.253  17.147  0.00  0.00    -0.284 N 
ATOM      9  N   UNL     1      -3.744 -12.060  14.923  0.00  0.00    -0.269 N 
ATOM     11  C   UNL     1      -5.956 -11.669  19.104  0.00  0.00    +0.027 C 
ATOM     12  C   UNL     1      -6.800 -13.209  17.384  0.00  0.00    +0.054 C 
ATOM     13  C   UNL     1      -6.752 -12.949  18.888  0.00  0.00    +0.018 C 
ATOM     14  C   UNL     1      -6.705 -10.500  18.452  0.00  0.00    +0.130 C 
ATOM     15  C   UNL     1      -4.530 -11.824  18.549  0.00  0.00    +0.114 C 
ATOM     16  C   UNL     1      -5.370 -13.412  16.842  0.00  0.00    +0.119 C 
ATOM     17  C   UNL     1      -7.466 -12.059  16.651  0.00  0.00    +0.027 A 
ATOM     18  C   UNL     1      -8.147 -12.285  15.513  0.00  0.00    +0.024 A 
ATOM     19  C   UNL     1      -7.883  -9.642  16.482  0.00  0.00    +0.274 A 
ATOM     20  C   UNL     1      -3.704 -11.554  16.222  0.00  0.00    +0.306 C 
ATOM     21  C   UNL     1      -8.601  -9.953  15.221  0.00  0.00    +0.112 A 
ATOM     22  C   UNL     1      -8.734 -11.202  14.771  0.00  0.00    +0.031 A 
ATOM     32  H   UNL     1      -3.946 -13.047  14.799  0.00  0.00    +0.156 HD
ENDROOT
BRANCH   9  23
ATOM      2  F   UNL     1      -2.710  -9.303  10.231  0.00  0.00    -0.205 F 
ATOM     23  C   UNL     1      -3.480 -11.357  13.723  0.00  0.00    +0.035 A 
ATOM     26  C   UNL     1      -4.516 -10.703  13.062  0.00  0.00    +0.026 A 
ATOM     27  C   UNL     1      -2.185 -11.321  13.213  0.00  0.00    +0.026 A 
ATOM     29  C   UNL     1      -4.255 -10.008  11.880  0.00  0.00    +0.040 A 
ATOM     30  C   UNL     1      -1.925 -10.627  12.030  0.00  0.00    +0.040 A 
ATOM     31  C   UNL     1      -2.960  -9.971  11.365  0.00  0.00    +0.124 A 
ENDBRANCH   9  23
BRANCH  21  10
ATOM     10  N   UNL     1      -9.182  -8.921  14.464  0.00  0.00    -0.215 N 
ATOM     33  H   UNL     1      -8.588  -8.089  14.345  0.00  0.00    +0.173 HD
BRANCH  10   1
ATOM      1  S   UNL     1     -10.811  -8.572  14.829  0.00  0.00    +0.043 S 
ATOM      5  O   UNL     1     -11.575  -8.463  13.601  0.00  0.00    -0.155 OA
ATOM      6  O   UNL     1     -11.253  -9.425  15.914  0.00  0.00    -0.155 OA
BRANCH   1  24
ATOM     24  C   UNL     1     -10.625  -6.930  15.480  0.00  0.00    +0.188 C 
BRANCH  24  25
ATOM     25  C   UNL     1     -11.778  -6.034  15.060  0.00  0.00    +0.021 C 
ATOM     28  C   UNL     1     -13.045  -6.360  15.834  0.00  0.00    +0.005 C 
ENDBRANCH  24  25
ENDBRANCH   1  24
ENDBRANCH  10   1
ENDBRANCH  21  10
TORSDOF 5
ENDMDL
MODEL 6
REMARK VINA RESULT:      -6.2     13.601     16.403
REMARK  Name = 11867236
REMARK  6 active torsions:
REMARK  status: ('A' for Active; 'I' for Inactive)
REMARK    1  A    between atoms: S_1  and  N_10
REMARK    2  A    between atoms: S_1  and  C_24
REMARK    3  A    between atoms: N_9  and  C_23
REMARK    4  A    between atoms: N_10  and  C_21
REMARK    5  A    between atoms: C_24  and  C_25
REMARK    6  A    between atoms: C_25  and  C_28
REMARK                            x       y       z     vdW  Elec       q    Type
REMARK                         _______ _______ _______ _____ _____    ______ ____
ROOT
ATOM      3  O   UNL     1       9.228   7.900   2.512  0.00  0.00    -0.266 OA
ATOM      4  O   UNL     1      12.273   9.675   6.406  0.00  0.00    -0.252 OA
ATOM      7  N   UNL     1       9.378   6.932   4.641  0.00  0.00    -0.310 N 
ATOM      8  N   UNL     1      11.028   7.894   7.199  0.00  0.00    -0.284 N 
ATOM      9  N   UNL     1      13.288   7.599   6.589  0.00  0.00    -0.269 N 
ATOM     11  C   UNL     1       8.573   8.105   6.768  0.00  0.00    +0.027 C 
ATOM     12  C   UNL     1       9.596   5.875   6.919  0.00  0.00    +0.054 C 
ATOM     13  C   UNL     1       8.366   6.694   7.303  0.00  0.00    +0.018 C 
ATOM     14  C   UNL     1       8.639   8.052   5.236  0.00  0.00    +0.130 C 
ATOM     15  C   UNL     1       9.837   8.731   7.380  0.00  0.00    +0.114 C 
ATOM     16  C   UNL     1      10.854   6.480   7.576  0.00  0.00    +0.119 C 
ATOM     17  C   UNL     1       9.777   5.832   5.413  0.00  0.00    +0.027 A 
ATOM     18  C   UNL     1      10.347   4.763   4.829  0.00  0.00    +0.024 A 
ATOM     19  C   UNL     1       9.570   6.971   3.244  0.00  0.00    +0.274 A 
ATOM     20  C   UNL     1      12.212   8.478   6.698  0.00  0.00    +0.306 C 
ATOM     21  C   UNL     1      10.226   5.774   2.663  0.00  0.00    +0.112 A 
ATOM     22  C   UNL     1      10.582   4.729   3.411  0.00  0.00    +0.031 A 
ATOM     32  H   UNL     1      13.324   6.804   7.218  0.00  0.00    +0.156 HD
ENDROOT
BRANCH   9  23
ATOM      2  F   UNL     1      17.624   8.018   3.166  0.00  0.00    -0.205 F 
ATOM     23  C   UNL     1      14.396   7.707   5.714  0.00  0.00    +0.035 A 
ATOM     26  C   UNL     1      15.554   8.353   6.139  0.00  0.00    +0.026 A 
ATOM     27  C   UNL     1      14.322   7.165   4.434  0.00  0.00    +0.026 A 
ATOM     29  C   UNL     1      16.646   8.459   5.276  0.00  0.00    +0.040 A 
ATOM     30  C   UNL     1      15.415   7.271   3.572  0.00  0.00    +0.040 A 
ATOM     31  C   UNL     1      16.576   7.917   3.994  0.00  0.00    +0.124 A 
ENDBRANCH   9  23
BRANCH  21  10
ATOM     10  N   UNL     1      10.479   5.705   1.282  0.00  0.00    -0.215 N 
ATOM     33  H   UNL     1      10.422   4.758   0.882  0.00  0.00    +0.173 HD
BRANCH  10   1
ATOM      1  S   UNL     1      11.812   6.617   0.734  0.00  0.00    +0.043 S 
ATOM      5  O   UNL     1      11.439   7.362  -0.453  0.00  0.00    -0.155 OA
ATOM      6  O   UNL     1      12.442   7.271   1.864  0.00  0.00    -0.155 OA
BRANCH   1  24
ATOM     24  C   UNL     1      12.882   5.299   0.213  0.00  0.00    +0.188 C 
BRANCH  24  25
ATOM     25  C   UNL     1      13.701   4.760   1.373  0.00  0.00    +0.021 C 
ATOM     28  C   UNL     1      13.433   3.282   1.604  0.00  0.00    +0.005 C 
ENDBRANCH  24  25
ENDBRANCH   1  24
ENDBRANCH  10   1
ENDBRANCH  21  10
TORSDOF 5
ENDMDL
MODEL 7
REMARK VINA RESULT:      -6.1     13.174     17.126
REMARK  Name = 11867236
REMARK  6 active torsions:
REMARK  status: ('A' for Active; 'I' for Inactive)
REMARK    1  A    between atoms: S_1  and  N_10
REMARK    2  A    between atoms: S_1  and  C_24
REMARK    3  A    between atoms: N_9  and  C_23
REMARK    4  A    between atoms: N_10  and  C_21
REMARK    5  A    between atoms: C_24  and  C_25
REMARK    6  A    between atoms: C_25  and  C_28
REMARK                            x       y       z     vdW  Elec       q    Type
REMARK                         _______ _______ _______ _____ _____    ______ ____
ROOT
ATOM      3  O   UNL     1      11.101   9.476   4.654  0.00  0.00    -0.266 OA
ATOM      4  O   UNL     1      15.103   8.583   1.371  0.00  0.00    -0.252 OA
ATOM      7  N   UNL     1      13.315   9.091   5.317  0.00  0.00    -0.310 N 
ATOM      8  N   UNL     1      15.927   8.669   3.531  0.00  0.00    -0.284 N 
ATOM      9  N   UNL     1      15.582   6.593   2.461  0.00  0.00    -0.269 N 
ATOM     11  C   UNL     1      15.229  10.708   4.799  0.00  0.00    +0.027 C 
ATOM     12  C   UNL     1      15.693   8.620   6.010  0.00  0.00    +0.054 C 
ATOM     13  C   UNL     1      15.870  10.136   6.057  0.00  0.00    +0.018 C 
ATOM     14  C   UNL     1      13.724  10.414   4.829  0.00  0.00    +0.130 C 
ATOM     15  C   UNL     1      15.906  10.135   3.544  0.00  0.00    +0.114 C 
ATOM     16  C   UNL     1      16.415   8.046   4.775  0.00  0.00    +0.119 C 
ATOM     17  C   UNL     1      14.223   8.242   5.964  0.00  0.00    +0.027 A 
ATOM     18  C   UNL     1      13.804   7.086   6.509  0.00  0.00    +0.024 A 
ATOM     19  C   UNL     1      11.948   8.766   5.196  0.00  0.00    +0.274 A 
ATOM     20  C   UNL     1      15.498   7.982   2.374  0.00  0.00    +0.306 C 
ATOM     21  C   UNL     1      11.551   7.467   5.795  0.00  0.00    +0.112 A 
ATOM     22  C   UNL     1      12.427   6.681   6.423  0.00  0.00    +0.031 A 
ATOM     32  H   UNL     1      16.284   6.193   3.075  0.00  0.00    +0.156 HD
ENDROOT
BRANCH   9  23
ATOM      2  F   UNL     1      12.597   2.871  -0.352  0.00  0.00    -0.205 F 
ATOM     23  C   UNL     1      14.819   5.643   1.741  0.00  0.00    +0.035 A 
ATOM     26  C   UNL     1      15.387   4.974   0.660  0.00  0.00    +0.026 A 
ATOM     27  C   UNL     1      13.505   5.380   2.120  0.00  0.00    +0.026 A 
ATOM     29  C   UNL     1      14.634   4.037  -0.049  0.00  0.00    +0.040 A 
ATOM     30  C   UNL     1      12.754   4.442   1.411  0.00  0.00    +0.040 A 
ATOM     31  C   UNL     1      13.319   3.771   0.327  0.00  0.00    +0.124 A 
ENDBRANCH   9  23
BRANCH  21  10
ATOM     10  N   UNL     1      10.216   7.033   5.726  0.00  0.00    -0.215 N 
ATOM     33  H   UNL     1       9.713   7.327   4.878  0.00  0.00    +0.173 HD
BRANCH  10   1
ATOM      1  S   UNL     1       9.317   7.196   7.166  0.00  0.00    +0.043 S 
ATOM      5  O   UNL     1      10.072   7.977   8.128  0.00  0.00    -0.155 OA
ATOM      6  O   UNL     1       7.945   7.531   6.839  0.00  0.00    -0.155 OA
BRANCH   1  24
ATOM     24  C   UNL     1       9.339   5.511   7.724  0.00  0.00    +0.188 C 
BRANCH  24  25
ATOM     25  C   UNL     1       9.977   5.391   9.098  0.00  0.00    +0.021 C 
ATOM     28  C   UNL     1       9.062   4.670  10.074  0.00  0.00    +0.005 C 
ENDBRANCH  24  25
ENDBRANCH   1  24
ENDBRANCH  10   1
ENDBRANCH  21  10
TORSDOF 5
ENDMDL
MODEL 8
REMARK VINA RESULT:      -6.1     14.098     16.696
REMARK  Name = 11867236
REMARK  6 active torsions:
REMARK  status: ('A' for Active; 'I' for Inactive)
REMARK    1  A    between atoms: S_1  and  N_10
REMARK    2  A    between atoms: S_1  and  C_24
REMARK    3  A    between atoms: N_9  and  C_23
REMARK    4  A    between atoms: N_10  and  C_21
REMARK    5  A    between atoms: C_24  and  C_25
REMARK    6  A    between atoms: C_25  and  C_28
REMARK                            x       y       z     vdW  Elec       q    Type
REMARK                         _______ _______ _______ _____ _____    ______ ____
ROOT
ATOM      3  O   UNL     1      12.843   8.409   7.257  0.00  0.00    -0.266 OA
ATOM      4  O   UNL     1      10.366   4.438   4.873  0.00  0.00    -0.252 OA
ATOM      7  N   UNL     1      10.957   8.639   5.885  0.00  0.00    -0.310 N 
ATOM      8  N   UNL     1       9.200   6.392   4.451  0.00  0.00    -0.284 N 
ATOM      9  N   UNL     1      10.635   5.475   2.816  0.00  0.00    -0.269 N 
ATOM     11  C   UNL     1       8.656   7.708   6.507  0.00  0.00    +0.027 C 
ATOM     12  C   UNL     1       8.961   8.869   4.363  0.00  0.00    +0.054 C 
ATOM     13  C   UNL     1       8.117   8.833   5.634  0.00  0.00    +0.018 C 
ATOM     14  C   UNL     1      10.098   8.040   6.914  0.00  0.00    +0.130 C 
ATOM     15  C   UNL     1       8.559   6.363   5.769  0.00  0.00    +0.114 C 
ATOM     16  C   UNL     1       8.820   7.535   3.602  0.00  0.00    +0.119 C 
ATOM     17  C   UNL     1      10.423   9.123   4.683  0.00  0.00    +0.027 A 
ATOM     18  C   UNL     1      11.206   9.774   3.804  0.00  0.00    +0.024 A 
ATOM     19  C   UNL     1      12.320   8.797   6.212  0.00  0.00    +0.274 A 
ATOM     20  C   UNL     1      10.102   5.363   4.100  0.00  0.00    +0.306 C 
ATOM     21  C   UNL     1      13.137   9.502   5.193  0.00  0.00    +0.112 A 
ATOM     22  C   UNL     1      12.607   9.972   4.063  0.00  0.00    +0.031 A 
ATOM     32  H   UNL     1      10.086   5.952   2.109  0.00  0.00    +0.156 HD
ENDROOT
BRANCH   9  23
ATOM      2  F   UNL     1      15.444   3.408   1.004  0.00  0.00    -0.205 F 
ATOM     23  C   UNL     1      11.864   4.947   2.352  0.00  0.00    +0.035 A 
ATOM     26  C   UNL     1      12.978   5.775   2.249  0.00  0.00    +0.026 A 
ATOM     27  C   UNL     1      11.951   3.602   2.003  0.00  0.00    +0.026 A 
ATOM     29  C   UNL     1      14.190   5.254   1.792  0.00  0.00    +0.040 A 
ATOM     30  C   UNL     1      13.163   3.082   1.546  0.00  0.00    +0.040 A 
ATOM     31  C   UNL     1      14.281   3.908   1.441  0.00  0.00    +0.124 A 
ENDBRANCH   9  23
BRANCH  21  10
ATOM     10  N   UNL     1      14.511   9.709   5.405  0.00  0.00    -0.215 N 
ATOM     33  H   UNL     1      14.836  10.666   5.212  0.00  0.00    +0.173 HD
BRANCH  10   1
ATOM      1  S   UNL     1      15.537   8.486   4.804  0.00  0.00    +0.043 S 
ATOM      5  O   UNL     1      14.844   7.212   4.827  0.00  0.00    -0.155 OA
ATOM      6  O   UNL     1      16.197   8.961   3.604  0.00  0.00    -0.155 OA
BRANCH   1  24
ATOM     24  C   UNL     1      16.748   8.449   6.102  0.00  0.00    +0.188 C 
BRANCH  24  25
ATOM     25  C   UNL     1      17.951   9.312   5.761  0.00  0.00    +0.021 C 
ATOM     28  C   UNL     1      19.254   8.612   6.110  0.00  0.00    +0.005 C 
ENDBRANCH  24  25
ENDBRANCH   1  24
ENDBRANCH  10   1
ENDBRANCH  21  10
TORSDOF 5
ENDMDL
MODEL 9
REMARK VINA RESULT:      -6.0     22.646     24.737
REMARK  Name = 11867236
REMARK  6 active torsions:
REMARK  status: ('A' for Active; 'I' for Inactive)
REMARK    1  A    between atoms: S_1  and  N_10
REMARK    2  A    between atoms: S_1  and  C_24
REMARK    3  A    between atoms: N_9  and  C_23
REMARK    4  A    between atoms: N_10  and  C_21
REMARK    5  A    between atoms: C_24  and  C_25
REMARK    6  A    between atoms: C_25  and  C_28
REMARK                            x       y       z     vdW  Elec       q    Type
REMARK                         _______ _______ _______ _____ _____    ______ ____
ROOT
ATOM      3  O   UNL     1      -6.436  10.354   5.549  0.00  0.00    -0.266 OA
ATOM      4  O   UNL     1      -2.370  12.281   2.839  0.00  0.00    -0.252 OA
ATOM      7  N   UNL     1      -4.216   9.643   5.782  0.00  0.00    -0.310 N 
ATOM      8  N   UNL     1      -1.571  10.742   4.370  0.00  0.00    -0.284 N 
ATOM      9  N   UNL     1      -1.826  10.152   2.099  0.00  0.00    -0.269 N 
ATOM     11  C   UNL     1      -2.360  11.140   6.710  0.00  0.00    +0.027 C 
ATOM     12  C   UNL     1      -1.829   8.855   5.976  0.00  0.00    +0.054 C 
ATOM     13  C   UNL     1      -1.710   9.832   7.143  0.00  0.00    +0.018 C 
ATOM     14  C   UNL     1      -3.853  10.895   6.457  0.00  0.00    +0.130 C 
ATOM     15  C   UNL     1      -1.649  11.707   5.470  0.00  0.00    +0.114 C 
ATOM     16  C   UNL     1      -1.073   9.408   4.751  0.00  0.00    +0.119 C 
ATOM     17  C   UNL     1      -3.283   8.611   5.612  0.00  0.00    +0.027 A 
ATOM     18  C   UNL     1      -3.662   7.428   5.098  0.00  0.00    +0.024 A 
ATOM     19  C   UNL     1      -5.569   9.493   5.410  0.00  0.00    +0.274 A 
ATOM     20  C   UNL     1      -1.963  11.140   3.073  0.00  0.00    +0.306 C 
ATOM     21  C   UNL     1      -5.921   8.174   4.827  0.00  0.00    +0.112 A 
ATOM     22  C   UNL     1      -5.023   7.198   4.691  0.00  0.00    +0.031 A 
ATOM     32  H   UNL     1      -1.116   9.440   2.234  0.00  0.00    +0.156 HD
ENDROOT
BRANCH   9  23
ATOM      2  F   UNL     1      -4.638   9.732  -2.656  0.00  0.00    -0.205 F 
ATOM     23  C   UNL     1      -2.545  10.043   0.884  0.00  0.00    +0.035 A 
ATOM     26  C   UNL     1      -3.935  10.125   0.892  0.00  0.00    +0.026 A 
ATOM     27  C   UNL     1      -1.857   9.858  -0.313  0.00  0.00    +0.026 A 
ATOM     29  C   UNL     1      -4.643  10.018  -0.306  0.00  0.00    +0.040 A 
ATOM     30  C   UNL     1      -2.566   9.753  -1.510  0.00  0.00    +0.040 A 
ATOM     31  C   UNL     1      -3.958   9.833  -1.506  0.00  0.00    +0.124 A 
ENDBRANCH   9  23
BRANCH  21  10
ATOM     10  N   UNL     1      -7.238   7.913   4.411  0.00  0.00    -0.215 N 
ATOM     33  H   UNL     1      -7.712   8.708   3.961  0.00  0.00    +0.173 HD
BRANCH  10   1
ATOM      1  S   UNL     1      -8.205   7.062   5.528  0.00  0.00    +0.043 S 
ATOM      5  O   UNL     1      -7.657   5.735   5.738  0.00  0.00    -0.155 OA
ATOM      6  O   UNL     1      -8.522   7.928   6.646  0.00  0.00    -0.155 OA
BRANCH   1  24
ATOM     24  C   UNL     1      -9.683   6.874   4.561  0.00  0.00    +0.188 C 
BRANCH  24  25
ATOM     25  C   UNL     1     -10.141   5.426   4.527  0.00  0.00    +0.021 C 
ATOM     28  C   UNL     1      -9.874   4.790   3.173  0.00  0.00    +0.005 C 
ENDBRANCH  24  25
ENDBRANCH   1  24
ENDBRANCH  10   1
ENDBRANCH  21  10
TORSDOF 5
ENDMDL
MODEL 10
REMARK VINA RESULT:      -6.0     27.931     29.598
REMARK  Name = 11867236
REMARK  6 active torsions:
REMARK  status: ('A' for Active; 'I' for Inactive)
REMARK    1  A    between atoms: S_1  and  N_10
REMARK    2  A    between atoms: S_1  and  C_24
REMARK    3  A    between atoms: N_9  and  C_23
REMARK    4  A    between atoms: N_10  and  C_21
REMARK    5  A    between atoms: C_24  and  C_25
REMARK    6  A    between atoms: C_25  and  C_28
REMARK                            x       y       z     vdW  Elec       q    Type
REMARK                         _______ _______ _______ _____ _____    ______ ____
ROOT
ATOM      3  O   UNL     1      -7.799 -12.663  12.056  0.00  0.00    -0.266 OA
ATOM      4  O   UNL     1      -3.415 -13.153  14.908  0.00  0.00    -0.252 OA
ATOM      7  N   UNL     1      -5.829 -11.445  11.701  0.00  0.00    -0.310 N 
ATOM      8  N   UNL     1      -3.012 -11.658  13.189  0.00  0.00    -0.284 N 
ATOM      9  N   UNL     1      -3.440 -10.882  15.376  0.00  0.00    -0.269 N 
ATOM     11  C   UNL     1      -3.641 -12.523  10.928  0.00  0.00    +0.027 C 
ATOM     12  C   UNL     1      -3.718 -10.107  11.372  0.00  0.00    +0.054 C 
ATOM     13  C   UNL     1      -3.338 -11.156  10.329  0.00  0.00    +0.018 C 
ATOM     14  C   UNL     1      -5.151 -12.636  11.175  0.00  0.00    +0.130 C 
ATOM     15  C   UNL     1      -2.827 -12.737  12.214  0.00  0.00    +0.114 C 
ATOM     16  C   UNL     1      -2.863 -10.297  12.642  0.00  0.00    +0.119 C 
ATOM     17  C   UNL     1      -5.191 -10.198  11.729  0.00  0.00    +0.027 A 
ATOM     18  C   UNL     1      -5.866  -9.096  12.103  0.00  0.00    +0.024 A 
ATOM     19  C   UNL     1      -7.181 -11.600  12.074  0.00  0.00    +0.274 A 
ATOM     20  C   UNL     1      -3.308 -11.983  14.531  0.00  0.00    +0.306 C 
ATOM     21  C   UNL     1      -7.865 -10.353  12.501  0.00  0.00    +0.112 A 
ATOM     22  C   UNL     1      -7.246  -9.172  12.503  0.00  0.00    +0.031 A 
ATOM     32  H   UNL     1      -2.932 -10.035  15.144  0.00  0.00    +0.156 HD
ENDROOT
BRANCH   9  23
ATOM      2  F   UNL     1      -6.338 -10.618  20.090  0.00  0.00    -0.205 F 
ATOM     23  C   UNL     1      -4.180 -10.813  16.582  0.00  0.00    +0.035 A 
ATOM     26  C   UNL     1      -5.359 -10.074  16.629  0.00  0.00    +0.026 A 
ATOM     27  C   UNL     1      -3.726 -11.488  17.712  0.00  0.00    +0.026 A 
ATOM     29  C   UNL     1      -6.089 -10.007  17.817  0.00  0.00    +0.040 A 
ATOM     30  C   UNL     1      -4.457 -11.421  18.899  0.00  0.00    +0.040 A 
ATOM     31  C   UNL     1      -5.637 -10.681  18.951  0.00  0.00    +0.124 A 
ENDBRANCH   9  23
BRANCH  21  10
ATOM     10  N   UNL     1      -9.210 -10.386  12.905  0.00  0.00    -0.215 N 
ATOM     33  H   UNL     1      -9.792  -9.628  12.523  0.00  0.00    +0.173 HD
BRANCH  10   1
ATOM      1  S   UNL     1      -9.470 -10.701  14.561  0.00  0.00    +0.043 S 
ATOM      5  O   UNL     1     -10.669 -11.502  14.724  0.00  0.00    -0.155 OA
ATOM      6  O   UNL     1      -8.218 -11.091  15.178  0.00  0.00    -0.155 OA
BRANCH   1  24
ATOM     24  C   UNL     1      -9.855  -9.060  15.120  0.00  0.00    +0.188 C 
BRANCH  24  25
ATOM     25  C   UNL     1      -9.048  -8.692  16.354  0.00  0.00    +0.021 C 
ATOM     28  C   UNL     1      -9.922  -8.047  17.417  0.00  0.00    +0.005 C 
ENDBRANCH  24  25
ENDBRANCH   1  24
ENDBRANCH  10   1
ENDBRANCH  21  10
TORSDOF 5
ENDMDL
