REMARK  Name = 11882069
REMARK  11 active torsions:
REMARK  status: ('A' for Active; 'I' for Inactive)
REMARK    1  A    between atoms: S_2  and  C_35
REMARK    2  A    between atoms: S_2  and  C_38
REMARK    3  A    between atoms: N_8  and  C_13
REMARK    4  A    between atoms: N_9  and  C_20
REMARK    5  A    between atoms: N_10  and  C_28
REMARK    6  A    between atoms: N_11  and  C_29
REMARK    7  A    between atoms: C_14  and  C_17
REMARK    8  A    between atoms: C_18  and  C_19
REMARK    9  A    between atoms: C_20  and  C_22
REMARK   10  A    between atoms: C_20  and  C_24
REMARK   11  A    between atoms: C_22  and  C_27
REMARK                            x       y       z     vdW  Elec       q    Type
REMARK                         _______ _______ _______ _____ _____    ______ ____
ROOT
ATOM      4  O   UNL     1       2.238  -1.552  -1.362  0.00  0.00    -0.268 OA
ATOM      7  N   UNL     1       1.173  -1.814   0.667  0.00  0.00    -0.283 N 
ATOM     13  C   UNL     1      -0.365  -0.462   1.864  0.00  0.00    +0.105 C 
ATOM     14  C   UNL     1       0.669  -0.445   0.738  0.00  0.00    +0.182 C 
ATOM     15  C   UNL     1       0.129  -1.584   2.781  0.00  0.00    +0.043 C 
ATOM     16  C   UNL     1       0.723  -2.601   1.816  0.00  0.00    +0.111 C 
ATOM     18  C   UNL     1       1.897  -2.284  -0.432  0.00  0.00    +0.264 C 
ENDROOT
BRANCH  13   8
ATOM      5  O   UNL     1      -2.361   1.445   1.101  0.00  0.00    -0.252 OA
ATOM      8  N   UNL     1      -1.685  -0.751   1.357  0.00  0.00    -0.294 N 
ATOM     11  N   UNL     1      -3.792  -0.332   0.548  0.00  0.00    -0.269 N 
ATOM     21  C   UNL     1      -2.604   0.244   1.005  0.00  0.00    +0.304 C 
ATOM     39  H   UNL     1      -1.938  -1.719   1.185  0.00  0.00    +0.151 HD
ATOM     41  H   UNL     1      -3.831  -1.348   0.533  0.00  0.00    +0.156 HD
BRANCH  11  29
ATOM     29  C   UNL     1      -4.961   0.328   0.100  0.00  0.00    +0.036 A 
ATOM     31  C   UNL     1      -6.063  -0.415  -0.323  0.00  0.00    +0.038 A 
ATOM     32  C   UNL     1      -5.010   1.722   0.082  0.00  0.00    +0.023 A 
ATOM     35  C   UNL     1      -7.215   0.236  -0.764  0.00  0.00    +0.009 A 
ATOM     36  C   UNL     1      -6.162   2.373  -0.359  0.00  0.00    +0.003 A 
ATOM     37  C   UNL     1      -7.264   1.630  -0.782  0.00  0.00    +0.015 A 
BRANCH  35   2
ATOM      2  S   UNL     1      -8.625  -0.711  -1.303  0.00  0.00    -0.129 S 
ATOM     38  C   UNL     1      -7.926  -1.659  -2.684  0.00  0.00    +0.090 C 
ENDBRANCH  35   2
ENDBRANCH  11  29
ENDBRANCH  13   8
BRANCH  18  19
ATOM     10  N   UNL     1       3.547  -4.167  -0.451  0.00  0.00    -0.346 N 
ATOM     19  C   UNL     1       2.261  -3.695  -0.415  0.00  0.00    +0.104 A 
ATOM     23  C   UNL     1       1.415  -4.780  -0.363  0.00  0.00    +0.032 A 
ATOM     25  C   UNL     1       3.534  -5.537  -0.422  0.00  0.00    +0.086 A 
ATOM     26  C   UNL     1       2.220  -5.946  -0.368  0.00  0.00    +0.020 A 
ATOM     28  C   UNL     1       4.745  -3.359  -0.509  0.00  0.00    +0.149 C 
ENDBRANCH  18  19
BRANCH  14  17
ATOM      3  O   UNL     1       2.772   0.018   1.770  0.00  0.00    -0.274 OA
ATOM      9  N   UNL     1       1.708   1.707   0.572  0.00  0.00    -0.302 N 
ATOM     17  C   UNL     1       1.838   0.429   1.086  0.00  0.00    +0.236 C 
ATOM     40  H   UNL     1       0.851   1.957   0.088  0.00  0.00    +0.150 HD
BRANCH   9  20
ATOM     20  C   UNL     1       2.688   2.748   0.785  0.00  0.00    +0.163 C 
BRANCH  20  24
ATOM      6  O   UNL     1       1.189   3.599   2.498  0.00  0.00    -0.274 OA
ATOM     12  N   UNL     1       3.455   3.790   2.827  0.00  0.00    -0.328 N 
ATOM     24  C   UNL     1       2.340   3.428   2.100  0.00  0.00    +0.231 C 
ATOM     42  H   UNL     1       3.363   4.239   3.732  0.00  0.00    +0.145 HD
ATOM     43  H   UNL     1       4.400   3.640   2.488  0.00  0.00    +0.145 HD
ENDBRANCH  20  24
BRANCH  20  22
ATOM     22  C   UNL     1       2.708   3.771  -0.358  0.00  0.00    +0.074 C 
BRANCH  22  27
ATOM      1  S   UNL     1       4.792   4.182  -2.161  0.00  0.00    -0.102 S 
ATOM     27  C   UNL     1       3.471   3.271  -1.562  0.00  0.00    -0.008 A 
ATOM     30  C   UNL     1       3.255   2.128  -2.299  0.00  0.00    +0.011 A 
ATOM     33  C   UNL     1       4.187   1.997  -3.370  0.00  0.00    +0.008 A 
ATOM     34  C   UNL     1       5.079   3.046  -3.410  0.00  0.00    +0.045 A 
ENDBRANCH  22  27
ENDBRANCH  20  22
ENDBRANCH   9  20
ENDBRANCH  14  17
TORSDOF 9
