MODEL 1
REMARK VINA RESULT:      -8.0      0.000      0.000
REMARK  Name = 25390802
REMARK  5 active torsions:
REMARK  status: ('A' for Active; 'I' for Inactive)
REMARK    1  A    between atoms: N_5  and  C_11
REMARK    2  A    between atoms: N_6  and  C_12
REMARK    3  A    between atoms: C_16  and  C_17
REMARK    4  A    between atoms: C_18  and  C_22
REMARK    5  A    between atoms: C_27  and  C_30
REMARK                            x       y       z     vdW  Elec       q    Type
REMARK                         _______ _______ _______ _____ _____    ______ ____
ROOT
ATOM      5  N   UNL     1      13.408  12.441  14.503  0.00  0.00    -0.306 N 
ATOM      7  N   UNL     1      12.124  12.211  12.581  0.00  0.00    -0.214 NA
ATOM      8  N   UNL     1      12.333  14.336  13.699  0.00  0.00    -0.223 NA
ATOM     15  C   UNL     1      12.586  13.022  13.552  0.00  0.00    +0.216 A 
ATOM     18  C   UNL     1      11.325  12.809  11.674  0.00  0.00    +0.076 A 
ATOM     20  C   UNL     1      11.526  14.869  12.757  0.00  0.00    +0.116 A 
ATOM     21  C   UNL     1      10.988  14.147  11.712  0.00  0.00    +0.048 A 
ATOM     36  H   UNL     1      13.715  13.033  15.266  0.00  0.00    +0.149 HD
ENDROOT
BRANCH   5  11
ATOM      2  O   UNL     1      15.478  10.825  16.141  0.00  0.00    -0.370 OA
ATOM      3  O   UNL     1      13.097   8.930  15.452  0.00  0.00    -0.370 OA
ATOM      9  C   UNL     1      13.190  10.343  15.695  0.00  0.00    +0.171 C 
ATOM     10  C   UNL     1      14.225  10.544  16.786  0.00  0.00    +0.171 C 
ATOM     11  C   UNL     1      13.780  11.043  14.494  0.00  0.00    +0.130 C 
ATOM     12  C   UNL     1      14.283   9.207  17.489  0.00  0.00    +0.130 C 
ATOM     13  C   UNL     1      15.273  10.896  14.722  0.00  0.00    +0.185 C 
ATOM     14  C   UNL     1      13.958   8.236  16.368  0.00  0.00    +0.185 C 
BRANCH  12   6
ATOM      4  O   UNL     1      14.209   7.284  19.620  0.00  0.00    -0.270 OA
ATOM      6  N   UNL     1      13.304   9.131  18.547  0.00  0.00    -0.303 N 
ATOM     16  C   UNL     1      13.352   8.159  19.537  0.00  0.00    +0.251 C 
ATOM     37  H   UNL     1      12.534   9.790  18.519  0.00  0.00    +0.149 HD
BRANCH  16  17
ATOM      1  S   UNL     1      11.692   6.733  21.218  0.00  0.00    -0.092 S 
ATOM     17  C   UNL     1      12.257   8.200  20.540  0.00  0.00    +0.074 A 
ATOM     19  C   UNL     1      11.583   9.294  21.040  0.00  0.00    +0.021 A 
ATOM     23  C   UNL     1      10.591   8.920  21.992  0.00  0.00    +0.008 A 
ATOM     24  C   UNL     1      10.544   7.557  22.184  0.00  0.00    +0.046 A 
ENDBRANCH  16  17
ENDBRANCH  12   6
ENDBRANCH   5  11
BRANCH  18  22
ATOM     22  C   UNL     1      10.827  11.945  10.631  0.00  0.00    +0.001 A 
ATOM     25  C   UNL     1      11.685  11.497   9.626  0.00  0.00    +0.010 A 
ATOM     26  C   UNL     1       9.486  11.558  10.626  0.00  0.00    +0.010 A 
ATOM     27  C   UNL     1       9.863  10.277   8.612  0.00  0.00    -0.018 A 
ATOM     28  C   UNL     1      11.203  10.664   8.616  0.00  0.00    +0.009 A 
ATOM     29  C   UNL     1       9.004  10.725   9.617  0.00  0.00    +0.009 A 
BRANCH  27  30
ATOM     30  C   UNL     1       9.362   9.413   7.565  0.00  0.00    -0.018 A 
ATOM     31  C   UNL     1       8.972   8.107   7.866  0.00  0.00    +0.008 A 
ATOM     32  C   UNL     1       9.266   9.885   6.256  0.00  0.00    +0.008 A 
ATOM     33  C   UNL     1       8.487   7.274   6.858  0.00  0.00    +0.001 A 
ATOM     34  C   UNL     1       8.781   9.052   5.248  0.00  0.00    +0.001 A 
ATOM     35  C   UNL     1       8.393   7.747   5.549  0.00  0.00    +0.000 A 
ENDBRANCH  27  30
ENDBRANCH  18  22
TORSDOF 5
ENDMDL
MODEL 2
REMARK VINA RESULT:      -7.9     26.988     31.166
REMARK  Name = 25390802
REMARK  5 active torsions:
REMARK  status: ('A' for Active; 'I' for Inactive)
REMARK    1  A    between atoms: N_5  and  C_11
REMARK    2  A    between atoms: N_6  and  C_12
REMARK    3  A    between atoms: C_16  and  C_17
REMARK    4  A    between atoms: C_18  and  C_22
REMARK    5  A    between atoms: C_27  and  C_30
REMARK                            x       y       z     vdW  Elec       q    Type
REMARK                         _______ _______ _______ _____ _____    ______ ____
ROOT
ATOM      5  N   UNL     1     -16.603   4.293  22.269  0.00  0.00    -0.306 N 
ATOM      7  N   UNL     1     -16.651   3.219  24.329  0.00  0.00    -0.214 NA
ATOM      8  N   UNL     1     -17.597   2.196  22.362  0.00  0.00    -0.223 NA
ATOM     15  C   UNL     1     -16.966   3.187  23.019  0.00  0.00    +0.216 A 
ATOM     18  C   UNL     1     -17.022   2.127  25.029  0.00  0.00    +0.076 A 
ATOM     20  C   UNL     1     -17.939   1.136  23.123  0.00  0.00    +0.116 A 
ATOM     21  C   UNL     1     -17.675   1.046  24.474  0.00  0.00    +0.048 A 
ATOM     36  H   UNL     1     -16.885   4.298  21.296  0.00  0.00    +0.149 HD
ENDROOT
BRANCH   5  11
ATOM      2  O   UNL     1     -13.601   4.972  22.598  0.00  0.00    -0.370 OA
ATOM      3  O   UNL     1     -15.155   7.642  22.160  0.00  0.00    -0.370 OA
ATOM      9  C   UNL     1     -15.364   6.296  21.702  0.00  0.00    +0.171 C 
ATOM     10  C   UNL     1     -13.999   5.698  21.423  0.00  0.00    +0.171 C 
ATOM     11  C   UNL     1     -15.919   5.444  22.818  0.00  0.00    +0.130 C 
ATOM     12  C   UNL     1     -13.105   6.901  21.222  0.00  0.00    +0.130 C 
ATOM     13  C   UNL     1     -14.668   5.007  23.557  0.00  0.00    +0.185 C 
ATOM     14  C   UNL     1     -13.751   7.940  22.120  0.00  0.00    +0.185 C 
BRANCH  12   6
ATOM      4  O   UNL     1     -10.840   7.796  19.700  0.00  0.00    -0.270 OA
ATOM      6  N   UNL     1     -13.107   7.328  19.843  0.00  0.00    -0.303 N 
ATOM     16  C   UNL     1     -11.956   7.746  19.190  0.00  0.00    +0.251 C 
ATOM     37  H   UNL     1     -14.002   7.363  19.367  0.00  0.00    +0.149 HD
BRANCH  16  17
ATOM      1  S   UNL     1     -10.744   8.547  16.845  0.00  0.00    -0.092 S 
ATOM     17  C   UNL     1     -12.129   8.178  17.780  0.00  0.00    +0.074 A 
ATOM     19  C   UNL     1     -13.295   8.340  17.062  0.00  0.00    +0.021 A 
ATOM     23  C   UNL     1     -13.046   8.772  15.728  0.00  0.00    +0.008 A 
ATOM     24  C   UNL     1     -11.700   8.925  15.476  0.00  0.00    +0.046 A 
ENDBRANCH  16  17
ENDBRANCH  12   6
ENDBRANCH   5  11
BRANCH  18  22
ATOM     22  C   UNL     1     -16.687   2.157  26.432  0.00  0.00    +0.001 A 
ATOM     25  C   UNL     1     -16.157   3.315  27.000  0.00  0.00    +0.010 A 
ATOM     26  C   UNL     1     -16.892   1.024  27.222  0.00  0.00    +0.010 A 
ATOM     27  C   UNL     1     -16.036   2.211  29.145  0.00  0.00    -0.018 A 
ATOM     28  C   UNL     1     -15.831   3.342  28.356  0.00  0.00    +0.009 A 
ATOM     29  C   UNL     1     -16.566   1.051  28.578  0.00  0.00    +0.009 A 
BRANCH  27  30
ATOM     30  C   UNL     1     -15.698   2.238  30.552  0.00  0.00    -0.018 A 
ATOM     31  C   UNL     1     -15.102   1.126  31.147  0.00  0.00    +0.008 A 
ATOM     32  C   UNL     1     -15.967   3.376  31.312  0.00  0.00    +0.008 A 
ATOM     33  C   UNL     1     -14.774   1.152  32.503  0.00  0.00    +0.001 A 
ATOM     34  C   UNL     1     -15.640   3.402  32.668  0.00  0.00    +0.001 A 
ATOM     35  C   UNL     1     -15.044   2.290  33.263  0.00  0.00    +0.000 A 
ENDBRANCH  27  30
ENDBRANCH  18  22
TORSDOF 5
ENDMDL
MODEL 3
REMARK VINA RESULT:      -7.8     15.957     20.150
REMARK  Name = 25390802
REMARK  5 active torsions:
REMARK  status: ('A' for Active; 'I' for Inactive)
REMARK    1  A    between atoms: N_5  and  C_11
REMARK    2  A    between atoms: N_6  and  C_12
REMARK    3  A    between atoms: C_16  and  C_17
REMARK    4  A    between atoms: C_18  and  C_22
REMARK    5  A    between atoms: C_27  and  C_30
REMARK                            x       y       z     vdW  Elec       q    Type
REMARK                         _______ _______ _______ _____ _____    ______ ____
ROOT
ATOM      5  N   UNL     1       7.581   6.221  -4.246  0.00  0.00    -0.306 N 
ATOM      7  N   UNL     1       5.398   5.524  -4.629  0.00  0.00    -0.214 NA
ATOM      8  N   UNL     1       5.878   7.729  -3.779  0.00  0.00    -0.223 NA
ATOM     15  C   UNL     1       6.226   6.504  -4.218  0.00  0.00    +0.216 A 
ATOM     18  C   UNL     1       4.086   5.834  -4.585  0.00  0.00    +0.076 A 
ATOM     20  C   UNL     1       4.551   7.970  -3.761  0.00  0.00    +0.116 A 
ATOM     21  C   UNL     1       3.599   7.052  -4.156  0.00  0.00    +0.048 A 
ATOM     36  H   UNL     1       8.206   6.933  -3.888  0.00  0.00    +0.149 HD
ENDROOT
BRANCH   5  11
ATOM      2  O   UNL     1      10.361   5.419  -5.347  0.00  0.00    -0.370 OA
ATOM      3  O   UNL     1       9.191   2.975  -3.799  0.00  0.00    -0.370 OA
ATOM      9  C   UNL     1       9.056   4.396  -3.639  0.00  0.00    +0.171 C 
ATOM     10  C   UNL     1      10.401   5.016  -3.967  0.00  0.00    +0.171 C 
ATOM     11  C   UNL     1       8.126   4.955  -4.690  0.00  0.00    +0.130 C 
ATOM     12  C   UNL     1      11.384   3.884  -3.778  0.00  0.00    +0.130 C 
ATOM     13  C   UNL     1       9.050   5.168  -5.874  0.00  0.00    +0.185 C 
ATOM     14  C   UNL     1      10.551   2.667  -4.141  0.00  0.00    +0.185 C 
BRANCH  12   6
ATOM      4  O   UNL     1      14.104   4.054  -2.874  0.00  0.00    -0.270 OA
ATOM      6  N   UNL     1      11.843   3.814  -2.412  0.00  0.00    -0.303 N 
ATOM     16  C   UNL     1      13.186   3.906  -2.071  0.00  0.00    +0.251 C 
ATOM     37  H   UNL     1      11.148   3.642  -1.694  0.00  0.00    +0.149 HD
BRANCH  16  17
ATOM      1  S   UNL     1      15.093   4.107  -0.088  0.00  0.00    -0.092 S 
ATOM     17  C   UNL     1      13.498   3.790  -0.624  0.00  0.00    +0.074 A 
ATOM     19  C   UNL     1      12.661   3.449   0.416  0.00  0.00    +0.021 A 
ATOM     23  C   UNL     1      13.339   3.447   1.669  0.00  0.00    +0.008 A 
ATOM     24  C   UNL     1      14.667   3.787   1.540  0.00  0.00    +0.046 A 
ENDBRANCH  16  17
ENDBRANCH  12   6
ENDBRANCH   5  11
BRANCH  18  22
ATOM     22  C   UNL     1       3.194   4.788  -5.025  0.00  0.00    +0.001 A 
ATOM     25  C   UNL     1       3.541   3.986  -6.112  0.00  0.00    +0.010 A 
ATOM     26  C   UNL     1       1.983   4.580  -4.363  0.00  0.00    +0.010 A 
ATOM     27  C   UNL     1       1.468   2.769  -5.877  0.00  0.00    -0.018 A 
ATOM     28  C   UNL     1       2.678   2.977  -6.539  0.00  0.00    +0.009 A 
ATOM     29  C   UNL     1       1.120   3.571  -4.790  0.00  0.00    +0.009 A 
BRANCH  27  30
ATOM     30  C   UNL     1       0.571   1.723  -6.319  0.00  0.00    -0.018 A 
ATOM     31  C   UNL     1       0.364   0.599  -5.519  0.00  0.00    +0.008 A 
ATOM     32  C   UNL     1      -0.087   1.838  -7.544  0.00  0.00    +0.008 A 
ATOM     33  C   UNL     1      -0.502  -0.410  -5.944  0.00  0.00    +0.001 A 
ATOM     34  C   UNL     1      -0.952   0.830  -7.968  0.00  0.00    +0.001 A 
ATOM     35  C   UNL     1      -1.159  -0.294  -7.169  0.00  0.00    +0.000 A 
ENDBRANCH  27  30
ENDBRANCH  18  22
TORSDOF 5
ENDMDL
MODEL 4
REMARK VINA RESULT:      -7.7     13.171     19.658
REMARK  Name = 25390802
REMARK  5 active torsions:
REMARK  status: ('A' for Active; 'I' for Inactive)
REMARK    1  A    between atoms: N_5  and  C_11
REMARK    2  A    between atoms: N_6  and  C_12
REMARK    3  A    between atoms: C_16  and  C_17
REMARK    4  A    between atoms: C_18  and  C_22
REMARK    5  A    between atoms: C_27  and  C_30
REMARK                            x       y       z     vdW  Elec       q    Type
REMARK                         _______ _______ _______ _____ _____    ______ ____
ROOT
ATOM      5  N   UNL     1       9.895   4.885  -4.414  0.00  0.00    -0.306 N 
ATOM      7  N   UNL     1      10.553   4.532  -2.214  0.00  0.00    -0.214 NA
ATOM      8  N   UNL     1      11.475   3.229  -4.021  0.00  0.00    -0.223 NA
ATOM     15  C   UNL     1      10.676   4.185  -3.511  0.00  0.00    +0.216 A 
ATOM     18  C   UNL     1      11.326   3.828  -1.363  0.00  0.00    +0.076 A 
ATOM     20  C   UNL     1      12.219   2.565  -3.113  0.00  0.00    +0.116 A 
ATOM     21  C   UNL     1      12.186   2.824  -1.758  0.00  0.00    +0.048 A 
ATOM     36  H   UNL     1       9.943   4.593  -5.383  0.00  0.00    +0.149 HD
ENDROOT
BRANCH   5  11
ATOM      2  O   UNL     1       7.913   6.614  -6.046  0.00  0.00    -0.370 OA
ATOM      3  O   UNL     1       6.741   6.247  -3.178  0.00  0.00    -0.370 OA
ATOM      9  C   UNL     1       7.565   5.421  -4.016  0.00  0.00    +0.171 C 
ATOM     10  C   UNL     1       7.084   5.607  -5.443  0.00  0.00    +0.171 C 
ATOM     11  C   UNL     1       8.983   5.942  -4.034  0.00  0.00    +0.130 C 
ATOM     12  C   UNL     1       5.668   6.113  -5.290  0.00  0.00    +0.130 C 
ATOM     13  C   UNL     1       8.933   7.006  -5.115  0.00  0.00    +0.185 C 
ATOM     14  C   UNL     1       5.737   6.882  -3.983  0.00  0.00    +0.185 C 
BRANCH  12   6
ATOM      4  O   UNL     1       2.885   6.184  -5.993  0.00  0.00    -0.270 OA
ATOM      6  N   UNL     1       4.730   5.019  -5.205  0.00  0.00    -0.303 N 
ATOM     16  C   UNL     1       3.397   5.151  -5.568  0.00  0.00    +0.251 C 
ATOM     37  H   UNL     1       5.065   4.146  -4.815  0.00  0.00    +0.149 HD
BRANCH  16  17
ATOM      1  S   UNL     1       1.065   4.072  -4.564  0.00  0.00    -0.092 S 
ATOM     17  C   UNL     1       2.554   3.940  -5.397  0.00  0.00    +0.074 A 
ATOM     19  C   UNL     1       2.794   2.653  -5.827  0.00  0.00    +0.021 A 
ATOM     23  C   UNL     1       1.741   1.764  -5.466  0.00  0.00    +0.008 A 
ATOM     24  C   UNL     1       0.736   2.405  -4.776  0.00  0.00    +0.046 A 
ENDBRANCH  16  17
ENDBRANCH  12   6
ENDBRANCH   5  11
BRANCH  18  22
ATOM     22  C   UNL     1      11.198   4.195   0.027  0.00  0.00    +0.001 A 
ATOM     25  C   UNL     1      10.212   5.099   0.423  0.00  0.00    +0.010 A 
ATOM     26  C   UNL     1      12.064   3.648   0.976  0.00  0.00    +0.010 A 
ATOM     27  C   UNL     1      10.956   4.909   2.714  0.00  0.00    -0.018 A 
ATOM     28  C   UNL     1      10.091   5.456   1.766  0.00  0.00    +0.009 A 
ATOM     29  C   UNL     1      11.943   4.006   2.318  0.00  0.00    +0.009 A 
BRANCH  27  30
ATOM     30  C   UNL     1      10.831   5.279   4.107  0.00  0.00    -0.018 A 
ATOM     31  C   UNL     1       9.962   4.574   4.940  0.00  0.00    +0.008 A 
ATOM     32  C   UNL     1      11.580   6.339   4.618  0.00  0.00    +0.008 A 
ATOM     33  C   UNL     1       9.842   4.929   6.284  0.00  0.00    +0.001 A 
ATOM     34  C   UNL     1      11.460   6.694   5.962  0.00  0.00    +0.001 A 
ATOM     35  C   UNL     1      10.591   5.989   6.794  0.00  0.00    +0.000 A 
ENDBRANCH  27  30
ENDBRANCH  18  22
TORSDOF 5
ENDMDL
MODEL 5
REMARK VINA RESULT:      -7.4     10.067     13.880
REMARK  Name = 25390802
REMARK  5 active torsions:
REMARK  status: ('A' for Active; 'I' for Inactive)
REMARK    1  A    between atoms: N_5  and  C_11
REMARK    2  A    between atoms: N_6  and  C_12
REMARK    3  A    between atoms: C_16  and  C_17
REMARK    4  A    between atoms: C_18  and  C_22
REMARK    5  A    between atoms: C_27  and  C_30
REMARK                            x       y       z     vdW  Elec       q    Type
REMARK                         _______ _______ _______ _____ _____    ______ ____
ROOT
ATOM      5  N   UNL     1       3.940  13.211   5.505  0.00  0.00    -0.306 N 
ATOM      7  N   UNL     1       1.868  12.276   5.988  0.00  0.00    -0.214 NA
ATOM      8  N   UNL     1       2.945  13.794   7.521  0.00  0.00    -0.223 NA
ATOM     15  C   UNL     1       2.870  13.089   6.376  0.00  0.00    +0.216 A 
ATOM     18  C   UNL     1       0.845  12.179   6.862  0.00  0.00    +0.076 A 
ATOM     20  C   UNL     1       1.889  13.649   8.348  0.00  0.00    +0.116 A 
ATOM     21  C   UNL     1       0.801  12.848   8.068  0.00  0.00    +0.048 A 
ATOM     36  H   UNL     1       4.720  13.778   5.814  0.00  0.00    +0.149 HD
ENDROOT
BRANCH   5  11
ATOM      2  O   UNL     1       6.279  12.738   3.535  0.00  0.00    -0.370 OA
ATOM      3  O   UNL     1       4.341  10.300   3.338  0.00  0.00    -0.370 OA
ATOM      9  C   UNL     1       4.700  11.187   4.410  0.00  0.00    +0.171 C 
ATOM     10  C   UNL     1       6.176  11.501   4.260  0.00  0.00    +0.171 C 
ATOM     11  C   UNL     1       4.019  12.524   4.234  0.00  0.00    +0.130 C 
ATOM     12  C   UNL     1       6.712  10.358   3.429  0.00  0.00    +0.130 C 
ATOM     13  C   UNL     1       4.963  13.258   3.299  0.00  0.00    +0.185 C 
ATOM     14  C   UNL     1       5.515   9.990   2.571  0.00  0.00    +0.185 C 
BRANCH  12   6
ATOM      4  O   UNL     1       9.235  10.053   4.767  0.00  0.00    -0.270 OA
ATOM      6  N   UNL     1       7.118   9.251   4.262  0.00  0.00    -0.303 N 
ATOM     16  C   UNL     1       8.364   9.193   4.869  0.00  0.00    +0.251 C 
ATOM     37  H   UNL     1       6.472   8.475   4.354  0.00  0.00    +0.149 HD
BRANCH  16  17
ATOM      1  S   UNL     1       8.995   8.141   7.341  0.00  0.00    -0.092 S 
ATOM     17  C   UNL     1       8.638   7.976   5.675  0.00  0.00    +0.074 A 
ATOM     19  C   UNL     1       8.654   6.658   5.271  0.00  0.00    +0.021 A 
ATOM     23  C   UNL     1       8.961   5.774   6.345  0.00  0.00    +0.008 A 
ATOM     24  C   UNL     1       9.170   6.449   7.528  0.00  0.00    +0.046 A 
ENDBRANCH  16  17
ENDBRANCH  12   6
ENDBRANCH   5  11
BRANCH  18  22
ATOM     22  C   UNL     1      -0.231  11.310   6.451  0.00  0.00    +0.001 A 
ATOM     25  C   UNL     1      -0.786  10.408   7.359  0.00  0.00    +0.010 A 
ATOM     26  C   UNL     1      -0.716  11.371   5.144  0.00  0.00    +0.010 A 
ATOM     27  C   UNL     1      -2.309   9.627   5.655  0.00  0.00    -0.018 A 
ATOM     28  C   UNL     1      -1.824   9.566   6.961  0.00  0.00    +0.009 A 
ATOM     29  C   UNL     1      -1.755  10.529   4.746  0.00  0.00    +0.009 A 
BRANCH  27  30
ATOM     30  C   UNL     1      -3.386   8.754   5.241  0.00  0.00    -0.018 A 
ATOM     31  C   UNL     1      -4.496   9.282   4.580  0.00  0.00    +0.008 A 
ATOM     32  C   UNL     1      -3.314   7.385   5.500  0.00  0.00    +0.008 A 
ATOM     33  C   UNL     1      -5.534   8.440   4.179  0.00  0.00    +0.001 A 
ATOM     34  C   UNL     1      -4.352   6.544   5.099  0.00  0.00    +0.001 A 
ATOM     35  C   UNL     1      -5.462   7.072   4.439  0.00  0.00    +0.000 A 
ENDBRANCH  27  30
ENDBRANCH  18  22
TORSDOF 5
ENDMDL
MODEL 6
REMARK VINA RESULT:      -7.3     26.635     29.637
REMARK  Name = 25390802
REMARK  5 active torsions:
REMARK  status: ('A' for Active; 'I' for Inactive)
REMARK    1  A    between atoms: N_5  and  C_11
REMARK    2  A    between atoms: N_6  and  C_12
REMARK    3  A    between atoms: C_16  and  C_17
REMARK    4  A    between atoms: C_18  and  C_22
REMARK    5  A    between atoms: C_27  and  C_30
REMARK                            x       y       z     vdW  Elec       q    Type
REMARK                         _______ _______ _______ _____ _____    ______ ____
ROOT
ATOM      5  N   UNL     1      -0.838 -15.236   3.738  0.00  0.00    -0.306 N 
ATOM      7  N   UNL     1       0.426 -14.960   1.809  0.00  0.00    -0.214 NA
ATOM      8  N   UNL     1       1.216 -16.315   3.639  0.00  0.00    -0.223 NA
ATOM     15  C   UNL     1       0.319 -15.517   3.031  0.00  0.00    +0.216 A 
ATOM     18  C   UNL     1       1.567 -15.252   1.150  0.00  0.00    +0.076 A 
ATOM     20  C   UNL     1       2.333 -16.565   2.923  0.00  0.00    +0.116 A 
ATOM     21  C   UNL     1       2.564 -16.055   1.662  0.00  0.00    +0.048 A 
ATOM     36  H   UNL     1      -0.901 -15.608   4.679  0.00  0.00    +0.149 HD
ENDROOT
BRANCH   5  11
ATOM      2  O   UNL     1      -3.876 -15.145   4.324  0.00  0.00    -0.370 OA
ATOM      3  O   UNL     1      -2.934 -12.249   3.644  0.00  0.00    -0.370 OA
ATOM      9  C   UNL     1      -2.290 -13.371   4.269  0.00  0.00    +0.171 C 
ATOM     10  C   UNL     1      -3.334 -14.074   5.116  0.00  0.00    +0.171 C 
ATOM     11  C   UNL     1      -1.903 -14.398   3.232  0.00  0.00    +0.130 C 
ATOM     12  C   UNL     1      -4.385 -13.016   5.359  0.00  0.00    +0.130 C 
ATOM     13  C   UNL     1      -3.177 -15.206   3.072  0.00  0.00    +0.185 C 
ATOM     14  C   UNL     1      -4.293 -12.172   4.100  0.00  0.00    +0.185 C 
BRANCH  12   6
ATOM      4  O   UNL     1      -6.267 -11.691   7.076  0.00  0.00    -0.270 OA
ATOM      6  N   UNL     1      -4.078 -12.236   6.534  0.00  0.00    -0.303 N 
ATOM     16  C   UNL     1      -5.061 -11.630   7.304  0.00  0.00    +0.251 C 
ATOM     37  H   UNL     1      -3.100 -12.096   6.759  0.00  0.00    +0.149 HD
BRANCH  16  17
ATOM      1  S   UNL     1      -4.082 -11.663   9.883  0.00  0.00    -0.092 S 
ATOM     17  C   UNL     1      -4.582 -10.841   8.467  0.00  0.00    +0.074 A 
ATOM     19  C   UNL     1      -4.469  -9.473   8.596  0.00  0.00    +0.021 A 
ATOM     23  C   UNL     1      -3.965  -9.097   9.874  0.00  0.00    +0.008 A 
ATOM     24  C   UNL     1      -3.713 -10.190  10.674  0.00  0.00    +0.046 A 
ENDBRANCH  16  17
ENDBRANCH  12   6
ENDBRANCH   5  11
BRANCH  18  22
ATOM     22  C   UNL     1       1.687 -14.657  -0.160  0.00  0.00    +0.001 A 
ATOM     25  C   UNL     1       0.569 -14.097  -0.778  0.00  0.00    +0.010 A 
ATOM     26  C   UNL     1       2.923 -14.644  -0.809  0.00  0.00    +0.010 A 
ATOM     27  C   UNL     1       1.920 -13.513  -2.694  0.00  0.00    -0.018 A 
ATOM     28  C   UNL     1       0.685 -13.526  -2.045  0.00  0.00    +0.009 A 
ATOM     29  C   UNL     1       3.039 -14.073  -2.076  0.00  0.00    +0.009 A 
BRANCH  27  30
ATOM     30  C   UNL     1       2.042 -12.920  -4.008  0.00  0.00    -0.018 A 
ATOM     31  C   UNL     1       1.543 -11.639  -4.244  0.00  0.00    +0.008 A 
ATOM     32  C   UNL     1       2.659 -13.628  -5.039  0.00  0.00    +0.008 A 
ATOM     33  C   UNL     1       1.661 -11.066  -5.510  0.00  0.00    +0.001 A 
ATOM     34  C   UNL     1       2.778 -13.055  -6.305  0.00  0.00    +0.001 A 
ATOM     35  C   UNL     1       2.279 -11.775  -6.541  0.00  0.00    +0.000 A 
ENDBRANCH  27  30
ENDBRANCH  18  22
TORSDOF 5
ENDMDL
MODEL 7
REMARK VINA RESULT:      -7.3     27.782     30.920
REMARK  Name = 25390802
REMARK  5 active torsions:
REMARK  status: ('A' for Active; 'I' for Inactive)
REMARK    1  A    between atoms: N_5  and  C_11
REMARK    2  A    between atoms: N_6  and  C_12
REMARK    3  A    between atoms: C_16  and  C_17
REMARK    4  A    between atoms: C_18  and  C_22
REMARK    5  A    between atoms: C_27  and  C_30
REMARK                            x       y       z     vdW  Elec       q    Type
REMARK                         _______ _______ _______ _____ _____    ______ ____
ROOT
ATOM      5  N   UNL     1     -14.021  -6.220  14.836  0.00  0.00    -0.306 N 
ATOM      7  N   UNL     1     -12.575  -7.603  16.018  0.00  0.00    -0.214 NA
ATOM      8  N   UNL     1     -14.956  -7.669  16.392  0.00  0.00    -0.223 NA
ATOM     15  C   UNL     1     -13.843  -7.208  15.790  0.00  0.00    +0.216 A 
ATOM     18  C   UNL     1     -12.440  -8.563  16.955  0.00  0.00    +0.076 A 
ATOM     20  C   UNL     1     -14.746  -8.627  17.318  0.00  0.00    +0.116 A 
ATOM     21  C   UNL     1     -13.499  -9.118  17.644  0.00  0.00    +0.048 A 
ATOM     36  H   UNL     1     -14.966  -5.881  14.699  0.00  0.00    +0.149 HD
ENDROOT
BRANCH   5  11
ATOM      2  O   UNL     1     -13.257  -6.278  11.837  0.00  0.00    -0.370 OA
ATOM      3  O   UNL     1     -12.352  -3.533  13.013  0.00  0.00    -0.370 OA
ATOM      9  C   UNL     1     -13.437  -4.424  13.318  0.00  0.00    +0.171 C 
ATOM     10  C   UNL     1     -13.918  -5.013  12.006  0.00  0.00    +0.171 C 
ATOM     11  C   UNL     1     -12.934  -5.616  14.096  0.00  0.00    +0.130 C 
ATOM     12  C   UNL     1     -13.441  -4.028  10.964  0.00  0.00    +0.130 C 
ATOM     13  C   UNL     1     -12.462  -6.554  13.000  0.00  0.00    +0.185 C 
ATOM     14  C   UNL     1     -12.171  -3.482  11.590  0.00  0.00    +0.185 C 
BRANCH  12   6
ATOM      4  O   UNL     1     -14.159  -2.836   8.451  0.00  0.00    -0.270 OA
ATOM      6  N   UNL     1     -14.412  -2.981  10.753  0.00  0.00    -0.303 N 
ATOM     16  C   UNL     1     -14.692  -2.466   9.494  0.00  0.00    +0.251 C 
ATOM     37  H   UNL     1     -14.859  -2.586  11.573  0.00  0.00    +0.149 HD
BRANCH  16  17
ATOM      1  S   UNL     1     -15.779  -0.375   8.060  0.00  0.00    -0.092 S 
ATOM     17  C   UNL     1     -15.697  -1.374   9.448  0.00  0.00    +0.074 A 
ATOM     19  C   UNL     1     -16.628  -1.015  10.399  0.00  0.00    +0.021 A 
ATOM     23  C   UNL     1     -17.418   0.094   9.981  0.00  0.00    +0.008 A 
ATOM     24  C   UNL     1     -17.062   0.541   8.728  0.00  0.00    +0.046 A 
ENDBRANCH  16  17
ENDBRANCH  12   6
ENDBRANCH   5  11
BRANCH  18  22
ATOM     22  C   UNL     1     -11.083  -8.990  17.202  0.00  0.00    +0.001 A 
ATOM     25  C   UNL     1     -10.023  -8.362  16.550  0.00  0.00    +0.010 A 
ATOM     26  C   UNL     1     -10.833 -10.034  18.094  0.00  0.00    +0.010 A 
ATOM     27  C   UNL     1      -8.463  -9.820  17.678  0.00  0.00    -0.018 A 
ATOM     28  C   UNL     1      -8.713  -8.777  16.787  0.00  0.00    +0.009 A 
ATOM     29  C   UNL     1      -9.523 -10.449  18.332  0.00  0.00    +0.009 A 
BRANCH  27  30
ATOM     30  C   UNL     1      -7.103 -10.251  17.926  0.00  0.00    -0.018 A 
ATOM     31  C   UNL     1      -6.769 -10.839  19.146  0.00  0.00    +0.008 A 
ATOM     32  C   UNL     1      -6.128 -10.081  16.944  0.00  0.00    +0.008 A 
ATOM     33  C   UNL     1      -5.460 -11.256  19.384  0.00  0.00    +0.001 A 
ATOM     34  C   UNL     1      -4.818 -10.498  17.182  0.00  0.00    +0.001 A 
ATOM     35  C   UNL     1      -4.484 -11.085  18.402  0.00  0.00    +0.000 A 
ENDBRANCH  27  30
ENDBRANCH  18  22
TORSDOF 5
ENDMDL
MODEL 8
REMARK VINA RESULT:      -7.2     27.395     31.828
REMARK  Name = 25390802
REMARK  5 active torsions:
REMARK  status: ('A' for Active; 'I' for Inactive)
REMARK    1  A    between atoms: N_5  and  C_11
REMARK    2  A    between atoms: N_6  and  C_12
REMARK    3  A    between atoms: C_16  and  C_17
REMARK    4  A    between atoms: C_18  and  C_22
REMARK    5  A    between atoms: C_27  and  C_30
REMARK                            x       y       z     vdW  Elec       q    Type
REMARK                         _______ _______ _______ _____ _____    ______ ____
ROOT
ATOM      5  N   UNL     1     -16.009   3.926  23.426  0.00  0.00    -0.306 N 
ATOM      7  N   UNL     1     -15.998   3.564  25.721  0.00  0.00    -0.214 NA
ATOM      8  N   UNL     1     -16.901   1.926  24.201  0.00  0.00    -0.223 NA
ATOM     15  C   UNL     1     -16.315   3.102  24.496  0.00  0.00    +0.216 A 
ATOM     18  C   UNL     1     -16.314   2.738  26.739  0.00  0.00    +0.076 A 
ATOM     20  C   UNL     1     -17.190   1.150  25.266  0.00  0.00    +0.116 A 
ATOM     21  C   UNL     1     -16.916   1.508  26.571  0.00  0.00    +0.048 A 
ATOM     36  H   UNL     1     -16.294   3.608  22.507  0.00  0.00    +0.149 HD
ENDROOT
BRANCH   5  11
ATOM      2  O   UNL     1     -13.480   5.163  22.140  0.00  0.00    -0.370 OA
ATOM      3  O   UNL     1     -15.519   7.464  22.674  0.00  0.00    -0.370 OA
ATOM      9  C   UNL     1     -15.670   6.072  22.354  0.00  0.00    +0.171 C 
ATOM     10  C   UNL     1     -14.566   5.713  21.376  0.00  0.00    +0.171 C 
ATOM     11  C   UNL     1     -15.379   5.221  23.567  0.00  0.00    +0.130 C 
ATOM     12  C   UNL     1     -14.166   7.039  20.772  0.00  0.00    +0.130 C 
ATOM     13  C   UNL     1     -13.869   5.077  23.519  0.00  0.00    +0.185 C 
ATOM     14  C   UNL     1     -14.433   8.009  21.908  0.00  0.00    +0.185 C 
BRANCH  12   6
ATOM      4  O   UNL     1     -13.246   8.143  18.285  0.00  0.00    -0.270 OA
ATOM      6  N   UNL     1     -14.973   7.351  19.616  0.00  0.00    -0.303 N 
ATOM     16  C   UNL     1     -14.435   7.885  18.454  0.00  0.00    +0.251 C 
ATOM     37  H   UNL     1     -15.974   7.214  19.696  0.00  0.00    +0.149 HD
BRANCH  16  17
ATOM      1  S   UNL     1     -14.846   8.219  15.746  0.00  0.00    -0.092 S 
ATOM     17  C   UNL     1     -15.402   8.174  17.364  0.00  0.00    +0.074 A 
ATOM     19  C   UNL     1     -16.754   8.429  17.453  0.00  0.00    +0.021 A 
ATOM     23  C   UNL     1     -17.339   8.662  16.175  0.00  0.00    +0.008 A 
ATOM     24  C   UNL     1     -16.413   8.578  15.159  0.00  0.00    +0.046 A 
ENDBRANCH  16  17
ENDBRANCH  12   6
ENDBRANCH   5  11
BRANCH  18  22
ATOM     22  C   UNL     1     -15.976   3.228  28.054  0.00  0.00    +0.001 A 
ATOM     25  C   UNL     1     -16.468   4.459  28.488  0.00  0.00    +0.010 A 
ATOM     26  C   UNL     1     -15.154   2.472  28.891  0.00  0.00    +0.010 A 
ATOM     27  C   UNL     1     -15.317   4.178  30.593  0.00  0.00    -0.018 A 
ATOM     28  C   UNL     1     -16.139   4.934  29.758  0.00  0.00    +0.009 A 
ATOM     29  C   UNL     1     -14.825   2.947  30.160  0.00  0.00    +0.009 A 
BRANCH  27  30
ATOM     30  C   UNL     1     -14.975   4.670  31.911  0.00  0.00    -0.018 A 
ATOM     31  C   UNL     1     -14.810   3.774  32.968  0.00  0.00    +0.008 A 
ATOM     32  C   UNL     1     -14.809   6.038  32.123  0.00  0.00    +0.008 A 
ATOM     33  C   UNL     1     -14.479   4.248  34.238  0.00  0.00    +0.001 A 
ATOM     34  C   UNL     1     -14.477   6.512  33.393  0.00  0.00    +0.001 A 
ATOM     35  C   UNL     1     -14.313   5.616  34.450  0.00  0.00    +0.000 A 
ENDBRANCH  27  30
ENDBRANCH  18  22
TORSDOF 5
ENDMDL
MODEL 9
REMARK VINA RESULT:      -7.1     28.032     31.779
REMARK  Name = 25390802
REMARK  5 active torsions:
REMARK  status: ('A' for Active; 'I' for Inactive)
REMARK    1  A    between atoms: N_5  and  C_11
REMARK    2  A    between atoms: N_6  and  C_12
REMARK    3  A    between atoms: C_16  and  C_17
REMARK    4  A    between atoms: C_18  and  C_22
REMARK    5  A    between atoms: C_27  and  C_30
REMARK                            x       y       z     vdW  Elec       q    Type
REMARK                         _______ _______ _______ _____ _____    ______ ____
ROOT
ATOM      5  N   UNL     1      -9.128  -8.357  15.933  0.00  0.00    -0.306 N 
ATOM      7  N   UNL     1      -9.040 -10.064  17.506  0.00  0.00    -0.214 NA
ATOM      8  N   UNL     1      -7.035  -9.202  16.481  0.00  0.00    -0.223 NA
ATOM     15  C   UNL     1      -8.367  -9.246  16.673  0.00  0.00    +0.216 A 
ATOM     18  C   UNL     1      -8.268 -10.919  18.208  0.00  0.00    +0.076 A 
ATOM     20  C   UNL     1      -6.325 -10.084  17.215  0.00  0.00    +0.116 A 
ATOM     21  C   UNL     1      -6.893 -10.975  18.103  0.00  0.00    +0.048 A 
ATOM     36  H   UNL     1      -8.633  -7.776  15.266  0.00  0.00    +0.149 HD
ENDROOT
BRANCH   5  11
ATOM      2  O   UNL     1     -11.044  -6.009  16.564  0.00  0.00    -0.370 OA
ATOM      3  O   UNL     1     -12.501  -7.946  14.599  0.00  0.00    -0.370 OA
ATOM      9  C   UNL     1     -11.121  -7.592  14.788  0.00  0.00    +0.171 C 
ATOM     10  C   UNL     1     -11.079  -6.115  15.130  0.00  0.00    +0.171 C 
ATOM     11  C   UNL     1     -10.570  -8.272  16.018  0.00  0.00    +0.130 C 
ATOM     12  C   UNL     1     -12.386  -5.575  14.595  0.00  0.00    +0.130 C 
ATOM     13  C   UNL     1     -10.975  -7.324  17.132  0.00  0.00    +0.185 C 
ATOM     14  C   UNL     1     -13.312  -6.769  14.737  0.00  0.00    +0.185 C 
BRANCH  12   6
ATOM      4  O   UNL     1     -13.799  -3.442  13.294  0.00  0.00    -0.270 OA
ATOM      6  N   UNL     1     -12.258  -5.173  13.215  0.00  0.00    -0.303 N 
ATOM     16  C   UNL     1     -12.988  -4.124  12.674  0.00  0.00    +0.251 C 
ATOM     37  H   UNL     1     -11.644  -5.722  12.624  0.00  0.00    +0.149 HD
BRANCH  16  17
ATOM      1  S   UNL     1     -14.101  -3.467  10.236  0.00  0.00    -0.092 S 
ATOM     17  C   UNL     1     -12.762  -3.852  11.232  0.00  0.00    +0.074 A 
ATOM     19  C   UNL     1     -11.578  -3.860  10.526  0.00  0.00    +0.021 A 
ATOM     23  C   UNL     1     -11.774  -3.546   9.150  0.00  0.00    +0.008 A 
ATOM     24  C   UNL     1     -13.099  -3.310   8.856  0.00  0.00    +0.046 A 
ENDBRANCH  16  17
ENDBRANCH  12   6
ENDBRANCH   5  11
BRANCH  18  22
ATOM     22  C   UNL     1      -8.983 -11.797  19.102  0.00  0.00    +0.001 A 
ATOM     25  C   UNL     1     -10.280 -11.480  19.505  0.00  0.00    +0.010 A 
ATOM     26  C   UNL     1      -8.376 -12.965  19.567  0.00  0.00    +0.010 A 
ATOM     27  C   UNL     1     -10.363 -13.494  20.834  0.00  0.00    -0.018 A 
ATOM     28  C   UNL     1     -10.970 -12.327  20.371  0.00  0.00    +0.009 A 
ATOM     29  C   UNL     1      -9.066 -13.813  20.433  0.00  0.00    +0.009 A 
BRANCH  27  30
ATOM     30  C   UNL     1     -11.078 -14.375  21.733  0.00  0.00    -0.018 A 
ATOM     31  C   UNL     1     -10.881 -15.754  21.661  0.00  0.00    +0.008 A 
ATOM     32  C   UNL     1     -11.963 -13.845  22.672  0.00  0.00    +0.008 A 
ATOM     33  C   UNL     1     -11.569 -16.603  22.529  0.00  0.00    +0.001 A 
ATOM     34  C   UNL     1     -12.651 -14.694  23.540  0.00  0.00    +0.001 A 
ATOM     35  C   UNL     1     -12.454 -16.073  23.467  0.00  0.00    +0.000 A 
ENDBRANCH  27  30
ENDBRANCH  18  22
TORSDOF 5
ENDMDL
MODEL 10
REMARK VINA RESULT:      -7.1     26.243     29.699
REMARK  Name = 25390802
REMARK  5 active torsions:
REMARK  status: ('A' for Active; 'I' for Inactive)
REMARK    1  A    between atoms: N_5  and  C_11
REMARK    2  A    between atoms: N_6  and  C_12
REMARK    3  A    between atoms: C_16  and  C_17
REMARK    4  A    between atoms: C_18  and  C_22
REMARK    5  A    between atoms: C_27  and  C_30
REMARK                            x       y       z     vdW  Elec       q    Type
REMARK                         _______ _______ _______ _____ _____    ______ ____
ROOT
ATOM      5  N   UNL     1      -6.580  12.561  33.925  0.00  0.00    -0.306 N 
ATOM      7  N   UNL     1      -5.007  11.446  35.221  0.00  0.00    -0.214 NA
ATOM      8  N   UNL     1      -4.381  13.299  33.812  0.00  0.00    -0.223 NA
ATOM     15  C   UNL     1      -5.265  12.430  34.338  0.00  0.00    +0.216 A 
ATOM     18  C   UNL     1      -3.716  11.346  35.599  0.00  0.00    +0.076 A 
ATOM     20  C   UNL     1      -3.109  13.141  34.234  0.00  0.00    +0.116 A 
ATOM     21  C   UNL     1      -2.715  12.172  35.134  0.00  0.00    +0.048 A 
ATOM     36  H   UNL     1      -6.771  13.264  33.221  0.00  0.00    +0.149 HD
ENDROOT
BRANCH   5  11
ATOM      2  O   UNL     1      -9.640  12.986  34.115  0.00  0.00    -0.370 OA
ATOM      3  O   UNL     1      -9.115   9.954  33.597  0.00  0.00    -0.370 OA
ATOM      9  C   UNL     1      -8.419  11.151  33.215  0.00  0.00    +0.171 C 
ATOM     10  C   UNL     1      -9.468  12.206  32.920  0.00  0.00    +0.171 C 
ATOM     11  C   UNL     1      -7.655  11.711  34.392  0.00  0.00    +0.130 C 
ATOM     12  C   UNL     1     -10.719  11.409  32.627  0.00  0.00    +0.130 C 
ATOM     13  C   UNL     1      -8.705  12.539  35.108  0.00  0.00    +0.185 C 
ATOM     14  C   UNL     1     -10.529  10.178  33.494  0.00  0.00    +0.185 C 
BRANCH  12   6
ATOM      4  O   UNL     1     -12.133  12.840  30.578  0.00  0.00    -0.270 OA
ATOM      6  N   UNL     1     -10.799  11.058  31.230  0.00  0.00    -0.303 N 
ATOM     16  C   UNL     1     -11.511  11.815  30.310  0.00  0.00    +0.251 C 
ATOM     37  H   UNL     1     -10.353  10.195  30.939  0.00  0.00    +0.149 HD
BRANCH  16  17
ATOM      1  S   UNL     1     -11.955  12.365  27.643  0.00  0.00    -0.092 S 
ATOM     17  C   UNL     1     -11.517  11.306  28.915  0.00  0.00    +0.074 A 
ATOM     19  C   UNL     1     -11.210  10.044  28.454  0.00  0.00    +0.021 A 
ATOM     23  C   UNL     1     -11.336   9.947  27.039  0.00  0.00    +0.008 A 
ATOM     24  C   UNL     1     -11.734  11.137  26.471  0.00  0.00    +0.046 A 
ENDBRANCH  16  17
ENDBRANCH  12   6
ENDBRANCH   5  11
BRANCH  18  22
ATOM     22  C   UNL     1      -3.435  10.293  36.545  0.00  0.00    +0.001 A 
ATOM     25  C   UNL     1      -4.456   9.780  37.345  0.00  0.00    +0.010 A 
ATOM     26  C   UNL     1      -2.139   9.788  36.662  0.00  0.00    +0.010 A 
ATOM     27  C   UNL     1      -2.888   8.261  38.378  0.00  0.00    -0.018 A 
ATOM     28  C   UNL     1      -4.183   8.765  38.261  0.00  0.00    +0.009 A 
ATOM     29  C   UNL     1      -1.866   8.773  37.578  0.00  0.00    +0.009 A 
BRANCH  27  30
ATOM     30  C   UNL     1      -2.604   7.207  39.328  0.00  0.00    -0.018 A 
ATOM     31  C   UNL     1      -3.311   7.141  40.529  0.00  0.00    +0.008 A 
ATOM     32  C   UNL     1      -1.624   6.256  39.043  0.00  0.00    +0.008 A 
ATOM     33  C   UNL     1      -3.039   6.125  41.444  0.00  0.00    +0.001 A 
ATOM     34  C   UNL     1      -1.351   5.239  39.959  0.00  0.00    +0.001 A 
ATOM     35  C   UNL     1      -2.058   5.174  41.159  0.00  0.00    +0.000 A 
ENDBRANCH  27  30
ENDBRANCH  18  22
TORSDOF 5
ENDMDL
