REMARK  Name = 45783419
REMARK  10 active torsions:
REMARK  status: ('A' for Active; 'I' for Inactive)
REMARK    1  A    between atoms: O_2  and  C_25
REMARK    2  A    between atoms: O_2  and  C_29
REMARK    3  A    between atoms: O_5  and  C_30
REMARK    4  A    between atoms: O_5  and  C_31
REMARK    5  A    between atoms: N_6  and  C_15
REMARK    6  A    between atoms: N_9  and  C_24
REMARK    7  A    between atoms: C_11  and  C_16
REMARK    8  A    between atoms: C_15  and  C_17
REMARK    9  A    between atoms: C_20  and  C_23
REMARK   10  A    between atoms: C_29  and  C_30
REMARK                            x       y       z     vdW  Elec       q    Type
REMARK                         _______ _______ _______ _____ _____    ______ ____
ROOT
ATOM      1  O   UNL     1      -0.884   0.204   2.652  0.00  0.00    -0.336 OA
ATOM      7  N   UNL     1      -0.352  -1.212   1.000  0.00  0.00    -0.190 NA
ATOM      8  N   UNL     1       0.514   0.120   2.646  0.00  0.00    -0.056 NA
ATOM     16  C   UNL     1      -1.314  -0.611   1.653  0.00  0.00    +0.245 A 
ATOM     20  C   UNL     1       0.751  -0.733   1.644  0.00  0.00    +0.207 A 
ENDROOT
BRANCH  20  23
ATOM     10  N   UNL     1       3.630  -1.849  -0.442  0.00  0.00    -0.221 NA
ATOM     23  C   UNL     1       2.077  -1.127   1.264  0.00  0.00    +0.084 A 
ATOM     25  C   UNL     1       2.396  -1.472  -0.040  0.00  0.00    +0.226 A 
ATOM     26  C   UNL     1       3.089  -1.172   2.216  0.00  0.00    +0.018 A 
ATOM     27  C   UNL     1       4.372  -1.556   1.840  0.00  0.00    +0.021 A 
ATOM     28  C   UNL     1       4.588  -1.881   0.510  0.00  0.00    +0.114 A 
BRANCH  25   2
ATOM      2  O   UNL     1       1.431  -1.444  -1.014  0.00  0.00    -0.474 OA
BRANCH   2  29
ATOM     29  C   UNL     1       1.837  -1.811  -2.326  0.00  0.00    +0.258 C 
BRANCH  29  30
ATOM     30  C   UNL     1       0.639  -1.742  -3.253  0.00  0.00    +0.200 C 
BRANCH  30   5
ATOM      5  O   UNL     1      -0.353  -2.655  -2.798  0.00  0.00    -0.380 OA
ATOM     31  C   UNL     1      -1.512  -2.617  -3.619  0.00  0.00    +0.194 C 
ENDBRANCH  30   5
ENDBRANCH  29  30
ENDBRANCH   2  29
ENDBRANCH  25   2
ENDBRANCH  20  23
BRANCH  16  11
ATOM      6  N   UNL     1      -3.222  -0.320   0.082  0.00  0.00    -0.287 NA
ATOM     11  C   UNL     1      -2.812  -0.696   1.450  0.00  0.00    +0.146 C 
ATOM     12  C   UNL     1      -3.358  -2.122   1.644  0.00  0.00    +0.030 C 
ATOM     13  C   UNL     1      -4.110  -2.439   0.359  0.00  0.00    +0.017 C 
ATOM     14  C   UNL     1      -4.444  -1.073  -0.205  0.00  0.00    +0.085 C 
BRANCH   6  15
ATOM     15  C   UNL     1      -3.409   1.115  -0.088  0.00  0.00    +0.120 C 
BRANCH  15  17
ATOM     17  C   UNL     1      -2.099   1.833  -0.272  0.00  0.00    -0.033 A 
ATOM     18  C   UNL     1      -1.726   2.843   0.615  0.00  0.00    +0.007 A 
ATOM     19  C   UNL     1      -1.257   1.488  -1.330  0.00  0.00    +0.007 A 
ATOM     21  C   UNL     1      -0.512   3.508   0.444  0.00  0.00    +0.033 A 
ATOM     22  C   UNL     1      -0.043   2.154  -1.501  0.00  0.00    +0.033 A 
ATOM     24  C   UNL     1       0.329   3.164  -0.615  0.00  0.00    +0.126 A 
BRANCH  24   9
ATOM      3  O   UNL     1       1.881   4.747   0.020  0.00  0.00    -0.126 OA
ATOM      4  O   UNL     1       2.307   3.516  -1.747  0.00  0.00    -0.126 OA
ATOM      9  N   UNL     1       1.565   3.841  -0.789  0.00  0.00    +0.056 N 
ENDBRANCH  24   9
ENDBRANCH  15  17
ENDBRANCH   6  15
ENDBRANCH  16  11
TORSDOF 9
