REMARK  Name = 45783346
REMARK  9 active torsions:
REMARK  status: ('A' for Active; 'I' for Inactive)
REMARK    1  A    between atoms: O_3  and  C_25
REMARK    2  A    between atoms: O_3  and  C_27
REMARK    3  A    between atoms: O_4  and  C_28
REMARK    4  A    between atoms: O_4  and  C_29
REMARK    5  A    between atoms: N_5  and  C_13
REMARK    6  A    between atoms: C_9  and  C_14
REMARK    7  A    between atoms: C_13  and  C_15
REMARK    8  A    between atoms: C_18  and  C_21
REMARK    9  A    between atoms: C_27  and  C_28
REMARK                            x       y       z     vdW  Elec       q    Type
REMARK                         _______ _______ _______ _____ _____    ______ ____
ROOT
ATOM      2  O   UNL     1      -2.170  -0.637  -2.098  0.00  0.00    -0.336 OA
ATOM      6  N   UNL     1      -0.642   0.536  -0.955  0.00  0.00    -0.190 NA
ATOM      7  N   UNL     1      -0.991  -1.393  -2.135  0.00  0.00    -0.056 NA
ATOM     14  C   UNL     1      -1.877   0.482  -1.385  0.00  0.00    +0.245 A 
ATOM     18  C   UNL     1      -0.137  -0.636  -1.440  0.00  0.00    +0.202 A 
ENDROOT
BRANCH  18  21
ATOM      8  N   UNL     1       3.882  -1.769  -0.771  0.00  0.00    -0.221 NA
ATOM     21  C   UNL     1       1.226  -1.020  -1.213  0.00  0.00    +0.029 A 
ATOM     23  C   UNL     1       2.072  -0.193  -0.483  0.00  0.00    +0.079 A 
ATOM     24  C   UNL     1       1.706  -2.221  -1.722  0.00  0.00    +0.031 A 
ATOM     25  C   UNL     1       3.380  -0.609  -0.292  0.00  0.00    +0.215 A 
ATOM     26  C   UNL     1       3.030  -2.547  -1.475  0.00  0.00    +0.115 A 
BRANCH  25   3
ATOM      3  O   UNL     1       4.234   0.189   0.424  0.00  0.00    -0.474 OA
BRANCH   3  27
ATOM     27  C   UNL     1       5.565  -0.286   0.590  0.00  0.00    +0.258 C 
BRANCH  27  28
ATOM     28  C   UNL     1       6.359   0.735   1.381  0.00  0.00    +0.200 C 
BRANCH  28   4
ATOM      4  O   UNL     1       6.387   1.961   0.661  0.00  0.00    -0.380 OA
ATOM     29  C   UNL     1       7.102   2.965   1.368  0.00  0.00    +0.194 C 
ENDBRANCH  28   4
ENDBRANCH  27  28
ENDBRANCH   3  27
ENDBRANCH  25   3
ENDBRANCH  18  21
BRANCH  14   9
ATOM      5  N   UNL     1      -3.288   1.752   0.225  0.00  0.00    -0.287 NA
ATOM      9  C   UNL     1      -3.003   1.477  -1.198  0.00  0.00    +0.146 C 
ATOM     10  C   UNL     1      -2.685   2.856  -1.806  0.00  0.00    +0.030 C 
ATOM     11  C   UNL     1      -2.877   3.847  -0.666  0.00  0.00    +0.017 C 
ATOM     12  C   UNL     1      -3.803   3.120   0.287  0.00  0.00    +0.085 C 
BRANCH   5  13
ATOM     13  C   UNL     1      -4.208   0.792   0.822  0.00  0.00    +0.123 C 
BRANCH  13  15
ATOM      1  F   UNL     1      -2.024   0.684   2.623  0.00  0.00    -0.205 F 
ATOM     15  C   UNL     1      -3.514  -0.491   1.197  0.00  0.00    +0.002 A 
ATOM     16  C   UNL     1      -2.443  -0.472   2.091  0.00  0.00    +0.128 A 
ATOM     17  C   UNL     1      -3.944  -1.699   0.649  0.00  0.00    +0.008 A 
ATOM     19  C   UNL     1      -1.803  -1.662   2.437  0.00  0.00    +0.038 A 
ATOM     20  C   UNL     1      -3.303  -2.889   0.994  0.00  0.00    +0.000 A 
ATOM     22  C   UNL     1      -2.233  -2.870   1.888  0.00  0.00    +0.003 A 
ENDBRANCH  13  15
ENDBRANCH   5  13
ENDBRANCH  14   9
TORSDOF 8
