MODEL 1
REMARK VINA RESULT:      -6.5      0.000      0.000
REMARK  Name = 28959871
REMARK  11 active torsions:
REMARK  status: ('A' for Active; 'I' for Inactive)
REMARK    1  A    between atoms: O_2  and  C_22
REMARK    2  A    between atoms: O_5  and  C_31
REMARK    3  A    between atoms: O_5  and  C_32
REMARK    4  A    between atoms: N_7  and  C_16
REMARK    5  A    between atoms: C_9  and  C_13
REMARK    6  A    between atoms: C_10  and  C_15
REMARK    7  A    between atoms: C_13  and  C_16
REMARK    8  A    between atoms: C_15  and  C_22
REMARK    9  A    between atoms: C_19  and  C_23
REMARK   10  A    between atoms: C_23  and  C_25
REMARK   11  A    between atoms: C_24  and  C_26
REMARK                            x       y       z     vdW  Elec       q    Type
REMARK                         _______ _______ _______ _____ _____    ______ ____
ROOT
ATOM      1  O   UNL     1      -1.479  -9.965  12.294  0.00  0.00    -0.275 OA
ATOM      6  N   UNL     1      -2.345 -11.425  13.880  0.00  0.00    -0.301 N 
ATOM      9  C   UNL     1      -4.158 -12.159  15.413  0.00  0.00    +0.011 C 
ATOM     10  C   UNL     1      -3.340 -11.581  16.596  0.00  0.00    +0.006 C 
ATOM     11  C   UNL     1      -3.210 -12.548  14.263  0.00  0.00    +0.111 C 
ATOM     12  C   UNL     1      -2.413 -10.442  16.140  0.00  0.00    +0.023 C 
ATOM     14  C   UNL     1      -1.536 -10.878  14.968  0.00  0.00    +0.108 C 
ATOM     19  C   UNL     1      -2.233 -10.894  12.595  0.00  0.00    +0.220 C 
ENDROOT
BRANCH   9  13
ATOM     13  C   UNL     1      -5.260 -11.224  14.900  0.00  0.00    +0.020 C 
BRANCH  13  16
ATOM     16  C   UNL     1      -6.396 -12.017  14.269  0.00  0.00    +0.085 C 
BRANCH  16   7
ATOM      4  O   UNL     1      -9.704  -7.753  17.176  0.00  0.00    -0.276 OA
ATOM      7  N   UNL     1      -7.680 -11.530  14.772  0.00  0.00    -0.299 NA
ATOM      8  N   UNL     1      -9.394  -9.924  16.413  0.00  0.00    -0.299 N 
ATOM     17  C   UNL     1      -7.822 -10.090  14.516  0.00  0.00    +0.103 C 
ATOM     18  C   UNL     1      -7.813 -11.813  16.209  0.00  0.00    +0.103 C 
ATOM     20  C   UNL     1      -9.177  -9.583  15.008  0.00  0.00    +0.123 C 
ATOM     21  C   UNL     1      -9.167 -11.335  16.738  0.00  0.00    +0.123 C 
ATOM     24  C   UNL     1      -9.897  -8.965  17.292  0.00  0.00    +0.213 C 
ATOM     26  C   UNL     1     -10.721  -9.476  18.447  0.00  0.00    +0.109 C 
ENDBRANCH  16   7
ENDBRANCH  13  16
ENDBRANCH   9  13
BRANCH  10  15
ATOM     15  C   UNL     1      -4.215 -11.129  17.765  0.00  0.00    +0.124 C 
BRANCH  15  22
ATOM      3  O   UNL     1      -3.406 -12.132  19.834  0.00  0.00    -0.251 OA
ATOM     22  C   UNL     1      -4.188 -12.121  18.894  0.00  0.00    +0.305 C 
BRANCH  22   2
ATOM      2  O   UNL     1      -5.181 -13.032  18.728  0.00  0.00    -0.481 OA
ATOM     33  H   UNL     1      -5.817 -13.021  19.475  0.00  0.00    +0.295 HD
ENDBRANCH  22   2
ENDBRANCH  15  22
ENDBRANCH  10  15
BRANCH  19  23
ATOM     23  C   UNL     1      -3.103 -11.512  11.530  0.00  0.00    +0.131 C 
BRANCH  23  25
ATOM     25  C   UNL     1      -3.975 -10.475  10.893  0.00  0.00    -0.038 A 
ATOM     27  C   UNL     1      -3.875 -10.222   9.526  0.00  0.00    +0.007 A 
ATOM     28  C   UNL     1      -4.889  -9.762  11.669  0.00  0.00    +0.007 A 
ATOM     29  C   UNL     1      -4.686  -9.255   8.934  0.00  0.00    +0.046 A 
ATOM     30  C   UNL     1      -5.702  -8.796  11.078  0.00  0.00    +0.046 A 
ATOM     31  C   UNL     1      -5.601  -8.543   9.709  0.00  0.00    +0.120 A 
BRANCH  31   5
ATOM      5  O   UNL     1      -6.395  -7.600   9.131  0.00  0.00    -0.495 OA
ATOM     32  C   UNL     1      -7.751  -7.961   8.877  0.00  0.00    +0.277 C 
ENDBRANCH  31   5
ENDBRANCH  23  25
ENDBRANCH  19  23
TORSDOF 9
ENDMDL
MODEL 2
REMARK VINA RESULT:      -6.3      1.298      1.856
REMARK  Name = 28959871
REMARK  11 active torsions:
REMARK  status: ('A' for Active; 'I' for Inactive)
REMARK    1  A    between atoms: O_2  and  C_22
REMARK    2  A    between atoms: O_5  and  C_31
REMARK    3  A    between atoms: O_5  and  C_32
REMARK    4  A    between atoms: N_7  and  C_16
REMARK    5  A    between atoms: C_9  and  C_13
REMARK    6  A    between atoms: C_10  and  C_15
REMARK    7  A    between atoms: C_13  and  C_16
REMARK    8  A    between atoms: C_15  and  C_22
REMARK    9  A    between atoms: C_19  and  C_23
REMARK   10  A    between atoms: C_23  and  C_25
REMARK   11  A    between atoms: C_24  and  C_26
REMARK                            x       y       z     vdW  Elec       q    Type
REMARK                         _______ _______ _______ _____ _____    ______ ____
ROOT
ATOM      1  O   UNL     1      -1.453  -9.980  12.065  0.00  0.00    -0.275 OA
ATOM      6  N   UNL     1      -2.286 -11.363  13.735  0.00  0.00    -0.301 N 
ATOM      9  C   UNL     1      -4.058 -12.012  15.353  0.00  0.00    +0.011 C 
ATOM     10  C   UNL     1      -3.196 -11.397  16.485  0.00  0.00    +0.006 C 
ATOM     11  C   UNL     1      -3.150 -12.460  14.191  0.00  0.00    +0.111 C 
ATOM     12  C   UNL     1      -2.271 -10.290  15.955  0.00  0.00    +0.023 C 
ATOM     14  C   UNL     1      -1.436 -10.783  14.775  0.00  0.00    +0.108 C 
ATOM     19  C   UNL     1      -2.207 -10.886  12.428  0.00  0.00    +0.220 C 
ENDROOT
BRANCH   9  13
ATOM     13  C   UNL     1      -5.164 -11.085  14.837  0.00  0.00    +0.020 C 
BRANCH  13  16
ATOM     16  C   UNL     1      -6.336 -11.888  14.291  0.00  0.00    +0.085 C 
BRANCH  16   7
ATOM      4  O   UNL     1      -8.342 -10.951  20.007  0.00  0.00    -0.276 OA
ATOM      7  N   UNL     1      -7.405 -11.946  15.287  0.00  0.00    -0.299 NA
ATOM      8  N   UNL     1      -8.495 -11.991  17.936  0.00  0.00    -0.299 N 
ATOM     17  C   UNL     1      -7.406 -10.730  16.114  0.00  0.00    +0.103 C 
ATOM     18  C   UNL     1      -7.261 -13.142  16.130  0.00  0.00    +0.103 C 
ATOM     20  C   UNL     1      -8.544 -10.771  17.134  0.00  0.00    +0.123 C 
ATOM     21  C   UNL     1      -8.393 -13.228  17.156  0.00  0.00    +0.123 C 
ATOM     24  C   UNL     1      -8.664 -11.922  19.319  0.00  0.00    +0.213 C 
ATOM     26  C   UNL     1      -9.280 -13.127  19.984  0.00  0.00    +0.109 C 
ENDBRANCH  16   7
ENDBRANCH  13  16
ENDBRANCH   9  13
BRANCH  10  15
ATOM     15  C   UNL     1      -4.028 -10.887  17.661  0.00  0.00    +0.124 C 
BRANCH  15  22
ATOM      3  O   UNL     1      -5.225 -12.563  18.966  0.00  0.00    -0.251 OA
ATOM     22  C   UNL     1      -4.201 -11.942  18.718  0.00  0.00    +0.305 C 
BRANCH  22   2
ATOM      2  O   UNL     1      -3.031 -12.122  19.383  0.00  0.00    -0.481 OA
ATOM     33  H   UNL     1      -2.916 -13.050  19.679  0.00  0.00    +0.295 HD
ENDBRANCH  22   2
ENDBRANCH  15  22
ENDBRANCH  10  15
BRANCH  19  23
ATOM     23  C   UNL     1      -3.118 -11.536  11.415  0.00  0.00    +0.131 C 
BRANCH  23  25
ATOM     25  C   UNL     1      -4.020 -10.519  10.789  0.00  0.00    -0.038 A 
ATOM     27  C   UNL     1      -4.835  -9.721  11.590  0.00  0.00    +0.007 A 
ATOM     28  C   UNL     1      -4.045 -10.370   9.402  0.00  0.00    +0.007 A 
ATOM     29  C   UNL     1      -5.677  -8.775  11.006  0.00  0.00    +0.046 A 
ATOM     30  C   UNL     1      -4.885  -9.424   8.817  0.00  0.00    +0.046 A 
ATOM     31  C   UNL     1      -5.701  -8.626   9.619  0.00  0.00    +0.120 A 
BRANCH  31   5
ATOM      5  O   UNL     1      -6.521  -7.701   9.048  0.00  0.00    -0.495 OA
ATOM     32  C   UNL     1      -7.830  -8.133   8.682  0.00  0.00    +0.277 C 
ENDBRANCH  31   5
ENDBRANCH  23  25
ENDBRANCH  19  23
TORSDOF 9
ENDMDL
MODEL 3
REMARK VINA RESULT:      -6.3      1.678      1.962
REMARK  Name = 28959871
REMARK  11 active torsions:
REMARK  status: ('A' for Active; 'I' for Inactive)
REMARK    1  A    between atoms: O_2  and  C_22
REMARK    2  A    between atoms: O_5  and  C_31
REMARK    3  A    between atoms: O_5  and  C_32
REMARK    4  A    between atoms: N_7  and  C_16
REMARK    5  A    between atoms: C_9  and  C_13
REMARK    6  A    between atoms: C_10  and  C_15
REMARK    7  A    between atoms: C_13  and  C_16
REMARK    8  A    between atoms: C_15  and  C_22
REMARK    9  A    between atoms: C_19  and  C_23
REMARK   10  A    between atoms: C_23  and  C_25
REMARK   11  A    between atoms: C_24  and  C_26
REMARK                            x       y       z     vdW  Elec       q    Type
REMARK                         _______ _______ _______ _____ _____    ______ ____
ROOT
ATOM      1  O   UNL     1      -1.881 -10.069  13.844  0.00  0.00    -0.275 OA
ATOM      6  N   UNL     1      -3.264 -11.423  15.129  0.00  0.00    -0.301 N 
ATOM      9  C   UNL     1      -5.494 -12.019  16.051  0.00  0.00    +0.011 C 
ATOM     10  C   UNL     1      -5.049 -11.422  17.411  0.00  0.00    +0.006 C 
ATOM     11  C   UNL     1      -4.260 -12.494  15.261  0.00  0.00    +0.111 C 
ATOM     12  C   UNL     1      -3.970 -10.341  17.229  0.00  0.00    +0.023 C 
ATOM     14  C   UNL     1      -2.800 -10.861  16.397  0.00  0.00    +0.108 C 
ATOM     19  C   UNL     1      -2.737 -10.954  13.927  0.00  0.00    +0.220 C 
ENDROOT
BRANCH   9  13
ATOM     13  C   UNL     1      -6.337 -11.064  15.197  0.00  0.00    +0.020 C 
BRANCH  13  16
ATOM     16  C   UNL     1      -7.695 -11.674  14.882  0.00  0.00    +0.085 C 
BRANCH  16   7
ATOM      4  O   UNL     1     -11.871  -7.269  14.020  0.00  0.00    -0.276 OA
ATOM      7  N   UNL     1      -8.758 -10.812  15.400  0.00  0.00    -0.299 NA
ATOM      8  N   UNL     1     -10.493  -8.532  15.398  0.00  0.00    -0.299 N 
ATOM     17  C   UNL     1      -9.860 -10.714  14.432  0.00  0.00    +0.103 C 
ATOM     18  C   UNL     1      -8.232  -9.477  15.717  0.00  0.00    +0.103 C 
ATOM     20  C   UNL     1     -10.988  -9.843  14.983  0.00  0.00    +0.123 C 
ATOM     21  C   UNL     1      -9.329  -8.576  16.288  0.00  0.00    +0.123 C 
ATOM     24  C   UNL     1     -11.194  -7.379  15.044  0.00  0.00    +0.213 C 
ATOM     26  C   UNL     1     -11.093  -6.211  15.993  0.00  0.00    +0.109 C 
ENDBRANCH  16   7
ENDBRANCH  13  16
ENDBRANCH   9  13
BRANCH  10  15
ATOM     15  C   UNL     1      -6.215 -10.885  18.240  0.00  0.00    +0.124 C 
BRANCH  15  22
ATOM      3  O   UNL     1      -6.127 -11.242  20.649  0.00  0.00    -0.251 OA
ATOM     22  C   UNL     1      -6.380 -11.648  19.525  0.00  0.00    +0.305 C 
BRANCH  22   2
ATOM      2  O   UNL     1      -6.865 -12.889  19.262  0.00  0.00    -0.481 OA
ATOM     33  H   UNL     1      -7.040 -13.019  18.306  0.00  0.00    +0.295 HD
ENDBRANCH  22   2
ENDBRANCH  15  22
ENDBRANCH  10  15
BRANCH  19  23
ATOM     23  C   UNL     1      -3.269 -11.583  12.663  0.00  0.00    +0.131 C 
BRANCH  23  25
ATOM     25  C   UNL     1      -3.917 -10.552  11.793  0.00  0.00    -0.038 A 
ATOM     27  C   UNL     1      -3.305 -10.157  10.604  0.00  0.00    +0.007 A 
ATOM     28  C   UNL     1      -5.136  -9.988  12.171  0.00  0.00    +0.007 A 
ATOM     29  C   UNL     1      -3.909  -9.196   9.794  0.00  0.00    +0.046 A 
ATOM     30  C   UNL     1      -5.741  -9.028  11.361  0.00  0.00    +0.046 A 
ATOM     31  C   UNL     1      -5.127  -8.632  10.172  0.00  0.00    +0.120 A 
BRANCH  31   5
ATOM      5  O   UNL     1      -5.718  -7.695   9.381  0.00  0.00    -0.495 OA
ATOM     32  C   UNL     1      -7.023  -7.992   8.887  0.00  0.00    +0.277 C 
ENDBRANCH  31   5
ENDBRANCH  23  25
ENDBRANCH  19  23
TORSDOF 9
ENDMDL
MODEL 4
REMARK VINA RESULT:      -6.0     23.359     25.872
REMARK  Name = 28959871
REMARK  11 active torsions:
REMARK  status: ('A' for Active; 'I' for Inactive)
REMARK    1  A    between atoms: O_2  and  C_22
REMARK    2  A    between atoms: O_5  and  C_31
REMARK    3  A    between atoms: O_5  and  C_32
REMARK    4  A    between atoms: N_7  and  C_16
REMARK    5  A    between atoms: C_9  and  C_13
REMARK    6  A    between atoms: C_10  and  C_15
REMARK    7  A    between atoms: C_13  and  C_16
REMARK    8  A    between atoms: C_15  and  C_22
REMARK    9  A    between atoms: C_19  and  C_23
REMARK   10  A    between atoms: C_23  and  C_25
REMARK   11  A    between atoms: C_24  and  C_26
REMARK                            x       y       z     vdW  Elec       q    Type
REMARK                         _______ _______ _______ _____ _____    ______ ____
ROOT
ATOM      1  O   UNL     1       9.360   6.908   2.983  0.00  0.00    -0.275 OA
ATOM      6  N   UNL     1       8.709   6.949   5.212  0.00  0.00    -0.301 N 
ATOM      9  C   UNL     1       9.177   7.367   7.617  0.00  0.00    +0.011 C 
ATOM     10  C   UNL     1       9.288   5.835   7.823  0.00  0.00    +0.006 C 
ATOM     11  C   UNL     1       8.263   7.667   6.413  0.00  0.00    +0.111 C 
ATOM     12  C   UNL     1       9.708   5.119   6.529  0.00  0.00    +0.023 C 
ATOM     14  C   UNL     1       8.794   5.497   5.365  0.00  0.00    +0.108 C 
ATOM     19  C   UNL     1       9.012   7.537   3.985  0.00  0.00    +0.220 C 
ENDROOT
BRANCH   9  13
ATOM     13  C   UNL     1      10.527   8.074   7.450  0.00  0.00    +0.020 C 
BRANCH  13  16
ATOM     16  C   UNL     1      10.342   9.582   7.349  0.00  0.00    +0.085 C 
BRANCH  16   7
ATOM      4  O   UNL     1       9.670  14.346  11.148  0.00  0.00    -0.276 OA
ATOM      7  N   UNL     1      10.530  10.194   8.664  0.00  0.00    -0.299 NA
ATOM      8  N   UNL     1      10.713  12.368  10.521  0.00  0.00    -0.299 N 
ATOM     17  C   UNL     1       9.325  10.937   9.064  0.00  0.00    +0.103 C 
ATOM     18  C   UNL     1      11.703  11.079   8.659  0.00  0.00    +0.103 C 
ATOM     20  C   UNL     1       9.504  11.550  10.453  0.00  0.00    +0.123 C 
ATOM     21  C   UNL     1      11.926  11.701  10.039  0.00  0.00    +0.123 C 
ATOM     24  C   UNL     1      10.669  13.624  11.125  0.00  0.00    +0.213 C 
ATOM     26  C   UNL     1      11.942  14.103  11.778  0.00  0.00    +0.109 C 
ENDBRANCH  16   7
ENDBRANCH  13  16
ENDBRANCH   9  13
BRANCH  10  15
ATOM     15  C   UNL     1      10.215   5.452   8.976  0.00  0.00    +0.124 C 
BRANCH  15  22
ATOM      3  O   UNL     1       8.257   4.893  10.316  0.00  0.00    -0.251 OA
ATOM     22  C   UNL     1       9.459   4.811  10.107  0.00  0.00    +0.305 C 
BRANCH  22   2
ATOM      2  O   UNL     1      10.315   4.107  10.891  0.00  0.00    -0.481 OA
ATOM     33  H   UNL     1       9.844   3.610  11.593  0.00  0.00    +0.295 HD
ENDBRANCH  22   2
ENDBRANCH  15  22
ENDBRANCH  10  15
BRANCH  19  23
ATOM     23  C   UNL     1       8.903   9.039   3.910  0.00  0.00    +0.131 C 
BRANCH  23  25
ATOM     25  C   UNL     1       7.780   9.442   3.006  0.00  0.00    -0.038 A 
ATOM     27  C   UNL     1       6.512   9.682   3.532  0.00  0.00    +0.007 A 
ATOM     28  C   UNL     1       8.004   9.579   1.636  0.00  0.00    +0.007 A 
ATOM     29  C   UNL     1       5.466  10.057   2.690  0.00  0.00    +0.046 A 
ATOM     30  C   UNL     1       6.959   9.954   0.793  0.00  0.00    +0.046 A 
ATOM     31  C   UNL     1       5.690  10.194   1.320  0.00  0.00    +0.120 A 
BRANCH  31   5
ATOM      5  O   UNL     1       4.670  10.561   0.496  0.00  0.00    -0.495 OA
ATOM     32  C   UNL     1       3.682   9.574   0.207  0.00  0.00    +0.277 C 
ENDBRANCH  31   5
ENDBRANCH  23  25
ENDBRANCH  19  23
TORSDOF 9
ENDMDL
MODEL 5
REMARK VINA RESULT:      -6.0      2.034      6.450
REMARK  Name = 28959871
REMARK  11 active torsions:
REMARK  status: ('A' for Active; 'I' for Inactive)
REMARK    1  A    between atoms: O_2  and  C_22
REMARK    2  A    between atoms: O_5  and  C_31
REMARK    3  A    between atoms: O_5  and  C_32
REMARK    4  A    between atoms: N_7  and  C_16
REMARK    5  A    between atoms: C_9  and  C_13
REMARK    6  A    between atoms: C_10  and  C_15
REMARK    7  A    between atoms: C_13  and  C_16
REMARK    8  A    between atoms: C_15  and  C_22
REMARK    9  A    between atoms: C_19  and  C_23
REMARK   10  A    between atoms: C_23  and  C_25
REMARK   11  A    between atoms: C_24  and  C_26
REMARK                            x       y       z     vdW  Elec       q    Type
REMARK                         _______ _______ _______ _____ _____    ______ ____
ROOT
ATOM      1  O   UNL     1      -7.833 -11.799  18.546  0.00  0.00    -0.275 OA
ATOM      6  N   UNL     1      -6.383 -10.634  17.155  0.00  0.00    -0.301 N 
ATOM      9  C   UNL     1      -4.839 -10.523  15.211  0.00  0.00    +0.011 C 
ATOM     10  C   UNL     1      -3.648 -10.540  16.204  0.00  0.00    +0.006 C 
ATOM     11  C   UNL     1      -6.084  -9.933  15.899  0.00  0.00    +0.111 C 
ATOM     12  C   UNL     1      -4.021 -11.238  17.522  0.00  0.00    +0.023 C 
ATOM     14  C   UNL     1      -5.290 -10.640  18.126  0.00  0.00    +0.108 C 
ATOM     19  C   UNL     1      -7.599 -11.238  17.473  0.00  0.00    +0.220 C 
ENDROOT
BRANCH   9  13
ATOM     13  C   UNL     1      -5.164 -11.893  14.604  0.00  0.00    +0.020 C 
BRANCH  13  16
ATOM     16  C   UNL     1      -5.033 -11.860  13.088  0.00  0.00    +0.085 C 
BRANCH  16   7
ATOM      4  O   UNL     1      -9.041  -9.219   9.274  0.00  0.00    -0.276 OA
ATOM      7  N   UNL     1      -5.682 -10.660  12.559  0.00  0.00    -0.299 NA
ATOM      8  N   UNL     1      -7.164  -9.134  10.640  0.00  0.00    -0.299 N 
ATOM     17  C   UNL     1      -7.122 -10.894  12.372  0.00  0.00    +0.103 C 
ATOM     18  C   UNL     1      -5.058 -10.251  11.293  0.00  0.00    +0.103 C 
ATOM     20  C   UNL     1      -7.811  -9.633  11.852  0.00  0.00    +0.123 C 
ATOM     21  C   UNL     1      -5.711  -8.979  10.746  0.00  0.00    +0.123 C 
ATOM     24  C   UNL     1      -7.940  -8.738   9.550  0.00  0.00    +0.213 C 
ATOM     26  C   UNL     1      -7.366  -7.654   8.673  0.00  0.00    +0.109 C 
ENDBRANCH  16   7
ENDBRANCH  13  16
ENDBRANCH   9  13
BRANCH  10  15
ATOM     15  C   UNL     1      -2.381 -11.153  15.609  0.00  0.00    +0.124 C 
BRANCH  15  22
ATOM      3  O   UNL     1      -1.857 -10.444  13.336  0.00  0.00    -0.251 OA
ATOM     22  C   UNL     1      -1.785 -10.273  14.545  0.00  0.00    +0.305 C 
BRANCH  22   2
ATOM      2  O   UNL     1      -1.137  -9.229  15.122  0.00  0.00    -0.481 OA
ATOM     33  H   UNL     1      -1.280  -8.392  14.631  0.00  0.00    +0.295 HD
ENDBRANCH  22   2
ENDBRANCH  15  22
ENDBRANCH  10  15
BRANCH  19  23
ATOM     23  C   UNL     1      -8.674 -11.191  16.416  0.00  0.00    +0.131 C 
BRANCH  23  25
ATOM     25  C   UNL     1      -9.296  -9.831  16.356  0.00  0.00    -0.038 A 
ATOM     27  C   UNL     1      -9.555  -9.129  17.533  0.00  0.00    +0.007 A 
ATOM     28  C   UNL     1      -9.615  -9.265  15.122  0.00  0.00    +0.007 A 
ATOM     29  C   UNL     1     -10.135  -7.863  17.477  0.00  0.00    +0.046 A 
ATOM     30  C   UNL     1     -10.195  -7.998  15.065  0.00  0.00    +0.046 A 
ATOM     31  C   UNL     1     -10.454  -7.296  16.243  0.00  0.00    +0.120 A 
BRANCH  31   5
ATOM      5  O   UNL     1     -11.019  -6.059  16.187  0.00  0.00    -0.495 OA
ATOM     32  C   UNL     1     -12.108  -5.883  15.283  0.00  0.00    +0.277 C 
ENDBRANCH  31   5
ENDBRANCH  23  25
ENDBRANCH  19  23
TORSDOF 9
ENDMDL
MODEL 6
REMARK VINA RESULT:      -5.9      2.629      6.698
REMARK  Name = 28959871
REMARK  11 active torsions:
REMARK  status: ('A' for Active; 'I' for Inactive)
REMARK    1  A    between atoms: O_2  and  C_22
REMARK    2  A    between atoms: O_5  and  C_31
REMARK    3  A    between atoms: O_5  and  C_32
REMARK    4  A    between atoms: N_7  and  C_16
REMARK    5  A    between atoms: C_9  and  C_13
REMARK    6  A    between atoms: C_10  and  C_15
REMARK    7  A    between atoms: C_13  and  C_16
REMARK    8  A    between atoms: C_15  and  C_22
REMARK    9  A    between atoms: C_19  and  C_23
REMARK   10  A    between atoms: C_23  and  C_25
REMARK   11  A    between atoms: C_24  and  C_26
REMARK                            x       y       z     vdW  Elec       q    Type
REMARK                         _______ _______ _______ _____ _____    ______ ____
ROOT
ATOM      1  O   UNL     1     -10.622 -10.379  16.753  0.00  0.00    -0.275 OA
ATOM      6  N   UNL     1      -8.384 -10.092  17.303  0.00  0.00    -0.301 N 
ATOM      9  C   UNL     1      -5.979 -10.661  17.039  0.00  0.00    +0.011 C 
ATOM     10  C   UNL     1      -6.059 -11.453  18.369  0.00  0.00    +0.006 C 
ATOM     11  C   UNL     1      -7.047  -9.550  17.027  0.00  0.00    +0.111 C 
ATOM     12  C   UNL     1      -7.486 -11.957  18.642  0.00  0.00    +0.023 C 
ATOM     14  C   UNL     1      -8.500 -10.817  18.567  0.00  0.00    +0.108 C 
ATOM     19  C   UNL     1      -9.503  -9.936  16.486  0.00  0.00    +0.220 C 
ENDROOT
BRANCH   9  13
ATOM     13  C   UNL     1      -6.105 -11.534  15.784  0.00  0.00    +0.020 C 
BRANCH  13  16
ATOM     16  C   UNL     1      -4.786 -11.590  15.027  0.00  0.00    +0.085 C 
BRANCH  16   7
ATOM      4  O   UNL     1      -6.786  -9.690   9.552  0.00  0.00    -0.276 OA
ATOM      7  N   UNL     1      -4.790 -10.600  13.949  0.00  0.00    -0.299 NA
ATOM      8  N   UNL     1      -5.233  -9.663  11.278  0.00  0.00    -0.299 N 
ATOM     17  C   UNL     1      -6.157 -10.386  13.451  0.00  0.00    +0.103 C 
ATOM     18  C   UNL     1      -3.904 -11.025  12.855  0.00  0.00    +0.103 C 
ATOM     20  C   UNL     1      -6.171  -9.328  12.348  0.00  0.00    +0.123 C 
ATOM     21  C   UNL     1      -3.878  -9.982  11.736  0.00  0.00    +0.123 C 
ATOM     24  C   UNL     1      -5.627  -9.544   9.946  0.00  0.00    +0.213 C 
ATOM     26  C   UNL     1      -4.543  -9.220   8.948  0.00  0.00    +0.109 C 
ENDBRANCH  16   7
ENDBRANCH  13  16
ENDBRANCH   9  13
BRANCH  10  15
ATOM     15  C   UNL     1      -5.057 -12.605  18.441  0.00  0.00    +0.124 C 
BRANCH  15  22
ATOM      3  O   UNL     1      -3.371 -12.219  20.159  0.00  0.00    -0.251 OA
ATOM     22  C   UNL     1      -3.733 -12.155  18.993  0.00  0.00    +0.305 C 
BRANCH  22   2
ATOM      2  O   UNL     1      -2.967 -11.651  17.992  0.00  0.00    -0.481 OA
ATOM     33  H   UNL     1      -3.320 -10.802  17.651  0.00  0.00    +0.295 HD
ENDBRANCH  22   2
ENDBRANCH  15  22
ENDBRANCH  10  15
BRANCH  19  23
ATOM     23  C   UNL     1      -9.300  -9.177  15.198  0.00  0.00    +0.131 C 
BRANCH  23  25
ATOM     25  C   UNL     1     -10.357  -8.132  15.029  0.00  0.00    -0.038 A 
ATOM     27  C   UNL     1     -11.325  -8.273  14.034  0.00  0.00    +0.007 A 
ATOM     28  C   UNL     1     -10.376  -7.018  15.867  0.00  0.00    +0.007 A 
ATOM     29  C   UNL     1     -12.310  -7.298  13.877  0.00  0.00    +0.046 A 
ATOM     30  C   UNL     1     -11.361  -6.043  15.711  0.00  0.00    +0.046 A 
ATOM     31  C   UNL     1     -12.329  -6.184  14.715  0.00  0.00    +0.120 A 
BRANCH  31   5
ATOM      5  O   UNL     1     -13.291  -5.233  14.563  0.00  0.00    -0.495 OA
ATOM     32  C   UNL     1     -13.269  -4.476  13.354  0.00  0.00    +0.277 C 
ENDBRANCH  31   5
ENDBRANCH  23  25
ENDBRANCH  19  23
TORSDOF 9
ENDMDL
MODEL 7
REMARK VINA RESULT:      -5.8     24.823     27.950
REMARK  Name = 28959871
REMARK  11 active torsions:
REMARK  status: ('A' for Active; 'I' for Inactive)
REMARK    1  A    between atoms: O_2  and  C_22
REMARK    2  A    between atoms: O_5  and  C_31
REMARK    3  A    between atoms: O_5  and  C_32
REMARK    4  A    between atoms: N_7  and  C_16
REMARK    5  A    between atoms: C_9  and  C_13
REMARK    6  A    between atoms: C_10  and  C_15
REMARK    7  A    between atoms: C_13  and  C_16
REMARK    8  A    between atoms: C_15  and  C_22
REMARK    9  A    between atoms: C_19  and  C_23
REMARK   10  A    between atoms: C_23  and  C_25
REMARK   11  A    between atoms: C_24  and  C_26
REMARK                            x       y       z     vdW  Elec       q    Type
REMARK                         _______ _______ _______ _____ _____    ______ ____
ROOT
ATOM      1  O   UNL     1      10.070   3.884   1.111  0.00  0.00    -0.275 OA
ATOM      6  N   UNL     1      12.385   3.732   1.006  0.00  0.00    -0.301 N 
ATOM      9  C   UNL     1      14.638   4.772   0.858  0.00  0.00    +0.011 C 
ATOM     10  C   UNL     1      14.684   4.369  -0.638  0.00  0.00    +0.006 C 
ATOM     11  C   UNL     1      13.713   3.811   1.630  0.00  0.00    +0.111 C 
ATOM     12  C   UNL     1      13.272   4.249  -1.235  0.00  0.00    +0.023 C 
ATOM     14  C   UNL     1      12.392   3.323  -0.398  0.00  0.00    +0.108 C 
ATOM     19  C   UNL     1      11.174   3.982   1.651  0.00  0.00    +0.220 C 
ENDROOT
BRANCH   9  13
ATOM     13  C   UNL     1      14.216   6.226   1.100  0.00  0.00    +0.020 C 
BRANCH  13  16
ATOM     16  C   UNL     1      15.326   7.006   1.789  0.00  0.00    +0.085 C 
BRANCH  16   7
ATOM      4  O   UNL     1      13.299   6.373   7.540  0.00  0.00    -0.276 OA
ATOM      7  N   UNL     1      14.823   7.594   3.031  0.00  0.00    -0.299 NA
ATOM      8  N   UNL     1      13.482   7.577   5.562  0.00  0.00    -0.299 N 
ATOM     17  C   UNL     1      15.438   6.942   4.196  0.00  0.00    +0.103 C 
ATOM     18  C   UNL     1      13.358   7.488   3.096  0.00  0.00    +0.103 C 
ATOM     20  C   UNL     1      14.942   7.576   5.495  0.00  0.00    +0.123 C 
ATOM     21  C   UNL     1      12.819   8.127   4.377  0.00  0.00    +0.123 C 
ATOM     24  C   UNL     1      12.840   7.189   6.738  0.00  0.00    +0.213 C 
ATOM     26  C   UNL     1      11.499   7.823   7.015  0.00  0.00    +0.109 C 
ENDBRANCH  16   7
ENDBRANCH  13  16
ENDBRANCH   9  13
BRANCH  10  15
ATOM     15  C   UNL     1      15.549   5.303  -1.484  0.00  0.00    +0.124 C 
BRANCH  15  22
ATOM      3  O   UNL     1      17.627   4.035  -1.630  0.00  0.00    -0.251 OA
ATOM     22  C   UNL     1      17.015   5.035  -1.281  0.00  0.00    +0.305 C 
BRANCH  22   2
ATOM      2  O   UNL     1      17.589   6.085  -0.641  0.00  0.00    -0.481 OA
ATOM     33  H   UNL     1      17.382   6.088   0.318  0.00  0.00    +0.295 HD
ENDBRANCH  22   2
ENDBRANCH  15  22
ENDBRANCH  10  15
BRANCH  19  23
ATOM     23  C   UNL     1      11.252   4.402   3.098  0.00  0.00    +0.131 C 
BRANCH  23  25
ATOM     25  C   UNL     1      10.273   5.497   3.383  0.00  0.00    -0.038 A 
ATOM     27  C   UNL     1       9.602   5.532   4.605  0.00  0.00    +0.007 A 
ATOM     28  C   UNL     1      10.031   6.483   2.426  0.00  0.00    +0.007 A 
ATOM     29  C   UNL     1       8.689   6.552   4.871  0.00  0.00    +0.046 A 
ATOM     30  C   UNL     1       9.118   7.503   2.691  0.00  0.00    +0.046 A 
ATOM     31  C   UNL     1       8.447   7.538   3.914  0.00  0.00    +0.120 A 
BRANCH  31   5
ATOM      5  O   UNL     1       7.557   8.534   4.173  0.00  0.00    -0.495 OA
ATOM     32  C   UNL     1       7.294   9.459   3.120  0.00  0.00    +0.277 C 
ENDBRANCH  31   5
ENDBRANCH  23  25
ENDBRANCH  19  23
TORSDOF 9
ENDMDL
MODEL 8
REMARK VINA RESULT:      -5.8     23.663     27.433
REMARK  Name = 28959871
REMARK  11 active torsions:
REMARK  status: ('A' for Active; 'I' for Inactive)
REMARK    1  A    between atoms: O_2  and  C_22
REMARK    2  A    between atoms: O_5  and  C_31
REMARK    3  A    between atoms: O_5  and  C_32
REMARK    4  A    between atoms: N_7  and  C_16
REMARK    5  A    between atoms: C_9  and  C_13
REMARK    6  A    between atoms: C_10  and  C_15
REMARK    7  A    between atoms: C_13  and  C_16
REMARK    8  A    between atoms: C_15  and  C_22
REMARK    9  A    between atoms: C_19  and  C_23
REMARK   10  A    between atoms: C_23  and  C_25
REMARK   11  A    between atoms: C_24  and  C_26
REMARK                            x       y       z     vdW  Elec       q    Type
REMARK                         _______ _______ _______ _____ _____    ______ ____
ROOT
ATOM      1  O   UNL     1      11.874   9.559   6.414  0.00  0.00    -0.275 OA
ATOM      6  N   UNL     1      12.131   8.806   4.232  0.00  0.00    -0.301 N 
ATOM      9  C   UNL     1      12.425   6.979   2.572  0.00  0.00    +0.011 C 
ATOM     10  C   UNL     1      13.922   7.370   2.465  0.00  0.00    +0.006 C 
ATOM     11  C   UNL     1      11.596   8.204   3.004  0.00  0.00    +0.111 C 
ATOM     12  C   UNL     1      14.425   8.041   3.754  0.00  0.00    +0.023 C 
ATOM     14  C   UNL     1      13.532   9.215   4.152  0.00  0.00    +0.108 C 
ATOM     19  C   UNL     1      11.408   9.028   5.403  0.00  0.00    +0.220 C 
ENDROOT
BRANCH   9  13
ATOM     13  C   UNL     1      12.155   5.796   3.510  0.00  0.00    +0.020 C 
BRANCH  13  16
ATOM     16  C   UNL     1      11.293   4.746   2.824  0.00  0.00    +0.085 C 
BRANCH  16   7
ATOM      4  O   UNL     1      10.086   2.662  -2.814  0.00  0.00    -0.276 OA
ATOM      7  N   UNL     1      11.540   4.766   1.382  0.00  0.00    -0.299 NA
ATOM      8  N   UNL     1      11.477   3.721  -1.285  0.00  0.00    -0.299 N 
ATOM     17  C   UNL     1      10.273   4.690   0.640  0.00  0.00    +0.103 C 
ATOM     18  C   UNL     1      12.430   3.662   0.995  0.00  0.00    +0.103 C 
ATOM     20  C   UNL     1      10.523   4.746  -0.866  0.00  0.00    +0.123 C 
ATOM     21  C   UNL     1      12.719   3.692  -0.507  0.00  0.00    +0.123 C 
ATOM     24  C   UNL     1      11.217   2.951  -2.418  0.00  0.00    +0.213 C 
ATOM     26  C   UNL     1      12.417   2.453  -3.185  0.00  0.00    +0.109 C 
ENDBRANCH  16   7
ENDBRANCH  13  16
ENDBRANCH   9  13
BRANCH  10  15
ATOM     15  C   UNL     1      14.821   6.195   2.083  0.00  0.00    +0.124 C 
BRANCH  15  22
ATOM      3  O   UNL     1      14.571   6.631  -0.303  0.00  0.00    -0.251 OA
ATOM     22  C   UNL     1      15.255   6.273   0.645  0.00  0.00    +0.305 C 
BRANCH  22   2
ATOM      2  O   UNL     1      16.551   5.883   0.535  0.00  0.00    -0.481 OA
ATOM     33  H   UNL     1      16.635   5.017   0.082  0.00  0.00    +0.295 HD
ENDBRANCH  22   2
ENDBRANCH  15  22
ENDBRANCH  10  15
BRANCH  19  23
ATOM     23  C   UNL     1       9.969   8.575   5.406  0.00  0.00    +0.131 C 
BRANCH  23  25
ATOM     25  C   UNL     1       9.777   7.432   6.353  0.00  0.00    -0.038 A 
ATOM     27  C   UNL     1       9.239   7.658   7.620  0.00  0.00    +0.007 A 
ATOM     28  C   UNL     1      10.135   6.141   5.967  0.00  0.00    +0.007 A 
ATOM     29  C   UNL     1       9.061   6.593   8.502  0.00  0.00    +0.046 A 
ATOM     30  C   UNL     1       9.956   5.075   6.848  0.00  0.00    +0.046 A 
ATOM     31  C   UNL     1       9.419   5.301   8.116  0.00  0.00    +0.120 A 
BRANCH  31   5
ATOM      5  O   UNL     1       9.244   4.260   8.976  0.00  0.00    -0.495 OA
ATOM     32  C   UNL     1       9.036   4.582  10.350  0.00  0.00    +0.277 C 
ENDBRANCH  31   5
ENDBRANCH  23  25
ENDBRANCH  19  23
TORSDOF 9
ENDMDL
MODEL 9
REMARK VINA RESULT:      -5.8     24.663     27.681
REMARK  Name = 28959871
REMARK  11 active torsions:
REMARK  status: ('A' for Active; 'I' for Inactive)
REMARK    1  A    between atoms: O_2  and  C_22
REMARK    2  A    between atoms: O_5  and  C_31
REMARK    3  A    between atoms: O_5  and  C_32
REMARK    4  A    between atoms: N_7  and  C_16
REMARK    5  A    between atoms: C_9  and  C_13
REMARK    6  A    between atoms: C_10  and  C_15
REMARK    7  A    between atoms: C_13  and  C_16
REMARK    8  A    between atoms: C_15  and  C_22
REMARK    9  A    between atoms: C_19  and  C_23
REMARK   10  A    between atoms: C_23  and  C_25
REMARK   11  A    between atoms: C_24  and  C_26
REMARK                            x       y       z     vdW  Elec       q    Type
REMARK                         _______ _______ _______ _____ _____    ______ ____
ROOT
ATOM      1  O   UNL     1      13.439   9.464   6.911  0.00  0.00    -0.275 OA
ATOM      6  N   UNL     1      11.839   7.785   7.038  0.00  0.00    -0.301 N 
ATOM      9  C   UNL     1      10.396   6.058   5.984  0.00  0.00    +0.011 C 
ATOM     10  C   UNL     1       9.193   7.024   6.136  0.00  0.00    +0.006 C 
ATOM     11  C   UNL     1      11.455   6.368   7.059  0.00  0.00    +0.111 C 
ATOM     12  C   UNL     1       9.646   8.493   6.160  0.00  0.00    +0.023 C 
ATOM     14  C   UNL     1      10.729   8.722   7.212  0.00  0.00    +0.108 C 
ATOM     19  C   UNL     1      13.140   8.267   6.900  0.00  0.00    +0.220 C 
ENDROOT
BRANCH   9  13
ATOM     13  C   UNL     1      11.035   6.072   4.590  0.00  0.00    +0.020 C 
BRANCH  13  16
ATOM     16  C   UNL     1      10.814   4.745   3.878  0.00  0.00    +0.085 C 
BRANCH  16   7
ATOM      4  O   UNL     1      10.203   3.635  -2.120  0.00  0.00    -0.276 OA
ATOM      7  N   UNL     1      11.333   4.822   2.512  0.00  0.00    -0.299 NA
ATOM      8  N   UNL     1      11.506   4.089  -0.252  0.00  0.00    -0.299 N 
ATOM     17  C   UNL     1      10.264   5.194   1.574  0.00  0.00    +0.103 C 
ATOM     18  C   UNL     1      11.941   3.543   2.118  0.00  0.00    +0.103 C 
ATOM     20  C   UNL     1      10.809   5.310   0.151  0.00  0.00    +0.123 C 
ATOM     21  C   UNL     1      12.515   3.623   0.702  0.00  0.00    +0.123 C 
ATOM     24  C   UNL     1      11.270   3.538  -1.511  0.00  0.00    +0.213 C 
ATOM     26  C   UNL     1      12.413   2.778  -2.139  0.00  0.00    +0.109 C 
ENDBRANCH  16   7
ENDBRANCH  13  16
ENDBRANCH   9  13
BRANCH  10  15
ATOM     15  C   UNL     1       8.115   6.809   5.075  0.00  0.00    +0.124 C 
BRANCH  15  22
ATOM      3  O   UNL     1       8.668   8.117   3.094  0.00  0.00    -0.251 OA
ATOM     22  C   UNL     1       8.029   7.973   4.127  0.00  0.00    +0.305 C 
BRANCH  22   2
ATOM      2  O   UNL     1       7.120   8.871   4.583  0.00  0.00    -0.481 OA
ATOM     33  H   UNL     1       6.202   8.611   4.356  0.00  0.00    +0.295 HD
ENDBRANCH  22   2
ENDBRANCH  15  22
ENDBRANCH  10  15
BRANCH  19  23
ATOM     23  C   UNL     1      14.227   7.238   6.722  0.00  0.00    +0.131 C 
BRANCH  23  25
ATOM     25  C   UNL     1      15.047   7.540   5.508  0.00  0.00    -0.038 A 
ATOM     27  C   UNL     1      16.319   8.095   5.644  0.00  0.00    +0.007 A 
ATOM     28  C   UNL     1      14.539   7.266   4.238  0.00  0.00    +0.007 A 
ATOM     29  C   UNL     1      17.083   8.378   4.512  0.00  0.00    +0.046 A 
ATOM     30  C   UNL     1      15.303   7.547   3.105  0.00  0.00    +0.046 A 
ATOM     31  C   UNL     1      16.575   8.103   3.243  0.00  0.00    +0.120 A 
BRANCH  31   5
ATOM      5  O   UNL     1      17.320   8.377   2.137  0.00  0.00    -0.495 OA
ATOM     32  C   UNL     1      18.736   8.421   2.304  0.00  0.00    +0.277 C 
ENDBRANCH  31   5
ENDBRANCH  23  25
ENDBRANCH  19  23
TORSDOF 9
ENDMDL
MODEL 10
REMARK VINA RESULT:      -5.6      2.657      8.227
REMARK  Name = 28959871
REMARK  11 active torsions:
REMARK  status: ('A' for Active; 'I' for Inactive)
REMARK    1  A    between atoms: O_2  and  C_22
REMARK    2  A    between atoms: O_5  and  C_31
REMARK    3  A    between atoms: O_5  and  C_32
REMARK    4  A    between atoms: N_7  and  C_16
REMARK    5  A    between atoms: C_9  and  C_13
REMARK    6  A    between atoms: C_10  and  C_15
REMARK    7  A    between atoms: C_13  and  C_16
REMARK    8  A    between atoms: C_15  and  C_22
REMARK    9  A    between atoms: C_19  and  C_23
REMARK   10  A    between atoms: C_23  and  C_25
REMARK   11  A    between atoms: C_24  and  C_26
REMARK                            x       y       z     vdW  Elec       q    Type
REMARK                         _______ _______ _______ _____ _____    ______ ____
ROOT
ATOM      1  O   UNL     1      -8.089 -11.516  19.976  0.00  0.00    -0.275 OA
ATOM      6  N   UNL     1      -6.850 -10.509  18.289  0.00  0.00    -0.301 N 
ATOM      9  C   UNL     1      -5.761 -10.552  16.055  0.00  0.00    +0.011 C 
ATOM     10  C   UNL     1      -4.394 -10.719  16.766  0.00  0.00    +0.006 C 
ATOM     11  C   UNL     1      -6.752  -9.831  16.989  0.00  0.00    +0.111 C 
ATOM     12  C   UNL     1      -4.551 -11.386  18.143  0.00  0.00    +0.023 C 
ATOM     14  C   UNL     1      -5.581 -10.653  19.000  0.00  0.00    +0.108 C 
ATOM     19  C   UNL     1      -8.030 -10.973  18.870  0.00  0.00    +0.220 C 
ENDROOT
BRANCH   9  13
ATOM     13  C   UNL     1      -6.367 -11.867  15.550  0.00  0.00    +0.020 C 
BRANCH  13  16
ATOM     16  C   UNL     1      -7.080 -11.661  14.221  0.00  0.00    +0.085 C 
BRANCH  16   7
ATOM      4  O   UNL     1      -6.481  -8.366   9.087  0.00  0.00    -0.276 OA
ATOM      7  N   UNL     1      -6.296 -10.765  13.371  0.00  0.00    -0.299 NA
ATOM      8  N   UNL     1      -5.577  -9.472  10.918  0.00  0.00    -0.299 N 
ATOM     17  C   UNL     1      -7.152  -9.713  12.804  0.00  0.00    +0.103 C 
ATOM     18  C   UNL     1      -5.630 -11.520  12.300  0.00  0.00    +0.103 C 
ATOM     20  C   UNL     1      -6.332  -8.753  11.943  0.00  0.00    +0.123 C 
ATOM     21  C   UNL     1      -4.783 -10.595  11.423  0.00  0.00    +0.123 C 
ATOM     24  C   UNL     1      -5.558  -8.997   9.607  0.00  0.00    +0.213 C 
ATOM     26  C   UNL     1      -4.319  -9.293   8.800  0.00  0.00    +0.109 C 
ENDBRANCH  16   7
ENDBRANCH  13  16
ENDBRANCH   9  13
BRANCH  10  15
ATOM     15  C   UNL     1      -3.365 -11.467  15.919  0.00  0.00    +0.124 C 
BRANCH  15  22
ATOM      3  O   UNL     1      -1.620 -10.016  15.030  0.00  0.00    -0.251 OA
ATOM     22  C   UNL     1      -2.039 -10.759  15.906  0.00  0.00    +0.305 C 
BRANCH  22   2
ATOM      2  O   UNL     1      -1.344 -11.065  17.032  0.00  0.00    -0.481 OA
ATOM     33  H   UNL     1      -1.345 -10.325  17.675  0.00  0.00    +0.295 HD
ENDBRANCH  22   2
ENDBRANCH  15  22
ENDBRANCH  10  15
BRANCH  19  23
ATOM     23  C   UNL     1      -9.296 -10.788  18.071  0.00  0.00    +0.131 C 
BRANCH  23  25
ATOM     25  C   UNL     1     -10.500 -10.956  18.944  0.00  0.00    -0.038 A 
ATOM     27  C   UNL     1     -11.028  -9.860  19.625  0.00  0.00    +0.007 A 
ATOM     28  C   UNL     1     -11.094 -12.211  19.076  0.00  0.00    +0.007 A 
ATOM     29  C   UNL     1     -12.149 -10.017  20.438  0.00  0.00    +0.046 A 
ATOM     30  C   UNL     1     -12.216 -12.369  19.890  0.00  0.00    +0.046 A 
ATOM     31  C   UNL     1     -12.744 -11.272  20.570  0.00  0.00    +0.120 A 
BRANCH  31   5
ATOM      5  O   UNL     1     -13.839 -11.426  21.364  0.00  0.00    -0.495 OA
ATOM     32  C   UNL     1     -15.045 -11.848  20.729  0.00  0.00    +0.277 C 
ENDBRANCH  31   5
ENDBRANCH  23  25
ENDBRANCH  19  23
TORSDOF 9
ENDMDL
