MODEL 1
REMARK VINA RESULT:      -6.6      0.000      0.000
REMARK  Name = 45783551
REMARK  8 active torsions:
REMARK  status: ('A' for Active; 'I' for Inactive)
REMARK    1  A    between atoms: O_2  and  C_19
REMARK    2  A    between atoms: O_2  and  C_20
REMARK    3  A    between atoms: O_3  and  C_21
REMARK    4  A    between atoms: O_3  and  C_22
REMARK    5  A    between atoms: N_4  and  C_13
REMARK    6  A    between atoms: C_8  and  C_12
REMARK    7  A    between atoms: C_14  and  C_15
REMARK    8  A    between atoms: C_20  and  C_21
REMARK                            x       y       z     vdW  Elec       q    Type
REMARK                         _______ _______ _______ _____ _____    ______ ____
ROOT
ATOM      1  O   UNL     1      13.411   7.357  18.577  0.00  0.00    -0.336 OA
ATOM      5  N   UNL     1      14.228   6.994  20.630  0.00  0.00    -0.190 NA
ATOM      6  N   UNL     1      14.784   7.129  18.415  0.00  0.00    -0.056 NA
ATOM     12  C   UNL     1      13.168   7.260  19.910  0.00  0.00    +0.245 A 
ATOM     14  C   UNL     1      15.195   6.923  19.670  0.00  0.00    +0.204 A 
ENDROOT
BRANCH  12   8
ATOM      4  N   UNL     1      11.457   6.878  21.675  0.00  0.00    -0.294 NA
ATOM      8  C   UNL     1      11.734   7.468  20.351  0.00  0.00    +0.146 C 
ATOM      9  C   UNL     1      11.369   8.957  20.502  0.00  0.00    +0.030 C 
ATOM     10  C   UNL     1      10.840   9.095  21.922  0.00  0.00    +0.017 C 
ATOM     11  C   UNL     1      10.398   7.689  22.276  0.00  0.00    +0.085 C 
ATOM     13  C   UNL     1      11.097   5.467  21.612  0.00  0.00    +0.105 C 
ENDBRANCH  12   8
BRANCH  14  15
ATOM      7  N   UNL     1      18.443   6.989  21.479  0.00  0.00    -0.221 NA
ATOM     15  C   UNL     1      16.563   6.645  19.998  0.00  0.00    +0.041 A 
ATOM     16  C   UNL     1      17.333   5.803  19.204  0.00  0.00    +0.018 A 
ATOM     17  C   UNL     1      17.159   7.208  21.115  0.00  0.00    +0.126 A 
ATOM     18  C   UNL     1      18.657   5.552  19.546  0.00  0.00    +0.068 A 
ATOM     19  C   UNL     1      19.160   6.165  20.684  0.00  0.00    +0.215 A 
BRANCH  19   2
ATOM      2  O   UNL     1      20.463   5.934  21.042  0.00  0.00    -0.474 OA
BRANCH   2  20
ATOM     20  C   UNL     1      21.059   4.740  20.552  0.00  0.00    +0.258 C 
BRANCH  20  21
ATOM     21  C   UNL     1      21.802   4.057  21.684  0.00  0.00    +0.200 C 
BRANCH  21   3
ATOM      3  O   UNL     1      21.509   4.727  22.903  0.00  0.00    -0.380 OA
ATOM     22  C   UNL     1      22.647   4.785  23.752  0.00  0.00    +0.194 C 
ENDBRANCH  21   3
ENDBRANCH  20  21
ENDBRANCH   2  20
ENDBRANCH  19   2
ENDBRANCH  14  15
TORSDOF 6
ENDMDL
MODEL 2
REMARK VINA RESULT:      -5.9     26.742     28.631
REMARK  Name = 45783551
REMARK  8 active torsions:
REMARK  status: ('A' for Active; 'I' for Inactive)
REMARK    1  A    between atoms: O_2  and  C_19
REMARK    2  A    between atoms: O_2  and  C_20
REMARK    3  A    between atoms: O_3  and  C_21
REMARK    4  A    between atoms: O_3  and  C_22
REMARK    5  A    between atoms: N_4  and  C_13
REMARK    6  A    between atoms: C_8  and  C_12
REMARK    7  A    between atoms: C_14  and  C_15
REMARK    8  A    between atoms: C_20  and  C_21
REMARK                            x       y       z     vdW  Elec       q    Type
REMARK                         _______ _______ _______ _____ _____    ______ ____
ROOT
ATOM      1  O   UNL     1      -1.807 -10.636  13.053  0.00  0.00    -0.336 OA
ATOM      5  N   UNL     1      -4.038 -10.638  13.245  0.00  0.00    -0.190 NA
ATOM      6  N   UNL     1      -2.079 -10.626  14.427  0.00  0.00    -0.056 NA
ATOM     12  C   UNL     1      -3.015 -10.643  12.430  0.00  0.00    +0.245 A 
ATOM     14  C   UNL     1      -3.415 -10.628  14.459  0.00  0.00    +0.204 A 
ENDROOT
BRANCH  12   8
ATOM      4  N   UNL     1      -4.193 -11.288  10.336  0.00  0.00    -0.294 NA
ATOM      8  C   UNL     1      -2.992 -10.656  10.916  0.00  0.00    +0.146 C 
ATOM      9  C   UNL     1      -2.964  -9.241  10.310  0.00  0.00    +0.030 C 
ATOM     10  C   UNL     1      -4.150  -9.192   9.358  0.00  0.00    +0.017 C 
ATOM     11  C   UNL     1      -4.411 -10.649   9.038  0.00  0.00    +0.085 C 
ATOM     13  C   UNL     1      -4.082 -12.737  10.222  0.00  0.00    +0.105 C 
ENDBRANCH  12   8
BRANCH  14  15
ATOM      7  N   UNL     1      -6.165  -9.995  16.881  0.00  0.00    -0.221 NA
ATOM     15  C   UNL     1      -4.158 -10.618  15.687  0.00  0.00    +0.041 A 
ATOM     16  C   UNL     1      -3.638 -11.189  16.842  0.00  0.00    +0.018 A 
ATOM     17  C   UNL     1      -5.415 -10.039  15.757  0.00  0.00    +0.126 A 
ATOM     18  C   UNL     1      -4.380 -11.163  18.018  0.00  0.00    +0.068 A 
ATOM     19  C   UNL     1      -5.627 -10.560  17.985  0.00  0.00    +0.215 A 
BRANCH  19   2
ATOM      2  O   UNL     1      -6.378 -10.522  19.131  0.00  0.00    -0.474 OA
BRANCH   2  20
ATOM     20  C   UNL     1      -6.932 -11.754  19.574  0.00  0.00    +0.258 C 
BRANCH  20  21
ATOM     21  C   UNL     1      -8.422 -11.758  19.295  0.00  0.00    +0.200 C 
BRANCH  21   3
ATOM      3  O   UNL     1      -9.060 -10.836  20.169  0.00  0.00    -0.380 OA
ATOM     22  C   UNL     1     -10.419 -10.631  19.809  0.00  0.00    +0.194 C 
ENDBRANCH  21   3
ENDBRANCH  20  21
ENDBRANCH   2  20
ENDBRANCH  19   2
ENDBRANCH  14  15
TORSDOF 6
ENDMDL
MODEL 3
REMARK VINA RESULT:      -5.8      1.702      8.427
REMARK  Name = 45783551
REMARK  8 active torsions:
REMARK  status: ('A' for Active; 'I' for Inactive)
REMARK    1  A    between atoms: O_2  and  C_19
REMARK    2  A    between atoms: O_2  and  C_20
REMARK    3  A    between atoms: O_3  and  C_21
REMARK    4  A    between atoms: O_3  and  C_22
REMARK    5  A    between atoms: N_4  and  C_13
REMARK    6  A    between atoms: C_8  and  C_12
REMARK    7  A    between atoms: C_14  and  C_15
REMARK    8  A    between atoms: C_20  and  C_21
REMARK                            x       y       z     vdW  Elec       q    Type
REMARK                         _______ _______ _______ _____ _____    ______ ____
ROOT
ATOM      1  O   UNL     1      19.642   4.835  20.008  0.00  0.00    -0.336 OA
ATOM      5  N   UNL     1      19.151   6.790  20.984  0.00  0.00    -0.190 NA
ATOM      6  N   UNL     1      18.371   5.196  19.541  0.00  0.00    -0.056 NA
ATOM     12  C   UNL     1      20.028   5.828  20.852  0.00  0.00    +0.245 A 
ATOM     14  C   UNL     1      18.152   6.359  20.161  0.00  0.00    +0.204 A 
ENDROOT
BRANCH  12   8
ATOM      4  N   UNL     1      21.305   5.481  22.959  0.00  0.00    -0.294 NA
ATOM      8  C   UNL     1      21.389   5.672  21.498  0.00  0.00    +0.146 C 
ATOM      9  C   UNL     1      22.153   4.437  20.985  0.00  0.00    +0.030 C 
ATOM     10  C   UNL     1      22.508   3.643  22.234  0.00  0.00    +0.017 C 
ATOM     11  C   UNL     1      22.467   4.678  23.339  0.00  0.00    +0.085 C 
ATOM     13  C   UNL     1      21.239   6.735  23.700  0.00  0.00    +0.105 C 
ENDBRANCH  12   8
BRANCH  14  15
ATOM      7  N   UNL     1      14.732   7.273  19.023  0.00  0.00    -0.221 NA
ATOM     15  C   UNL     1      16.946   7.114  19.982  0.00  0.00    +0.041 A 
ATOM     16  C   UNL     1      16.796   8.371  20.555  0.00  0.00    +0.018 A 
ATOM     17  C   UNL     1      15.894   6.613  19.232  0.00  0.00    +0.126 A 
ATOM     18  C   UNL     1      15.616   9.081  20.363  0.00  0.00    +0.068 A 
ATOM     19  C   UNL     1      14.623   8.493  19.595  0.00  0.00    +0.215 A 
BRANCH  19   2
ATOM      2  O   UNL     1      13.450   9.172  19.392  0.00  0.00    -0.474 OA
BRANCH   2  20
ATOM     20  C   UNL     1      12.343   8.411  18.923  0.00  0.00    +0.258 C 
BRANCH  20  21
ATOM     21  C   UNL     1      11.239   8.451  19.962  0.00  0.00    +0.200 C 
BRANCH  21   3
ATOM      3  O   UNL     1      11.125   7.169  20.566  0.00  0.00    -0.380 OA
ATOM     22  C   UNL     1      10.556   7.254  21.865  0.00  0.00    +0.194 C 
ENDBRANCH  21   3
ENDBRANCH  20  21
ENDBRANCH   2  20
ENDBRANCH  19   2
ENDBRANCH  14  15
TORSDOF 6
ENDMDL
MODEL 4
REMARK VINA RESULT:      -5.7      1.935      2.517
REMARK  Name = 45783551
REMARK  8 active torsions:
REMARK  status: ('A' for Active; 'I' for Inactive)
REMARK    1  A    between atoms: O_2  and  C_19
REMARK    2  A    between atoms: O_2  and  C_20
REMARK    3  A    between atoms: O_3  and  C_21
REMARK    4  A    between atoms: O_3  and  C_22
REMARK    5  A    between atoms: N_4  and  C_13
REMARK    6  A    between atoms: C_8  and  C_12
REMARK    7  A    between atoms: C_14  and  C_15
REMARK    8  A    between atoms: C_20  and  C_21
REMARK                            x       y       z     vdW  Elec       q    Type
REMARK                         _______ _______ _______ _____ _____    ______ ____
ROOT
ATOM      1  O   UNL     1      15.013   8.671  20.002  0.00  0.00    -0.336 OA
ATOM      5  N   UNL     1      15.486   6.482  19.989  0.00  0.00    -0.190 NA
ATOM      6  N   UNL     1      16.394   8.569  20.215  0.00  0.00    -0.056 NA
ATOM     12  C   UNL     1      14.557   7.397  19.879  0.00  0.00    +0.245 A 
ATOM     14  C   UNL     1      16.596   7.248  20.194  0.00  0.00    +0.204 A 
ENDROOT
BRANCH  12   8
ATOM      4  N   UNL     1      12.259   8.160  20.450  0.00  0.00    -0.294 NA
ATOM      8  C   UNL     1      13.071   7.233  19.638  0.00  0.00    +0.146 C 
ATOM      9  C   UNL     1      12.668   7.533  18.182  0.00  0.00    +0.030 C 
ATOM     10  C   UNL     1      11.584   8.596  18.280  0.00  0.00    +0.017 C 
ATOM     11  C   UNL     1      11.041   8.423  19.684  0.00  0.00    +0.085 C 
ATOM     13  C   UNL     1      11.968   7.652  21.785  0.00  0.00    +0.105 C 
ENDBRANCH  12   8
BRANCH  14  15
ATOM      7  N   UNL     1      19.412   4.833  19.941  0.00  0.00    -0.221 NA
ATOM     15  C   UNL     1      17.893   6.662  20.376  0.00  0.00    +0.041 A 
ATOM     16  C   UNL     1      18.869   7.304  21.130  0.00  0.00    +0.018 A 
ATOM     17  C   UNL     1      18.211   5.440  19.807  0.00  0.00    +0.126 A 
ATOM     18  C   UNL     1      20.116   6.712  21.290  0.00  0.00    +0.068 A 
ATOM     19  C   UNL     1      20.336   5.486  20.680  0.00  0.00    +0.215 A 
BRANCH  19   2
ATOM      2  O   UNL     1      21.558   4.882  20.823  0.00  0.00    -0.474 OA
BRANCH   2  20
ATOM     20  C   UNL     1      21.559   3.467  20.964  0.00  0.00    +0.258 C 
BRANCH  20  21
ATOM     21  C   UNL     1      22.879   3.030  21.571  0.00  0.00    +0.200 C 
BRANCH  21   3
ATOM      3  O   UNL     1      23.524   2.131  20.678  0.00  0.00    -0.380 OA
ATOM     22  C   UNL     1      24.448   1.294  21.361  0.00  0.00    +0.194 C 
ENDBRANCH  21   3
ENDBRANCH  20  21
ENDBRANCH   2  20
ENDBRANCH  19   2
ENDBRANCH  14  15
TORSDOF 6
ENDMDL
MODEL 5
REMARK VINA RESULT:      -5.6      1.998      8.889
REMARK  Name = 45783551
REMARK  8 active torsions:
REMARK  status: ('A' for Active; 'I' for Inactive)
REMARK    1  A    between atoms: O_2  and  C_19
REMARK    2  A    between atoms: O_2  and  C_20
REMARK    3  A    between atoms: O_3  and  C_21
REMARK    4  A    between atoms: O_3  and  C_22
REMARK    5  A    between atoms: N_4  and  C_13
REMARK    6  A    between atoms: C_8  and  C_12
REMARK    7  A    between atoms: C_14  and  C_15
REMARK    8  A    between atoms: C_20  and  C_21
REMARK                            x       y       z     vdW  Elec       q    Type
REMARK                         _______ _______ _______ _____ _____    ______ ____
ROOT
ATOM      1  O   UNL     1      20.146   7.021  21.377  0.00  0.00    -0.336 OA
ATOM      5  N   UNL     1      18.980   5.536  20.174  0.00  0.00    -0.190 NA
ATOM      6  N   UNL     1      18.831   7.501  21.335  0.00  0.00    -0.056 NA
ATOM     12  C   UNL     1      20.147   5.861  20.670  0.00  0.00    +0.245 A 
ATOM     14  C   UNL     1      18.205   6.571  20.608  0.00  0.00    +0.204 A 
ENDROOT
BRANCH  12   8
ATOM      4  N   UNL     1      22.536   5.781  21.360  0.00  0.00    -0.294 NA
ATOM      8  C   UNL     1      21.472   5.135  20.567  0.00  0.00    +0.146 C 
ATOM      9  C   UNL     1      21.403   3.693  21.104  0.00  0.00    +0.030 C 
ATOM     10  C   UNL     1      22.505   3.607  22.151  0.00  0.00    +0.017 C 
ATOM     11  C   UNL     1      23.458   4.717  21.759  0.00  0.00    +0.085 C 
ATOM     13  C   UNL     1      23.214   6.855  20.645  0.00  0.00    +0.105 C 
ENDBRANCH  12   8
BRANCH  14  15
ATOM      7  N   UNL     1      15.049   6.507  18.642  0.00  0.00    -0.221 NA
ATOM     15  C   UNL     1      16.806   6.647  20.296  0.00  0.00    +0.041 A 
ATOM     16  C   UNL     1      15.867   6.922  21.282  0.00  0.00    +0.018 A 
ATOM     17  C   UNL     1      16.351   6.449  19.003  0.00  0.00    +0.126 A 
ATOM     18  C   UNL     1      14.519   6.990  20.951  0.00  0.00    +0.068 A 
ATOM     19  C   UNL     1      14.164   6.777  19.627  0.00  0.00    +0.215 A 
BRANCH  19   2
ATOM      2  O   UNL     1      12.842   6.839  19.275  0.00  0.00    -0.474 OA
BRANCH   2  20
ATOM     20  C   UNL     1      12.158   8.052  19.563  0.00  0.00    +0.258 C 
BRANCH  20  21
ATOM     21  C   UNL     1      11.920   8.807  18.270  0.00  0.00    +0.200 C 
BRANCH  21   3
ATOM      3  O   UNL     1      11.325   7.928  17.323  0.00  0.00    -0.380 OA
ATOM     22  C   UNL     1      10.675   8.645  16.283  0.00  0.00    +0.194 C 
ENDBRANCH  21   3
ENDBRANCH  20  21
ENDBRANCH   2  20
ENDBRANCH  19   2
ENDBRANCH  14  15
TORSDOF 6
ENDMDL
MODEL 6
REMARK VINA RESULT:      -5.6      2.071      8.993
REMARK  Name = 45783551
REMARK  8 active torsions:
REMARK  status: ('A' for Active; 'I' for Inactive)
REMARK    1  A    between atoms: O_2  and  C_19
REMARK    2  A    between atoms: O_2  and  C_20
REMARK    3  A    between atoms: O_3  and  C_21
REMARK    4  A    between atoms: O_3  and  C_22
REMARK    5  A    between atoms: N_4  and  C_13
REMARK    6  A    between atoms: C_8  and  C_12
REMARK    7  A    between atoms: C_14  and  C_15
REMARK    8  A    between atoms: C_20  and  C_21
REMARK                            x       y       z     vdW  Elec       q    Type
REMARK                         _______ _______ _______ _____ _____    ______ ____
ROOT
ATOM      1  O   UNL     1      21.472   6.408  22.489  0.00  0.00    -0.336 OA
ATOM      5  N   UNL     1      20.671   5.179  20.797  0.00  0.00    -0.190 NA
ATOM      6  N   UNL     1      20.221   6.952  22.170  0.00  0.00    -0.056 NA
ATOM     12  C   UNL     1      21.659   5.369  21.634  0.00  0.00    +0.245 A 
ATOM     14  C   UNL     1      19.812   6.173  21.164  0.00  0.00    +0.204 A 
ENDROOT
BRANCH  12   8
ATOM      4  N   UNL     1      22.744   3.167  22.042  0.00  0.00    -0.294 NA
ATOM      8  C   UNL     1      22.958   4.603  21.778  0.00  0.00    +0.146 C 
ATOM      9  C   UNL     1      23.815   4.642  20.499  0.00  0.00    +0.030 C 
ATOM     10  C   UNL     1      24.083   3.183  20.155  0.00  0.00    +0.017 C 
ATOM     11  C   UNL     1      23.896   2.466  21.476  0.00  0.00    +0.085 C 
ATOM     13  C   UNL     1      22.558   2.864  23.456  0.00  0.00    +0.105 C 
ENDBRANCH  12   8
BRANCH  14  15
ATOM      7  N   UNL     1      16.455   7.554  20.361  0.00  0.00    -0.221 NA
ATOM     15  C   UNL     1      18.553   6.363  20.504  0.00  0.00    +0.041 A 
ATOM     16  C   UNL     1      18.195   5.585  19.409  0.00  0.00    +0.018 A 
ATOM     17  C   UNL     1      17.656   7.326  20.937  0.00  0.00    +0.126 A 
ATOM     18  C   UNL     1      16.967   5.790  18.789  0.00  0.00    +0.068 A 
ATOM     19  C   UNL     1      16.140   6.779  19.299  0.00  0.00    +0.215 A 
BRANCH  19   2
ATOM      2  O   UNL     1      14.925   7.001  18.706  0.00  0.00    -0.474 OA
BRANCH   2  20
ATOM     20  C   UNL     1      13.971   7.741  19.457  0.00  0.00    +0.258 C 
BRANCH  20  21
ATOM     21  C   UNL     1      12.737   6.887  19.670  0.00  0.00    +0.200 C 
BRANCH  21   3
ATOM      3  O   UNL     1      11.583   7.715  19.599  0.00  0.00    -0.380 OA
ATOM     22  C   UNL     1      10.950   7.836  20.866  0.00  0.00    +0.194 C 
ENDBRANCH  21   3
ENDBRANCH  20  21
ENDBRANCH   2  20
ENDBRANCH  19   2
ENDBRANCH  14  15
TORSDOF 6
ENDMDL
MODEL 7
REMARK VINA RESULT:      -5.4     26.274     29.210
REMARK  Name = 45783551
REMARK  8 active torsions:
REMARK  status: ('A' for Active; 'I' for Inactive)
REMARK    1  A    between atoms: O_2  and  C_19
REMARK    2  A    between atoms: O_2  and  C_20
REMARK    3  A    between atoms: O_3  and  C_21
REMARK    4  A    between atoms: O_3  and  C_22
REMARK    5  A    between atoms: N_4  and  C_13
REMARK    6  A    between atoms: C_8  and  C_12
REMARK    7  A    between atoms: C_14  and  C_15
REMARK    8  A    between atoms: C_20  and  C_21
REMARK                            x       y       z     vdW  Elec       q    Type
REMARK                         _______ _______ _______ _____ _____    ______ ____
ROOT
ATOM      1  O   UNL     1      -2.708 -10.516  14.993  0.00  0.00    -0.336 OA
ATOM      5  N   UNL     1      -4.871 -11.035  14.736  0.00  0.00    -0.190 NA
ATOM      6  N   UNL     1      -3.278 -10.455  16.272  0.00  0.00    -0.056 NA
ATOM     12  C   UNL     1      -3.714 -10.864  14.149  0.00  0.00    +0.245 A 
ATOM     14  C   UNL     1      -4.555 -10.774  16.037  0.00  0.00    +0.204 A 
ENDROOT
BRANCH  12   8
ATOM      4  N   UNL     1      -3.924  -9.922  11.856  0.00  0.00    -0.294 NA
ATOM      8  C   UNL     1      -3.349 -10.999  12.686  0.00  0.00    +0.146 C 
ATOM      9  C   UNL     1      -1.831 -10.914  12.441  0.00  0.00    +0.030 C 
ATOM     10  C   UNL     1      -1.655  -9.803  11.416  0.00  0.00    +0.017 C 
ATOM     11  C   UNL     1      -3.005  -9.730  10.733  0.00  0.00    +0.085 C 
ATOM     13  C   UNL     1      -5.283 -10.201  11.411  0.00  0.00    +0.105 C 
ENDBRANCH  12   8
BRANCH  14  15
ATOM      7  N   UNL     1      -7.850 -11.137  17.721  0.00  0.00    -0.221 NA
ATOM     15  C   UNL     1      -5.538 -10.838  17.079  0.00  0.00    +0.041 A 
ATOM     16  C   UNL     1      -5.181 -10.673  18.412  0.00  0.00    +0.018 A 
ATOM     17  C   UNL     1      -6.874 -11.066  16.788  0.00  0.00    +0.126 A 
ATOM     18  C   UNL     1      -6.157 -10.740  19.400  0.00  0.00    +0.068 A 
ATOM     19  C   UNL     1      -7.465 -10.972  19.006  0.00  0.00    +0.215 A 
BRANCH  19   2
ATOM      2  O   UNL     1      -8.445 -11.042  19.962  0.00  0.00    -0.474 OA
BRANCH   2  20
ATOM     20  C   UNL     1      -9.776 -11.234  19.501  0.00  0.00    +0.258 C 
BRANCH  20  21
ATOM     21  C   UNL     1     -10.702 -10.299  20.255  0.00  0.00    +0.200 C 
BRANCH  21   3
ATOM      3  O   UNL     1     -11.607  -9.701  19.335  0.00  0.00    -0.380 OA
ATOM     22  C   UNL     1     -11.009  -9.521  18.059  0.00  0.00    +0.194 C 
ENDBRANCH  21   3
ENDBRANCH  20  21
ENDBRANCH   2  20
ENDBRANCH  19   2
ENDBRANCH  14  15
TORSDOF 6
ENDMDL
MODEL 8
REMARK VINA RESULT:      -5.4      2.085      2.569
REMARK  Name = 45783551
REMARK  8 active torsions:
REMARK  status: ('A' for Active; 'I' for Inactive)
REMARK    1  A    between atoms: O_2  and  C_19
REMARK    2  A    between atoms: O_2  and  C_20
REMARK    3  A    between atoms: O_3  and  C_21
REMARK    4  A    between atoms: O_3  and  C_22
REMARK    5  A    between atoms: N_4  and  C_13
REMARK    6  A    between atoms: C_8  and  C_12
REMARK    7  A    between atoms: C_14  and  C_15
REMARK    8  A    between atoms: C_20  and  C_21
REMARK                            x       y       z     vdW  Elec       q    Type
REMARK                         _______ _______ _______ _____ _____    ______ ____
ROOT
ATOM      1  O   UNL     1      15.259   9.577  21.205  0.00  0.00    -0.336 OA
ATOM      5  N   UNL     1      15.483   7.827  19.825  0.00  0.00    -0.190 NA
ATOM      6  N   UNL     1      16.510   9.016  21.488  0.00  0.00    -0.056 NA
ATOM     12  C   UNL     1      14.721   8.818  20.214  0.00  0.00    +0.245 A 
ATOM     14  C   UNL     1      16.570   7.989  20.634  0.00  0.00    +0.204 A 
ENDROOT
BRANCH  12   8
ATOM      4  N   UNL     1      12.459   8.069  19.500  0.00  0.00    -0.294 NA
ATOM      8  C   UNL     1      13.349   9.225  19.721  0.00  0.00    +0.146 C 
ATOM      9  C   UNL     1      12.594  10.113  20.729  0.00  0.00    +0.030 C 
ATOM     10  C   UNL     1      11.268   9.405  20.967  0.00  0.00    +0.017 C 
ATOM     11  C   UNL     1      11.095   8.547  19.731  0.00  0.00    +0.085 C 
ATOM     13  C   UNL     1      12.613   7.469  18.181  0.00  0.00    +0.105 C 
ENDBRANCH  12   8
BRANCH  14  15
ATOM      7  N   UNL     1      19.868   6.459  21.412  0.00  0.00    -0.221 NA
ATOM     15  C   UNL     1      17.698   7.106  20.566  0.00  0.00    +0.041 A 
ATOM     16  C   UNL     1      17.745   6.075  19.635  0.00  0.00    +0.018 A 
ATOM     17  C   UNL     1      18.775   7.254  21.425  0.00  0.00    +0.126 A 
ATOM     18  C   UNL     1      18.852   5.236  19.591  0.00  0.00    +0.068 A 
ATOM     19  C   UNL     1      19.878   5.467  20.493  0.00  0.00    +0.215 A 
BRANCH  19   2
ATOM      2  O   UNL     1      20.980   4.653  20.470  0.00  0.00    -0.474 OA
BRANCH   2  20
ATOM     20  C   UNL     1      22.250   5.294  20.455  0.00  0.00    +0.258 C 
BRANCH  20  21
ATOM     21  C   UNL     1      23.327   4.269  20.748  0.00  0.00    +0.200 C 
BRANCH  21   3
ATOM      3  O   UNL     1      24.300   4.308  19.712  0.00  0.00    -0.380 OA
ATOM     22  C   UNL     1      25.075   3.118  19.680  0.00  0.00    +0.194 C 
ENDBRANCH  21   3
ENDBRANCH  20  21
ENDBRANCH   2  20
ENDBRANCH  19   2
ENDBRANCH  14  15
TORSDOF 6
ENDMDL
MODEL 9
REMARK VINA RESULT:      -5.3     30.566     32.665
REMARK  Name = 45783551
REMARK  8 active torsions:
REMARK  status: ('A' for Active; 'I' for Inactive)
REMARK    1  A    between atoms: O_2  and  C_19
REMARK    2  A    between atoms: O_2  and  C_20
REMARK    3  A    between atoms: O_3  and  C_21
REMARK    4  A    between atoms: O_3  and  C_22
REMARK    5  A    between atoms: N_4  and  C_13
REMARK    6  A    between atoms: C_8  and  C_12
REMARK    7  A    between atoms: C_14  and  C_15
REMARK    8  A    between atoms: C_20  and  C_21
REMARK                            x       y       z     vdW  Elec       q    Type
REMARK                         _______ _______ _______ _____ _____    ______ ____
ROOT
ATOM      1  O   UNL     1     -16.446   3.732  22.152  0.00  0.00    -0.336 OA
ATOM      5  N   UNL     1     -15.988   4.549  24.187  0.00  0.00    -0.190 NA
ATOM      6  N   UNL     1     -16.662   2.680  23.052  0.00  0.00    -0.056 NA
ATOM     12  C   UNL     1     -16.052   4.794  22.903  0.00  0.00    +0.245 A 
ATOM     14  C   UNL     1     -16.371   3.241  24.230  0.00  0.00    +0.204 A 
ENDROOT
BRANCH  12   8
ATOM      4  N   UNL     1     -15.422   7.197  23.054  0.00  0.00    -0.294 NA
ATOM      8  C   UNL     1     -15.753   6.076  22.153  0.00  0.00    +0.146 C 
ATOM      9  C   UNL     1     -14.533   5.949  21.222  0.00  0.00    +0.030 C 
ATOM     10  C   UNL     1     -13.598   7.077  21.636  0.00  0.00    +0.017 C 
ATOM     11  C   UNL     1     -14.518   8.074  22.309  0.00  0.00    +0.085 C 
ATOM     13  C   UNL     1     -16.597   7.908  23.543  0.00  0.00    +0.105 C 
ENDBRANCH  12   8
BRANCH  14  15
ATOM      7  N   UNL     1     -16.913   0.449  26.626  0.00  0.00    -0.221 NA
ATOM     15  C   UNL     1     -16.452   2.520  25.468  0.00  0.00    +0.041 A 
ATOM     16  C   UNL     1     -16.167   3.142  26.678  0.00  0.00    +0.018 A 
ATOM     17  C   UNL     1     -16.817   1.184  25.495  0.00  0.00    +0.126 A 
ATOM     18  C   UNL     1     -16.255   2.419  27.862  0.00  0.00    +0.068 A 
ATOM     19  C   UNL     1     -16.629   1.087  27.783  0.00  0.00    +0.215 A 
BRANCH  19   2
ATOM      2  O   UNL     1     -16.722   0.353  28.937  0.00  0.00    -0.474 OA
BRANCH   2  20
ATOM     20  C   UNL     1     -15.909   0.767  30.027  0.00  0.00    +0.258 C 
BRANCH  20  21
ATOM     21  C   UNL     1     -14.549   0.107  29.909  0.00  0.00    +0.200 C 
BRANCH  21   3
ATOM      3  O   UNL     1     -13.619   0.813  30.721  0.00  0.00    -0.380 OA
ATOM     22  C   UNL     1     -13.551   2.186  30.362  0.00  0.00    +0.194 C 
ENDBRANCH  21   3
ENDBRANCH  20  21
ENDBRANCH   2  20
ENDBRANCH  19   2
ENDBRANCH  14  15
TORSDOF 6
ENDMDL
MODEL 10
REMARK VINA RESULT:      -5.2     13.910     16.953
REMARK  Name = 45783551
REMARK  8 active torsions:
REMARK  status: ('A' for Active; 'I' for Inactive)
REMARK    1  A    between atoms: O_2  and  C_19
REMARK    2  A    between atoms: O_2  and  C_20
REMARK    3  A    between atoms: O_3  and  C_21
REMARK    4  A    between atoms: O_3  and  C_22
REMARK    5  A    between atoms: N_4  and  C_13
REMARK    6  A    between atoms: C_8  and  C_12
REMARK    7  A    between atoms: C_14  and  C_15
REMARK    8  A    between atoms: C_20  and  C_21
REMARK                            x       y       z     vdW  Elec       q    Type
REMARK                         _______ _______ _______ _____ _____    ______ ____
ROOT
ATOM      1  O   UNL     1      17.419   8.101   3.233  0.00  0.00    -0.336 OA
ATOM      5  N   UNL     1      16.928   7.921   5.410  0.00  0.00    -0.190 NA
ATOM      6  N   UNL     1      16.046   7.830   3.302  0.00  0.00    -0.056 NA
ATOM     12  C   UNL     1      17.860   8.138   4.517  0.00  0.00    +0.245 A 
ATOM     14  C   UNL     1      15.833   7.738   4.618  0.00  0.00    +0.204 A 
ENDROOT
BRANCH  12   8
ATOM      4  N   UNL     1      19.764   8.233   6.115  0.00  0.00    -0.294 NA
ATOM      8  C   UNL     1      19.334   8.420   4.716  0.00  0.00    +0.146 C 
ATOM      9  C   UNL     1      20.236   7.475   3.899  0.00  0.00    +0.030 C 
ATOM     10  C   UNL     1      21.178   6.847   4.916  0.00  0.00    +0.017 C 
ATOM     11  C   UNL     1      21.171   7.834   6.066  0.00  0.00    +0.085 C 
ATOM     13  C   UNL     1      19.559   9.414   6.944  0.00  0.00    +0.105 C 
ENDBRANCH  12   8
BRANCH  14  15
ATOM      7  N   UNL     1      12.170   7.131   4.824  0.00  0.00    -0.221 NA
ATOM     15  C   UNL     1      14.539   7.462   5.173  0.00  0.00    +0.041 A 
ATOM     16  C   UNL     1      14.374   7.263   6.538  0.00  0.00    +0.018 A 
ATOM     17  C   UNL     1      13.416   7.386   4.365  0.00  0.00    +0.126 A 
ATOM     18  C   UNL     1      13.108   6.998   7.048  0.00  0.00    +0.068 A 
ATOM     19  C   UNL     1      12.048   6.943   6.157  0.00  0.00    +0.215 A 
BRANCH  19   2
ATOM      2  O   UNL     1      10.790   6.683   6.635  0.00  0.00    -0.474 OA
BRANCH   2  20
ATOM     20  C   UNL     1      10.705   6.091   7.925  0.00  0.00    +0.258 C 
BRANCH  20  21
ATOM     21  C   UNL     1       9.852   4.840   7.841  0.00  0.00    +0.200 C 
BRANCH  21   3
ATOM      3  O   UNL     1      10.010   4.090   9.039  0.00  0.00    -0.380 OA
ATOM     22  C   UNL     1       9.140   4.554  10.063  0.00  0.00    +0.194 C 
ENDBRANCH  21   3
ENDBRANCH  20  21
ENDBRANCH   2  20
ENDBRANCH  19   2
ENDBRANCH  14  15
TORSDOF 6
ENDMDL
