REMARK  Name = 75536760
REMARK  6 active torsions:
REMARK  status: ('A' for Active; 'I' for Inactive)
REMARK    1  A    between atoms: O_2  and  C_11
REMARK    2  A    between atoms: N_5  and  C_10
REMARK    3  A    between atoms: N_5  and  C_15
REMARK    4  A    between atoms: N_6  and  C_14
REMARK    5  A    between atoms: C_12  and  C_14
REMARK    6  A    between atoms: C_15  and  C_19
REMARK                            x       y       z     vdW  Elec       q    Type
REMARK                         _______ _______ _______ _____ _____    ______ ____
ROOT
ATOM      1  O   UNL     1      -0.019   0.982  -0.107  0.00  0.00    -0.371 OA
ATOM     10  C   UNL     1       2.028  -0.203  -0.324  0.00  0.00    +0.111 C 
ATOM     11  C   UNL     1       1.086  -1.000   0.559  0.00  0.00    +0.164 C 
ATOM     12  C   UNL     1      -0.260  -0.410   0.161  0.00  0.00    +0.165 C 
ATOM     13  C   UNL     1       1.396   1.178  -0.267  0.00  0.00    +0.181 C 
ENDROOT
BRANCH  11   2
ATOM      2  O   UNL     1       1.147  -2.391   0.307  0.00  0.00    -0.388 OA
ATOM     26  H   UNL     1       0.961  -2.539  -0.635  0.00  0.00    +0.210 HD
ENDBRANCH  11   2
BRANCH  10   5
ATOM      5  N   UNL     1       3.407  -0.214   0.134  0.00  0.00    -0.302 NA
ATOM     24  H   UNL     1       3.669  -1.169   0.383  0.00  0.00    +0.123 HD
BRANCH   5  15
ATOM     15  C   UNL     1       4.310   0.266  -0.905  0.00  0.00    +0.156 C 
BRANCH  15  19
ATOM      8  N   UNL     1       6.211   1.248   0.400  0.00  0.00    -0.347 N 
ATOM      9  N   UNL     1       6.681  -0.586  -0.762  0.00  0.00    -0.240 NA
ATOM     19  C   UNL     1       5.743   0.278  -0.442  0.00  0.00    +0.121 A 
ATOM     22  C   UNL     1       7.532   0.986   0.631  0.00  0.00    +0.104 A 
ATOM     23  C   UNL     1       7.799  -0.150  -0.096  0.00  0.00    +0.130 A 
ATOM     27  H   UNL     1       5.679   2.018   0.782  0.00  0.00    +0.167 HD
ENDBRANCH  15  19
ENDBRANCH   5  15
ENDBRANCH  10   5
BRANCH  12  14
ATOM     14  C   UNL     1      -1.319  -0.549   1.240  0.00  0.00    +0.140 C 
BRANCH  14   6
ATOM      3  O   UNL     1      -7.314   1.079  -0.374  0.00  0.00    -0.377 OA
ATOM      4  O   UNL     1      -3.379  -1.909  -0.113  0.00  0.00    -0.253 OA
ATOM      6  N   UNL     1      -2.578   0.027   0.823  0.00  0.00    -0.297 N 
ATOM      7  N   UNL     1      -4.714  -0.014  -0.190  0.00  0.00    -0.281 N 
ATOM     16  C   UNL     1      -3.547  -0.715   0.157  0.00  0.00    +0.302 C 
ATOM     17  C   UNL     1      -5.785  -0.716  -0.900  0.00  0.00    +0.137 C 
ATOM     18  C   UNL     1      -4.932   1.433  -0.044  0.00  0.00    +0.137 C 
ATOM     20  C   UNL     1      -7.148  -0.340  -0.342  0.00  0.00    +0.179 C 
ATOM     21  C   UNL     1      -6.344   1.721   0.454  0.00  0.00    +0.179 C 
ATOM     25  H   UNL     1      -2.706   1.007   1.028  0.00  0.00    +0.150 HD
ENDBRANCH  14   6
ENDBRANCH  12  14
TORSDOF 6
