MODEL 1
REMARK VINA RESULT:      -6.8      0.000      0.000
REMARK  Name = 86769450
REMARK  1 active torsions:
REMARK  status: ('A' for Active; 'I' for Inactive)
REMARK    1  A    between atoms: N_3  and  C_9
REMARK                            x       y       z     vdW  Elec       q    Type
REMARK                         _______ _______ _______ _____ _____    ______ ____
ROOT
ATOM      2  O   UNL     1      19.140   8.388  22.263  0.00  0.00    -0.252 OA
ATOM      3  N   UNL     1      14.691   7.930  19.898  0.00  0.00    -0.296 NA
ATOM      4  N   UNL     1      17.347   8.003  20.824  0.00  0.00    -0.278 N 
ATOM      5  N   UNL     1      18.997   6.454  20.859  0.00  0.00    -0.238 N 
ATOM      6  N   UNL     1      21.055   6.261  22.053  0.00  0.00    -0.240 NA
ATOM      7  C   UNL     1      16.998   7.085  19.769  0.00  0.00    +0.109 C 
ATOM      8  C   UNL     1      15.519   6.709  19.852  0.00  0.00    +0.108 C 
ATOM     10  C   UNL     1      15.035   8.753  21.075  0.00  0.00    +0.104 C 
ATOM     11  C   UNL     1      16.510   9.163  21.056  0.00  0.00    +0.125 C 
ATOM     12  C   UNL     1      17.967   5.927  19.971  0.00  0.00    +0.140 C 
ATOM     15  C   UNL     1      18.581   7.699  21.420  0.00  0.00    +0.311 C 
ATOM     18  C   UNL     1      20.194   5.737  21.152  0.00  0.00    +0.129 A 
ATOM     19  C   UNL     1      20.400   4.539  20.487  0.00  0.00    +0.044 A 
ATOM     20  C   UNL     1      21.565   3.832  20.766  0.00  0.00    +0.005 A 
ATOM     21  C   UNL     1      22.176   5.546  22.299  0.00  0.00    +0.113 A 
ATOM     22  C   UNL     1      22.475   4.338  21.687  0.00  0.00    +0.020 A 
ENDROOT
BRANCH   3   9
ATOM      1  O   UNL     1      10.672   7.903  21.115  0.00  0.00    -0.380 OA
ATOM      9  C   UNL     1      13.272   7.583  19.918  0.00  0.00    +0.061 C 
ATOM     13  C   UNL     1      12.399   8.817  19.669  0.00  0.00    +0.047 C 
ATOM     14  C   UNL     1      12.899   6.941  21.258  0.00  0.00    +0.047 C 
ATOM     16  C   UNL     1      10.924   8.465  19.826  0.00  0.00    +0.161 C 
ATOM     17  C   UNL     1      11.396   6.692  21.326  0.00  0.00    +0.161 C 
ENDBRANCH   3   9
TORSDOF 1
ENDMDL
MODEL 2
REMARK VINA RESULT:      -6.7      2.096      7.907
REMARK  Name = 86769450
REMARK  1 active torsions:
REMARK  status: ('A' for Active; 'I' for Inactive)
REMARK    1  A    between atoms: N_3  and  C_9
REMARK                            x       y       z     vdW  Elec       q    Type
REMARK                         _______ _______ _______ _____ _____    ______ ____
ROOT
ATOM      2  O   UNL     1      13.702   6.583  19.890  0.00  0.00    -0.252 OA
ATOM      3  N   UNL     1      18.725   7.006  20.325  0.00  0.00    -0.296 NA
ATOM      4  N   UNL     1      15.933   7.237  20.065  0.00  0.00    -0.278 N 
ATOM      5  N   UNL     1      14.396   8.500  21.146  0.00  0.00    -0.238 N 
ATOM      6  N   UNL     1      12.021   8.394  21.348  0.00  0.00    -0.240 NA
ATOM      7  C   UNL     1      16.685   8.357  20.573  0.00  0.00    +0.109 C 
ATOM      8  C   UNL     1      17.972   7.881  21.245  0.00  0.00    +0.108 C 
ATOM     10  C   UNL     1      17.923   5.824  19.949  0.00  0.00    +0.104 C 
ATOM     11  C   UNL     1      16.613   6.232  19.272  0.00  0.00    +0.125 C 
ATOM     12  C   UNL     1      15.698   9.056  21.500  0.00  0.00    +0.140 C 
ATOM     15  C   UNL     1      14.556   7.352  20.313  0.00  0.00    +0.311 C 
ATOM     18  C   UNL     1      13.175   9.024  21.660  0.00  0.00    +0.129 A 
ATOM     19  C   UNL     1      13.250  10.157  22.455  0.00  0.00    +0.044 A 
ATOM     20  C   UNL     1      12.064  10.676  22.962  0.00  0.00    +0.005 A 
ATOM     21  C   UNL     1      10.888   8.926  21.859  0.00  0.00    +0.113 A 
ATOM     22  C   UNL     1      10.856  10.055  22.663  0.00  0.00    +0.020 A 
ENDROOT
BRANCH   3   9
ATOM      1  O   UNL     1      21.403   4.816  22.705  0.00  0.00    -0.380 OA
ATOM      9  C   UNL     1      19.987   6.591  20.935  0.00  0.00    +0.061 C 
ATOM     13  C   UNL     1      20.340   5.152  20.546  0.00  0.00    +0.047 C 
ATOM     14  C   UNL     1      19.908   6.716  22.459  0.00  0.00    +0.047 C 
ATOM     16  C   UNL     1      21.586   4.691  21.294  0.00  0.00    +0.161 C 
ATOM     17  C   UNL     1      21.178   6.168  23.102  0.00  0.00    +0.161 C 
ENDBRANCH   3   9
TORSDOF 1
ENDMDL
MODEL 3
REMARK VINA RESULT:      -6.4      5.482      7.987
REMARK  Name = 86769450
REMARK  1 active torsions:
REMARK  status: ('A' for Active; 'I' for Inactive)
REMARK    1  A    between atoms: N_3  and  C_9
REMARK                            x       y       z     vdW  Elec       q    Type
REMARK                         _______ _______ _______ _____ _____    ______ ____
ROOT
ATOM      2  O   UNL     1      14.295   8.902  14.844  0.00  0.00    -0.252 OA
ATOM      3  N   UNL     1      13.612   8.275  19.817  0.00  0.00    -0.296 NA
ATOM      4  N   UNL     1      14.254   8.989  17.173  0.00  0.00    -0.278 N 
ATOM      5  N   UNL     1      14.183  10.961  16.061  0.00  0.00    -0.238 N 
ATOM      6  N   UNL     1      14.213  11.554  13.750  0.00  0.00    -0.240 NA
ATOM      7  C   UNL     1      14.341   9.987  18.209  0.00  0.00    +0.109 C 
ATOM      8  C   UNL     1      13.385   9.658  19.354  0.00  0.00    +0.108 C 
ATOM     10  C   UNL     1      13.387   7.311  18.721  0.00  0.00    +0.104 C 
ATOM     11  C   UNL     1      14.314   7.588  17.535  0.00  0.00    +0.125 C 
ATOM     12  C   UNL     1      14.040  11.288  17.476  0.00  0.00    +0.140 C 
ATOM     15  C   UNL     1      14.256   9.546  15.884  0.00  0.00    +0.311 C 
ATOM     18  C   UNL     1      14.160  11.954  15.040  0.00  0.00    +0.129 A 
ATOM     19  C   UNL     1      14.086  13.279  15.439  0.00  0.00    +0.044 A 
ATOM     20  C   UNL     1      14.064  14.256  14.450  0.00  0.00    +0.005 A 
ATOM     21  C   UNL     1      14.188  12.531  12.816  0.00  0.00    +0.113 A 
ATOM     22  C   UNL     1      14.115  13.884  13.111  0.00  0.00    +0.020 A 
ENDROOT
BRANCH   3   9
ATOM      1  O   UNL     1      10.091   7.497  21.968  0.00  0.00    -0.380 OA
ATOM      9  C   UNL     1      12.743   7.967  20.951  0.00  0.00    +0.061 C 
ATOM     13  C   UNL     1      12.004   6.643  20.736  0.00  0.00    +0.047 C 
ATOM     14  C   UNL     1      11.736   9.099  21.173  0.00  0.00    +0.047 C 
ATOM     16  C   UNL     1      11.005   6.404  21.862  0.00  0.00    +0.161 C 
ATOM     17  C   UNL     1      10.752   8.724  22.275  0.00  0.00    +0.161 C 
ENDBRANCH   3   9
TORSDOF 1
ENDMDL
MODEL 4
REMARK VINA RESULT:      -6.3     32.517     34.137
REMARK  Name = 86769450
REMARK  1 active torsions:
REMARK  status: ('A' for Active; 'I' for Inactive)
REMARK    1  A    between atoms: N_3  and  C_9
REMARK                            x       y       z     vdW  Elec       q    Type
REMARK                         _______ _______ _______ _____ _____    ______ ____
ROOT
ATOM      2  O   UNL     1     -15.631   0.232  28.823  0.00  0.00    -0.252 OA
ATOM      3  N   UNL     1     -17.014   3.570  25.283  0.00  0.00    -0.296 NA
ATOM      4  N   UNL     1     -16.532   1.952  27.532  0.00  0.00    -0.278 N 
ATOM      5  N   UNL     1     -16.003   2.436  29.680  0.00  0.00    -0.238 N 
ATOM      6  N   UNL     1     -15.095   1.164  31.483  0.00  0.00    -0.240 NA
ATOM      7  C   UNL     1     -17.021   3.293  27.727  0.00  0.00    +0.109 C 
ATOM      8  C   UNL     1     -16.610   4.190  26.560  0.00  0.00    +0.108 C 
ATOM     10  C   UNL     1     -16.375   2.251  25.113  0.00  0.00    +0.104 C 
ATOM     11  C   UNL     1     -16.743   1.301  26.255  0.00  0.00    +0.125 C 
ATOM     12  C   UNL     1     -16.440   3.691  29.078  0.00  0.00    +0.140 C 
ATOM     15  C   UNL     1     -16.010   1.390  28.708  0.00  0.00    +0.311 C 
ATOM     18  C   UNL     1     -15.563   2.349  31.033  0.00  0.00    +0.129 A 
ATOM     19  C   UNL     1     -15.646   3.496  31.807  0.00  0.00    +0.044 A 
ATOM     20  C   UNL     1     -15.219   3.421  33.128  0.00  0.00    +0.005 A 
ATOM     21  C   UNL     1     -14.688   1.129  32.772  0.00  0.00    +0.113 A 
ATOM     22  C   UNL     1     -14.730   2.219  33.628  0.00  0.00    +0.020 A 
ENDROOT
BRANCH   3   9
ATOM      1  O   UNL     1     -15.555   4.762  21.530  0.00  0.00    -0.380 OA
ATOM      9  C   UNL     1     -16.679   4.446  24.163  0.00  0.00    +0.061 C 
ATOM     13  C   UNL     1     -17.430   4.031  22.894  0.00  0.00    +0.047 C 
ATOM     14  C   UNL     1     -15.169   4.429  23.906  0.00  0.00    +0.047 C 
ATOM     16  C   UNL     1     -16.969   4.868  21.706  0.00  0.00    +0.161 C 
ATOM     17  C   UNL     1     -14.833   5.245  22.663  0.00  0.00    +0.161 C 
ENDBRANCH   3   9
TORSDOF 1
ENDMDL
MODEL 5
REMARK VINA RESULT:      -6.3      2.820      4.938
REMARK  Name = 86769450
REMARK  1 active torsions:
REMARK  status: ('A' for Active; 'I' for Inactive)
REMARK    1  A    between atoms: N_3  and  C_9
REMARK                            x       y       z     vdW  Elec       q    Type
REMARK                         _______ _______ _______ _____ _____    ______ ____
ROOT
ATOM      2  O   UNL     1      22.454   4.761  24.402  0.00  0.00    -0.252 OA
ATOM      3  N   UNL     1      19.442   6.982  20.997  0.00  0.00    -0.296 NA
ATOM      4  N   UNL     1      21.420   5.706  22.538  0.00  0.00    -0.278 N 
ATOM      5  N   UNL     1      22.649   3.834  22.203  0.00  0.00    -0.238 N 
ATOM      6  N   UNL     1      23.940   2.429  23.636  0.00  0.00    -0.240 NA
ATOM      7  C   UNL     1      21.429   5.536  21.107  0.00  0.00    +0.109 C 
ATOM      8  C   UNL     1      20.021   5.704  20.536  0.00  0.00    +0.108 C 
ATOM     10  C   UNL     1      19.362   7.021  22.471  0.00  0.00    +0.104 C 
ATOM     11  C   UNL     1      20.744   6.853  23.109  0.00  0.00    +0.125 C 
ATOM     12  C   UNL     1      22.037   4.152  20.917  0.00  0.00    +0.140 C 
ATOM     15  C   UNL     1      22.218   4.760  23.200  0.00  0.00    +0.311 C 
ATOM     18  C   UNL     1      23.485   2.695  22.392  0.00  0.00    +0.129 A 
ATOM     19  C   UNL     1      23.780   1.927  21.276  0.00  0.00    +0.044 A 
ATOM     20  C   UNL     1      24.594   0.814  21.450  0.00  0.00    +0.005 A 
ATOM     21  C   UNL     1      24.728   1.338  23.767  0.00  0.00    +0.113 A 
ATOM     22  C   UNL     1      25.082   0.506  22.715  0.00  0.00    +0.020 A 
ENDROOT
BRANCH   3   9
ATOM      1  O   UNL     1      15.418   6.253  20.046  0.00  0.00    -0.380 OA
ATOM      9  C   UNL     1      18.118   7.182  20.411  0.00  0.00    +0.061 C 
ATOM     13  C   UNL     1      17.049   7.318  21.499  0.00  0.00    +0.047 C 
ATOM     14  C   UNL     1      17.769   6.020  19.476  0.00  0.00    +0.047 C 
ATOM     16  C   UNL     1      15.661   7.392  20.872  0.00  0.00    +0.161 C 
ATOM     17  C   UNL     1      16.341   6.166  18.961  0.00  0.00    +0.161 C 
ENDBRANCH   3   9
TORSDOF 1
ENDMDL
MODEL 6
REMARK VINA RESULT:      -6.2     27.621     29.685
REMARK  Name = 86769450
REMARK  1 active torsions:
REMARK  status: ('A' for Active; 'I' for Inactive)
REMARK    1  A    between atoms: N_3  and  C_9
REMARK                            x       y       z     vdW  Elec       q    Type
REMARK                         _______ _______ _______ _____ _____    ______ ____
ROOT
ATOM      2  O   UNL     1      -3.617 -11.380  17.281  0.00  0.00    -0.252 OA
ATOM      3  N   UNL     1      -8.398  -9.977  18.157  0.00  0.00    -0.296 NA
ATOM      4  N   UNL     1      -5.729 -10.398  17.372  0.00  0.00    -0.278 N 
ATOM      5  N   UNL     1      -4.735 -10.531  15.342  0.00  0.00    -0.238 N 
ATOM      6  N   UNL     1      -2.635 -11.373  14.585  0.00  0.00    -0.240 NA
ATOM      7  C   UNL     1      -6.611  -9.671  16.494  0.00  0.00    +0.109 C 
ATOM      8  C   UNL     1      -8.063 -10.089  16.723  0.00  0.00    +0.108 C 
ATOM     10  C   UNL     1      -7.523 -10.844  18.970  0.00  0.00    +0.104 C 
ATOM     11  C   UNL     1      -6.047 -10.480  18.784  0.00  0.00    +0.125 C 
ATOM     12  C   UNL     1      -6.066  -9.981  15.106  0.00  0.00    +0.140 C 
ATOM     15  C   UNL     1      -4.562 -10.835  16.726  0.00  0.00    +0.311 C 
ATOM     18  C   UNL     1      -3.813 -10.783  14.285  0.00  0.00    +0.129 A 
ATOM     19  C   UNL     1      -4.187 -10.403  13.006  0.00  0.00    +0.044 A 
ATOM     20  C   UNL     1      -3.295 -10.645  11.968  0.00  0.00    +0.005 A 
ATOM     21  C   UNL     1      -1.792 -11.594  13.551  0.00  0.00    +0.113 A 
ATOM     22  C   UNL     1      -2.072 -11.251  12.237  0.00  0.00    +0.020 A 
ENDROOT
BRANCH   3   9
ATOM      1  O   UNL     1     -12.299  -9.741  19.691  0.00  0.00    -0.380 OA
ATOM      9  C   UNL     1      -9.801 -10.317  18.381  0.00  0.00    +0.061 C 
ATOM     13  C   UNL     1     -10.723  -9.181  17.928  0.00  0.00    +0.047 C 
ATOM     14  C   UNL     1     -10.044 -10.631  19.860  0.00  0.00    +0.047 C 
ATOM     16  C   UNL     1     -12.170  -9.496  18.290  0.00  0.00    +0.161 C 
ATOM     17  C   UNL     1     -11.529 -10.866  20.115  0.00  0.00    +0.161 C 
ENDBRANCH   3   9
TORSDOF 1
ENDMDL
MODEL 7
REMARK VINA RESULT:      -6.1     27.326     29.754
REMARK  Name = 86769450
REMARK  1 active torsions:
REMARK  status: ('A' for Active; 'I' for Inactive)
REMARK    1  A    between atoms: N_3  and  C_9
REMARK                            x       y       z     vdW  Elec       q    Type
REMARK                         _______ _______ _______ _____ _____    ______ ____
ROOT
ATOM      2  O   UNL     1      -2.904 -10.951  16.352  0.00  0.00    -0.252 OA
ATOM      3  N   UNL     1      -7.583 -11.091  18.270  0.00  0.00    -0.296 NA
ATOM      4  N   UNL     1      -5.141 -10.662  16.941  0.00  0.00    -0.278 N 
ATOM      5  N   UNL     1      -4.610 -10.440  14.752  0.00  0.00    -0.238 N 
ATOM      6  N   UNL     1      -2.568 -10.585  13.526  0.00  0.00    -0.240 NA
ATOM      7  C   UNL     1      -6.363 -10.219  16.320  0.00  0.00    +0.109 C 
ATOM      8  C   UNL     1      -7.545 -11.063  16.795  0.00  0.00    +0.108 C 
ATOM     10  C   UNL     1      -6.339 -11.668  18.818  0.00  0.00    +0.104 C 
ATOM     11  C   UNL     1      -5.111 -10.868  18.375  0.00  0.00    +0.125 C 
ATOM     12  C   UNL     1      -6.061 -10.317  14.831  0.00  0.00    +0.140 C 
ATOM     15  C   UNL     1      -4.063 -10.707  16.043  0.00  0.00    +0.311 C 
ATOM     18  C   UNL     1      -3.902 -10.376  13.516  0.00  0.00    +0.129 A 
ATOM     19  C   UNL     1      -4.637 -10.099  12.373  0.00  0.00    +0.044 A 
ATOM     20  C   UNL     1      -3.956 -10.035  11.163  0.00  0.00    +0.005 A 
ATOM     21  C   UNL     1      -1.939 -10.516  12.331  0.00  0.00    +0.113 A 
ATOM     22  C   UNL     1      -2.581 -10.246  11.132  0.00  0.00    +0.020 A 
ENDROOT
BRANCH   3   9
ATOM      1  O   UNL     1     -10.271 -12.914  20.931  0.00  0.00    -0.380 OA
ATOM      9  C   UNL     1      -8.743 -11.848  18.736  0.00  0.00    +0.061 C 
ATOM     13  C   UNL     1      -9.659 -10.975  19.599  0.00  0.00    +0.047 C 
ATOM     14  C   UNL     1      -8.293 -13.078  19.529  0.00  0.00    +0.047 C 
ATOM     16  C   UNL     1     -10.791 -11.813  20.186  0.00  0.00    +0.161 C 
ATOM     17  C   UNL     1      -9.500 -13.799  20.119  0.00  0.00    +0.161 C 
ENDBRANCH   3   9
TORSDOF 1
ENDMDL
MODEL 8
REMARK VINA RESULT:      -6.0     18.632     20.443
REMARK  Name = 86769450
REMARK  1 active torsions:
REMARK  status: ('A' for Active; 'I' for Inactive)
REMARK    1  A    between atoms: N_3  and  C_9
REMARK                            x       y       z     vdW  Elec       q    Type
REMARK                         _______ _______ _______ _____ _____    ______ ____
ROOT
ATOM      2  O   UNL     1      12.971   7.485   3.699  0.00  0.00    -0.252 OA
ATOM      3  N   UNL     1      12.133   4.586  -0.362  0.00  0.00    -0.296 NA
ATOM      4  N   UNL     1      12.547   5.804   2.140  0.00  0.00    -0.278 N 
ATOM      5  N   UNL     1      11.399   5.722   4.090  0.00  0.00    -0.238 N 
ATOM      6  N   UNL     1      11.379   7.080   6.051  0.00  0.00    -0.240 NA
ATOM      7  C   UNL     1      11.828   4.557   2.079  0.00  0.00    +0.109 C 
ATOM      8  C   UNL     1      11.147   4.395   0.720  0.00  0.00    +0.108 C 
ATOM     10  C   UNL     1      12.735   5.932  -0.292  0.00  0.00    +0.104 C 
ATOM     11  C   UNL     1      13.433   6.163   1.050  0.00  0.00    +0.125 C 
ATOM     12  C   UNL     1      10.878   4.636   3.267  0.00  0.00    +0.140 C 
ATOM     15  C   UNL     1      12.381   6.465   3.367  0.00  0.00    +0.311 C 
ATOM     18  C   UNL     1      10.898   6.003   5.394  0.00  0.00    +0.129 A 
ATOM     19  C   UNL     1       9.940   5.143   5.909  0.00  0.00    +0.044 A 
ATOM     20  C   UNL     1       9.444   5.408   7.180  0.00  0.00    +0.005 A 
ATOM     21  C   UNL     1      10.874   7.308   7.285  0.00  0.00    +0.113 A 
ATOM     22  C   UNL     1       9.915   6.509   7.888  0.00  0.00    +0.020 A 
ENDROOT
BRANCH   3   9
ATOM      1  O   UNL     1       9.386   3.203  -3.221  0.00  0.00    -0.380 OA
ATOM      9  C   UNL     1      11.506   4.375  -1.665  0.00  0.00    +0.061 C 
ATOM     13  C   UNL     1      10.091   4.960  -1.697  0.00  0.00    +0.047 C 
ATOM     14  C   UNL     1      11.463   2.882  -2.001  0.00  0.00    +0.047 C 
ATOM     16  C   UNL     1       9.404   4.616  -3.014  0.00  0.00    +0.161 C 
ATOM     17  C   UNL     1      10.701   2.653  -3.301  0.00  0.00    +0.161 C 
ENDBRANCH   3   9
TORSDOF 1
ENDMDL
MODEL 9
REMARK VINA RESULT:      -5.8     28.911     31.151
REMARK  Name = 86769450
REMARK  1 active torsions:
REMARK  status: ('A' for Active; 'I' for Inactive)
REMARK    1  A    between atoms: N_3  and  C_9
REMARK                            x       y       z     vdW  Elec       q    Type
REMARK                         _______ _______ _______ _____ _____    ______ ____
ROOT
ATOM      2  O   UNL     1      -9.407 -11.430  18.980  0.00  0.00    -0.252 OA
ATOM      3  N   UNL     1     -11.522  -7.608  16.426  0.00  0.00    -0.296 NA
ATOM      4  N   UNL     1      -9.996  -9.435  17.926  0.00  0.00    -0.278 N 
ATOM      5  N   UNL     1      -7.821 -10.057  17.825  0.00  0.00    -0.238 N 
ATOM      6  N   UNL     1      -6.594 -11.915  18.684  0.00  0.00    -0.240 NA
ATOM      7  C   UNL     1      -9.334  -8.320  17.298  0.00  0.00    +0.109 C 
ATOM      8  C   UNL     1     -10.111  -7.857  16.067  0.00  0.00    +0.108 C 
ATOM     10  C   UNL     1     -12.154  -8.835  16.951  0.00  0.00    +0.104 C 
ATOM     11  C   UNL     1     -11.419  -9.356  18.189  0.00  0.00    +0.125 C 
ATOM     12  C   UNL     1      -7.936  -8.852  17.012  0.00  0.00    +0.140 C 
ATOM     15  C   UNL     1      -9.100 -10.437  18.333  0.00  0.00    +0.311 C 
ATOM     18  C   UNL     1      -6.591 -10.760  17.983  0.00  0.00    +0.129 A 
ATOM     19  C   UNL     1      -5.461 -10.207  17.403  0.00  0.00    +0.044 A 
ATOM     20  C   UNL     1      -4.256 -10.885  17.551  0.00  0.00    +0.005 A 
ATOM     21  C   UNL     1      -5.405 -12.547  18.807  0.00  0.00    +0.113 A 
ATOM     22  C   UNL     1      -4.219 -12.077  18.266  0.00  0.00    +0.020 A 
ENDROOT
BRANCH   3   9
ATOM      1  O   UNL     1     -13.870  -5.040  14.078  0.00  0.00    -0.380 OA
ATOM      9  C   UNL     1     -12.262  -7.109  15.270  0.00  0.00    +0.061 C 
ATOM     13  C   UNL     1     -11.663  -5.797  14.756  0.00  0.00    +0.047 C 
ATOM     14  C   UNL     1     -13.737  -6.906  15.628  0.00  0.00    +0.047 C 
ATOM     16  C   UNL     1     -12.524  -5.222  13.637  0.00  0.00    +0.161 C 
ATOM     17  C   UNL     1     -14.484  -6.270  14.461  0.00  0.00    +0.161 C 
ENDBRANCH   3   9
TORSDOF 1
ENDMDL
MODEL 10
REMARK VINA RESULT:      -5.8     14.812     17.213
REMARK  Name = 86769450
REMARK  1 active torsions:
REMARK  status: ('A' for Active; 'I' for Inactive)
REMARK    1  A    between atoms: N_3  and  C_9
REMARK                            x       y       z     vdW  Elec       q    Type
REMARK                         _______ _______ _______ _____ _____    ______ ____
ROOT
ATOM      2  O   UNL     1      13.097   6.957   3.157  0.00  0.00    -0.252 OA
ATOM      3  N   UNL     1      17.390   9.038   4.842  0.00  0.00    -0.296 NA
ATOM      4  N   UNL     1      14.797   8.126   4.244  0.00  0.00    -0.278 N 
ATOM      5  N   UNL     1      13.144   7.266   5.530  0.00  0.00    -0.238 N 
ATOM      6  N   UNL     1      11.163   6.022   5.058  0.00  0.00    -0.240 NA
ATOM      7  C   UNL     1      15.075   8.627   5.566  0.00  0.00    +0.109 C 
ATOM      8  C   UNL     1      16.554   8.451   5.908  0.00  0.00    +0.108 C 
ATOM     10  C   UNL     1      17.123   8.386   3.545  0.00  0.00    +0.104 C 
ATOM     11  C   UNL     1      15.652   8.522   3.144  0.00  0.00    +0.125 C 
ATOM     12  C   UNL     1      14.115   7.845   6.453  0.00  0.00    +0.140 C 
ATOM     15  C   UNL     1      13.600   7.394   4.184  0.00  0.00    +0.311 C 
ATOM     18  C   UNL     1      11.963   6.604   5.978  0.00  0.00    +0.129 A 
ATOM     19  C   UNL     1      11.711   6.600   7.341  0.00  0.00    +0.044 A 
ATOM     20  C   UNL     1      10.562   5.957   7.787  0.00  0.00    +0.005 A 
ATOM     21  C   UNL     1      10.056   5.405   5.529  0.00  0.00    +0.113 A 
ATOM     22  C   UNL     1       9.713   5.345   6.871  0.00  0.00    +0.020 A 
ENDROOT
BRANCH   3   9
ATOM      1  O   UNL     1      20.954   7.384   6.323  0.00  0.00    -0.380 OA
ATOM      9  C   UNL     1      18.806   8.928   5.185  0.00  0.00    +0.061 C 
ATOM     13  C   UNL     1      19.464   7.763   4.440  0.00  0.00    +0.047 C 
ATOM     14  C   UNL     1      18.975   8.745   6.696  0.00  0.00    +0.047 C 
ATOM     16  C   UNL     1      20.903   7.578   4.908  0.00  0.00    +0.161 C 
ATOM     17  C   UNL     1      20.441   8.507   7.040  0.00  0.00    +0.161 C 
ENDBRANCH   3   9
TORSDOF 1
ENDMDL
