MODEL 1
REMARK VINA RESULT:      -7.2      0.000      0.000
REMARK  Name = 40780192
REMARK  8 active torsions:
REMARK  status: ('A' for Active; 'I' for Inactive)
REMARK    1  A    between atoms: N_3  and  C_14
REMARK    2  A    between atoms: N_4  and  C_15
REMARK    3  A    between atoms: N_5  and  C_28
REMARK    4  A    between atoms: C_8  and  C_14
REMARK    5  A    between atoms: C_10  and  C_15
REMARK    6  A    between atoms: C_18  and  C_21
REMARK    7  A    between atoms: C_21  and  C_23
REMARK    8  A    between atoms: C_32  and  C_35
REMARK                            x       y       z     vdW  Elec       q    Type
REMARK                         _______ _______ _______ _____ _____    ______ ____
ROOT
ATOM      2  N   UNL     1      14.427  12.013  24.856  0.00  0.00    -0.298 NA
ATOM      7  C   UNL     1      12.304  13.516  24.888  0.00  0.00    -0.003 C 
ATOM      8  C   UNL     1      11.921  12.022  24.779  0.00  0.00    +0.020 C 
ATOM      9  C   UNL     1      13.231  13.891  23.717  0.00  0.00    +0.024 C 
ATOM     10  C   UNL     1      14.540  13.077  23.821  0.00  0.00    +0.074 C 
ATOM     11  C   UNL     1      13.214  11.192  24.619  0.00  0.00    +0.089 C 
ATOM     12  C   UNL     1      13.120  13.675  26.185  0.00  0.00    +0.019 C 
ATOM     13  C   UNL     1      14.287  12.673  26.176  0.00  0.00    +0.085 C 
ENDROOT
BRANCH   8  14
ATOM     14  C   UNL     1      10.926  11.735  23.658  0.00  0.00    +0.089 C 
BRANCH  14   3
ATOM      3  N   UNL     1      11.461  10.745  22.722  0.00  0.00    -0.302 NA
ATOM     16  C   UNL     1      11.594  11.328  21.379  0.00  0.00    +0.084 C 
ATOM     17  C   UNL     1      10.612   9.547  22.698  0.00  0.00    +0.084 C 
ATOM     18  C   UNL     1      11.382   9.030  20.346  0.00  0.00    -0.004 C 
ATOM     19  C   UNL     1      12.203  10.324  20.400  0.00  0.00    +0.019 C 
ATOM     20  C   UNL     1      11.187   8.481  21.764  0.00  0.00    +0.019 C 
BRANCH  18  21
ATOM     21  C   UNL     1      12.050   7.996  19.444  0.00  0.00    +0.038 C 
BRANCH  21  23
ATOM     23  C   UNL     1      12.133   8.472  18.019  0.00  0.00    -0.047 A 
ATOM     24  C   UNL     1      10.967   8.667  17.279  0.00  0.00    +0.003 A 
ATOM     25  C   UNL     1      13.377   8.719  17.439  0.00  0.00    +0.003 A 
ATOM     26  C   UNL     1      11.046   9.109  15.958  0.00  0.00    +0.000 A 
ATOM     27  C   UNL     1      13.456   9.161  16.118  0.00  0.00    +0.000 A 
ATOM     29  C   UNL     1      12.290   9.356  15.378  0.00  0.00    +0.000 A 
ENDBRANCH  21  23
ENDBRANCH  18  21
ENDBRANCH  14   3
ENDBRANCH   8  14
BRANCH  10  15
ATOM     15  C   UNL     1      14.976  12.525  22.463  0.00  0.00    +0.124 C 
BRANCH  15   4
ATOM      1  O   UNL     1      15.893  10.832  20.340  0.00  0.00    -0.253 OA
ATOM      4  N   UNL     1      15.372  11.155  22.572  0.00  0.00    -0.298 N 
ATOM      5  N   UNL     1      16.132   9.085  21.890  0.00  0.00    -0.269 N 
ATOM     22  C   UNL     1      15.814  10.383  21.482  0.00  0.00    +0.304 C 
ATOM     36  H   UNL     1      15.331  10.715  23.486  0.00  0.00    +0.150 HD
ATOM     37  H   UNL     1      16.009   8.874  22.878  0.00  0.00    +0.156 HD
BRANCH   5  28
ATOM     28  C   UNL     1      16.609   8.017  21.095  0.00  0.00    +0.036 A 
ATOM     30  C   UNL     1      17.927   7.582  21.227  0.00  0.00    +0.042 A 
ATOM     31  C   UNL     1      15.759   7.398  20.178  0.00  0.00    +0.023 A 
ATOM     32  C   UNL     1      18.396   6.527  20.443  0.00  0.00    +0.054 A 
ATOM     33  C   UNL     1      16.227   6.344  19.394  0.00  0.00    +0.003 A 
ATOM     34  C   UNL     1      17.546   5.909  19.526  0.00  0.00    +0.019 A 
BRANCH  32  35
ATOM      6  N   UNL     1      20.844   5.720  20.686  0.00  0.00    -0.191 NA
ATOM     35  C   UNL     1      19.747   6.082  20.578  0.00  0.00    +0.099 C 
ENDBRANCH  32  35
ENDBRANCH   5  28
ENDBRANCH  15   4
ENDBRANCH  10  15
TORSDOF 8
ENDMDL
MODEL 2
REMARK VINA RESULT:      -6.9     29.104     31.926
REMARK  Name = 40780192
REMARK  8 active torsions:
REMARK  status: ('A' for Active; 'I' for Inactive)
REMARK    1  A    between atoms: N_3  and  C_14
REMARK    2  A    between atoms: N_4  and  C_15
REMARK    3  A    between atoms: N_5  and  C_28
REMARK    4  A    between atoms: C_8  and  C_14
REMARK    5  A    between atoms: C_10  and  C_15
REMARK    6  A    between atoms: C_18  and  C_21
REMARK    7  A    between atoms: C_21  and  C_23
REMARK    8  A    between atoms: C_32  and  C_35
REMARK                            x       y       z     vdW  Elec       q    Type
REMARK                         _______ _______ _______ _____ _____    ______ ____
ROOT
ATOM      2  N   UNL     1     -14.099 -11.953  19.773  0.00  0.00    -0.298 NA
ATOM      7  C   UNL     1     -13.940  -9.359  19.657  0.00  0.00    -0.003 C 
ATOM      8  C   UNL     1     -13.676  -9.991  18.271  0.00  0.00    +0.020 C 
ATOM      9  C   UNL     1     -12.938  -9.931  20.677  0.00  0.00    +0.024 C 
ATOM     10  C   UNL     1     -13.166 -11.452  20.819  0.00  0.00    +0.074 C 
ATOM     11  C   UNL     1     -13.640 -11.527  18.428  0.00  0.00    +0.089 C 
ATOM     12  C   UNL     1     -15.347  -9.813  20.095  0.00  0.00    +0.019 C 
ATOM     13  C   UNL     1     -15.430 -11.348  20.020  0.00  0.00    +0.085 C 
ENDROOT
BRANCH   8  14
ATOM     14  C   UNL     1     -12.411  -9.463  17.600  0.00  0.00    +0.089 C 
BRANCH  14   3
ATOM      3  N   UNL     1     -12.666  -8.190  16.925  0.00  0.00    -0.302 NA
ATOM     16  C   UNL     1     -13.518  -8.395  15.745  0.00  0.00    +0.084 C 
ATOM     17  C   UNL     1     -11.402  -7.539  16.559  0.00  0.00    +0.084 C 
ATOM     18  C   UNL     1     -12.560  -6.314  14.675  0.00  0.00    -0.004 C 
ATOM     19  C   UNL     1     -13.839  -7.067  15.059  0.00  0.00    +0.019 C 
ATOM     20  C   UNL     1     -11.650  -6.181  15.900  0.00  0.00    +0.019 C 
BRANCH  18  21
ATOM     21  C   UNL     1     -12.887  -4.947  14.082  0.00  0.00    +0.038 C 
BRANCH  21  23
ATOM     23  C   UNL     1     -12.510  -4.867  12.627  0.00  0.00    -0.047 A 
ATOM     24  C   UNL     1     -12.251  -3.629  12.040  0.00  0.00    +0.003 A 
ATOM     25  C   UNL     1     -12.418  -6.033  11.867  0.00  0.00    +0.003 A 
ATOM     26  C   UNL     1     -11.902  -3.556  10.692  0.00  0.00    +0.000 A 
ATOM     27  C   UNL     1     -12.068  -5.960  10.518  0.00  0.00    +0.000 A 
ATOM     29  C   UNL     1     -11.811  -4.722   9.931  0.00  0.00    +0.000 A 
ENDBRANCH  21  23
ENDBRANCH  18  21
ENDBRANCH  14   3
ENDBRANCH   8  14
BRANCH  10  15
ATOM     15  C   UNL     1     -11.846 -12.225  20.842  0.00  0.00    +0.124 C 
BRANCH  15   4
ATOM      1  O   UNL     1      -9.567 -12.803  19.204  0.00  0.00    -0.253 OA
ATOM      4  N   UNL     1     -10.742 -11.355  20.575  0.00  0.00    -0.298 N 
ATOM      5  N   UNL     1      -8.731 -10.662  19.680  0.00  0.00    -0.269 N 
ATOM     22  C   UNL     1      -9.654 -11.708  19.757  0.00  0.00    +0.304 C 
ATOM     36  H   UNL     1     -10.743 -10.434  21.001  0.00  0.00    +0.150 HD
ATOM     37  H   UNL     1      -8.954  -9.818  20.202  0.00  0.00    +0.156 HD
BRANCH   5  28
ATOM     28  C   UNL     1      -7.513 -10.629  18.961  0.00  0.00    +0.036 A 
ATOM     30  C   UNL     1      -6.371 -11.224  19.494  0.00  0.00    +0.042 A 
ATOM     31  C   UNL     1      -7.456 -10.003  17.715  0.00  0.00    +0.023 A 
ATOM     32  C   UNL     1      -5.170 -11.192  18.784  0.00  0.00    +0.054 A 
ATOM     33  C   UNL     1      -6.257  -9.971  17.005  0.00  0.00    +0.003 A 
ATOM     34  C   UNL     1      -5.113 -10.565  17.539  0.00  0.00    +0.019 A 
BRANCH  32  35
ATOM      6  N   UNL     1      -3.047 -12.292  19.777  0.00  0.00    -0.191 NA
ATOM     35  C   UNL     1      -3.999 -11.800  19.332  0.00  0.00    +0.099 C 
ENDBRANCH  32  35
ENDBRANCH   5  28
ENDBRANCH  15   4
ENDBRANCH  10  15
TORSDOF 8
ENDMDL
MODEL 3
REMARK VINA RESULT:      -6.8     28.317     30.856
REMARK  Name = 40780192
REMARK  8 active torsions:
REMARK  status: ('A' for Active; 'I' for Inactive)
REMARK    1  A    between atoms: N_3  and  C_14
REMARK    2  A    between atoms: N_4  and  C_15
REMARK    3  A    between atoms: N_5  and  C_28
REMARK    4  A    between atoms: C_8  and  C_14
REMARK    5  A    between atoms: C_10  and  C_15
REMARK    6  A    between atoms: C_18  and  C_21
REMARK    7  A    between atoms: C_21  and  C_23
REMARK    8  A    between atoms: C_32  and  C_35
REMARK                            x       y       z     vdW  Elec       q    Type
REMARK                         _______ _______ _______ _____ _____    ______ ____
ROOT
ATOM      2  N   UNL     1      -5.340 -10.986   9.750  0.00  0.00    -0.298 NA
ATOM      7  C   UNL     1      -3.847  -8.963  10.417  0.00  0.00    -0.003 C 
ATOM      8  C   UNL     1      -3.106 -10.299  10.658  0.00  0.00    +0.020 C 
ATOM      9  C   UNL     1      -5.167  -8.963  11.209  0.00  0.00    +0.024 C 
ATOM     10  C   UNL     1      -6.080 -10.091  10.680  0.00  0.00    +0.074 C 
ATOM     11  C   UNL     1      -4.086 -11.462  10.384  0.00  0.00    +0.089 C 
ATOM     12  C   UNL     1      -4.212  -8.918   8.920  0.00  0.00    +0.019 C 
ATOM     13  C   UNL     1      -4.979 -10.198   8.547  0.00  0.00    +0.085 C 
ENDROOT
BRANCH   8  14
ATOM     14  C   UNL     1      -2.486 -10.402  12.049  0.00  0.00    +0.089 C 
BRANCH  14   3
ATOM      3  N   UNL     1      -3.244 -11.325  12.894  0.00  0.00    -0.302 NA
ATOM     16  C   UNL     1      -3.822 -10.613  14.042  0.00  0.00    +0.084 C 
ATOM     17  C   UNL     1      -2.392 -12.437  13.336  0.00  0.00    +0.084 C 
ATOM     18  C   UNL     1      -3.843 -12.758  15.380  0.00  0.00    -0.004 C 
ATOM     19  C   UNL     1      -4.664 -11.553  14.908  0.00  0.00    +0.019 C 
ATOM     20  C   UNL     1      -3.184 -13.440  14.177  0.00  0.00    +0.019 C 
BRANCH  18  21
ATOM     21  C   UNL     1      -4.714 -13.741  16.159  0.00  0.00    +0.038 C 
BRANCH  21  23
ATOM     23  C   UNL     1      -5.352 -13.090  17.356  0.00  0.00    -0.047 A 
ATOM     24  C   UNL     1      -4.570 -12.371  18.260  0.00  0.00    +0.003 A 
ATOM     25  C   UNL     1      -6.727 -13.206  17.561  0.00  0.00    +0.003 A 
ATOM     26  C   UNL     1      -5.163 -11.768  19.369  0.00  0.00    +0.000 A 
ATOM     27  C   UNL     1      -7.320 -12.603  18.671  0.00  0.00    +0.000 A 
ATOM     29  C   UNL     1      -6.537 -11.884  19.574  0.00  0.00    +0.000 A 
ENDBRANCH  21  23
ENDBRANCH  18  21
ENDBRANCH  14   3
ENDBRANCH   8  14
BRANCH  10  15
ATOM     15  C   UNL     1      -6.752 -10.860  11.819  0.00  0.00    +0.124 C 
BRANCH  15   4
ATOM      1  O   UNL     1      -9.000 -11.147  13.571  0.00  0.00    -0.253 OA
ATOM      4  N   UNL     1      -7.128  -9.976  12.879  0.00  0.00    -0.298 N 
ATOM      5  N   UNL     1      -8.367  -9.158  14.646  0.00  0.00    -0.269 N 
ATOM     22  C   UNL     1      -8.250 -10.182  13.702  0.00  0.00    +0.304 C 
ATOM     36  H   UNL     1      -6.556  -9.154  13.044  0.00  0.00    +0.150 HD
ATOM     37  H   UNL     1      -7.659  -8.429  14.617  0.00  0.00    +0.156 HD
BRANCH   5  28
ATOM     28  C   UNL     1      -9.357  -9.007  15.645  0.00  0.00    +0.036 A 
ATOM     30  C   UNL     1      -9.211  -9.649  16.874  0.00  0.00    +0.042 A 
ATOM     31  C   UNL     1     -10.478  -8.214  15.401  0.00  0.00    +0.023 A 
ATOM     32  C   UNL     1     -10.187  -9.499  17.860  0.00  0.00    +0.054 A 
ATOM     33  C   UNL     1     -11.453  -8.063  16.386  0.00  0.00    +0.003 A 
ATOM     34  C   UNL     1     -11.309  -8.707  17.616  0.00  0.00    +0.019 A 
BRANCH  32  35
ATOM      6  N   UNL     1      -9.920 -10.693  20.142  0.00  0.00    -0.191 NA
ATOM     35  C   UNL     1     -10.039 -10.158  19.119  0.00  0.00    +0.099 C 
ENDBRANCH  32  35
ENDBRANCH   5  28
ENDBRANCH  15   4
ENDBRANCH  10  15
TORSDOF 8
ENDMDL
MODEL 4
REMARK VINA RESULT:      -6.8      3.760      8.774
REMARK  Name = 40780192
REMARK  8 active torsions:
REMARK  status: ('A' for Active; 'I' for Inactive)
REMARK    1  A    between atoms: N_3  and  C_14
REMARK    2  A    between atoms: N_4  and  C_15
REMARK    3  A    between atoms: N_5  and  C_28
REMARK    4  A    between atoms: C_8  and  C_14
REMARK    5  A    between atoms: C_10  and  C_15
REMARK    6  A    between atoms: C_18  and  C_21
REMARK    7  A    between atoms: C_21  and  C_23
REMARK    8  A    between atoms: C_32  and  C_35
REMARK                            x       y       z     vdW  Elec       q    Type
REMARK                         _______ _______ _______ _____ _____    ______ ____
ROOT
ATOM      2  N   UNL     1      12.825   9.423  19.538  0.00  0.00    -0.298 NA
ATOM      7  C   UNL     1      13.388   7.159  20.687  0.00  0.00    -0.003 C 
ATOM      8  C   UNL     1      14.657   7.800  20.082  0.00  0.00    +0.020 C 
ATOM      9  C   UNL     1      12.334   6.972  19.581  0.00  0.00    +0.024 C 
ATOM     10  C   UNL     1      11.924   8.354  19.027  0.00  0.00    +0.074 C 
ATOM     11  C   UNL     1      14.243   9.062  19.292  0.00  0.00    +0.089 C 
ATOM     12  C   UNL     1      12.814   8.170  21.699  0.00  0.00    +0.019 C 
ATOM     13  C   UNL     1      12.623   9.529  21.003  0.00  0.00    +0.085 C 
ENDROOT
BRANCH   8  14
ATOM     14  C   UNL     1      15.467   6.837  19.218  0.00  0.00    +0.089 C 
BRANCH  14   3
ATOM      3  N   UNL     1      16.663   6.377  19.926  0.00  0.00    -0.302 NA
ATOM     16  C   UNL     1      17.291   7.490  20.651  0.00  0.00    +0.084 C 
ATOM     17  C   UNL     1      17.608   5.755  18.989  0.00  0.00    +0.084 C 
ATOM     18  C   UNL     1      19.531   6.325  20.527  0.00  0.00    -0.004 C 
ATOM     19  C   UNL     1      18.512   7.015  21.440  0.00  0.00    +0.019 C 
ATOM     20  C   UNL     1      18.840   5.220  19.721  0.00  0.00    +0.019 C 
BRANCH  18  21
ATOM     21  C   UNL     1      20.699   5.766  21.335  0.00  0.00    +0.038 C 
BRANCH  21  23
ATOM     23  C   UNL     1      22.010   6.371  20.909  0.00  0.00    -0.047 A 
ATOM     24  C   UNL     1      23.178   5.611  20.960  0.00  0.00    +0.003 A 
ATOM     25  C   UNL     1      22.055   7.691  20.462  0.00  0.00    +0.003 A 
ATOM     26  C   UNL     1      24.392   6.173  20.565  0.00  0.00    +0.000 A 
ATOM     27  C   UNL     1      23.269   8.253  20.067  0.00  0.00    +0.000 A 
ATOM     29  C   UNL     1      24.437   7.493  20.119  0.00  0.00    +0.000 A 
ENDBRANCH  21  23
ENDBRANCH  18  21
ENDBRANCH  14   3
ENDBRANCH   8  14
BRANCH  10  15
ATOM     15  C   UNL     1      11.832   8.350  17.500  0.00  0.00    +0.124 C 
BRANCH  15   4
ATOM      1  O   UNL     1      13.421   8.831  15.165  0.00  0.00    -0.253 OA
ATOM      4  N   UNL     1      12.200   9.624  16.963  0.00  0.00    -0.298 N 
ATOM      5  N   UNL     1      13.181  11.138  15.524  0.00  0.00    -0.269 N 
ATOM     22  C   UNL     1      12.985   9.784  15.807  0.00  0.00    +0.304 C 
ATOM     36  H   UNL     1      11.877  10.458  17.444  0.00  0.00    +0.150 HD
ATOM     37  H   UNL     1      12.750  11.804  16.162  0.00  0.00    +0.156 HD
BRANCH   5  28
ATOM     28  C   UNL     1      13.910  11.705  14.453  0.00  0.00    +0.036 A 
ATOM     30  C   UNL     1      15.304  11.706  14.481  0.00  0.00    +0.042 A 
ATOM     31  C   UNL     1      13.234  12.262  13.367  0.00  0.00    +0.023 A 
ATOM     32  C   UNL     1      16.023  12.265  13.423  0.00  0.00    +0.054 A 
ATOM     33  C   UNL     1      13.952  12.820  12.310  0.00  0.00    +0.003 A 
ATOM     34  C   UNL     1      15.347  12.822  12.338  0.00  0.00    +0.019 A 
BRANCH  32  35
ATOM      6  N   UNL     1      18.612  12.269  13.476  0.00  0.00    -0.191 NA
ATOM     35  C   UNL     1      17.451  12.268  13.453  0.00  0.00    +0.099 C 
ENDBRANCH  32  35
ENDBRANCH   5  28
ENDBRANCH  15   4
ENDBRANCH  10  15
TORSDOF 8
ENDMDL
MODEL 5
REMARK VINA RESULT:      -6.8     30.342     32.580
REMARK  Name = 40780192
REMARK  8 active torsions:
REMARK  status: ('A' for Active; 'I' for Inactive)
REMARK    1  A    between atoms: N_3  and  C_14
REMARK    2  A    between atoms: N_4  and  C_15
REMARK    3  A    between atoms: N_5  and  C_28
REMARK    4  A    between atoms: C_8  and  C_14
REMARK    5  A    between atoms: C_10  and  C_15
REMARK    6  A    between atoms: C_18  and  C_21
REMARK    7  A    between atoms: C_21  and  C_23
REMARK    8  A    between atoms: C_32  and  C_35
REMARK                            x       y       z     vdW  Elec       q    Type
REMARK                         _______ _______ _______ _____ _____    ______ ____
ROOT
ATOM      2  N   UNL     1      -6.288 -11.071   9.686  0.00  0.00    -0.298 NA
ATOM      7  C   UNL     1      -7.208  -8.745  10.400  0.00  0.00    -0.003 C 
ATOM      8  C   UNL     1      -8.321  -9.605   9.759  0.00  0.00    +0.020 C 
ATOM      9  C   UNL     1      -6.041  -8.598   9.406  0.00  0.00    +0.024 C 
ATOM     10  C   UNL     1      -5.434  -9.989   9.123  0.00  0.00    +0.074 C 
ATOM     11  C   UNL     1      -7.689 -10.910   9.226  0.00  0.00    +0.089 C 
ATOM     12  C   UNL     1      -6.677  -9.532  11.614  0.00  0.00    +0.019 C 
ATOM     13  C   UNL     1      -6.270 -10.945  11.163  0.00  0.00    +0.085 C 
ENDROOT
BRANCH   8  14
ATOM     14  C   UNL     1      -9.099  -8.871   8.670  0.00  0.00    +0.089 C 
BRANCH  14   3
ATOM      3  N   UNL     1      -9.445  -7.514   9.097  0.00  0.00    -0.302 NA
ATOM     16  C   UNL     1     -10.892  -7.403   9.329  0.00  0.00    +0.084 C 
ATOM     17  C   UNL     1      -8.991  -6.531   8.105  0.00  0.00    +0.084 C 
ATOM     18  C   UNL     1     -10.791  -4.921   8.853  0.00  0.00    -0.004 C 
ATOM     19  C   UNL     1     -11.265  -6.005   9.828  0.00  0.00    +0.019 C 
ATOM     20  C   UNL     1      -9.298  -5.104   8.561  0.00  0.00    +0.019 C 
BRANCH  18  21
ATOM     21  C   UNL     1     -11.077  -3.527   9.404  0.00  0.00    +0.038 C 
BRANCH  21  23
ATOM     23  C   UNL     1     -12.375  -3.484  10.162  0.00  0.00    -0.047 A 
ATOM     24  C   UNL     1     -13.586  -3.424   9.471  0.00  0.00    +0.003 A 
ATOM     25  C   UNL     1     -12.369  -3.507  11.557  0.00  0.00    +0.003 A 
ATOM     26  C   UNL     1     -14.789  -3.385  10.175  0.00  0.00    +0.000 A 
ATOM     27  C   UNL     1     -13.573  -3.467  12.261  0.00  0.00    +0.000 A 
ATOM     29  C   UNL     1     -14.782  -3.406  11.570  0.00  0.00    +0.000 A 
ENDBRANCH  21  23
ENDBRANCH  18  21
ENDBRANCH  14   3
ENDBRANCH   8  14
BRANCH  10  15
ATOM     15  C   UNL     1      -5.144 -10.190   7.634  0.00  0.00    +0.124 C 
BRANCH  15   4
ATOM      1  O   UNL     1      -7.143 -10.458   5.599  0.00  0.00    -0.253 OA
ATOM      4  N   UNL     1      -5.719  -9.136   6.856  0.00  0.00    -0.298 N 
ATOM      5  N   UNL     1      -7.072  -8.134   5.278  0.00  0.00    -0.269 N 
ATOM     22  C   UNL     1      -6.701  -9.344   5.870  0.00  0.00    +0.304 C 
ATOM     36  H   UNL     1      -5.400  -8.188   7.024  0.00  0.00    +0.150 HD
ATOM     37  H   UNL     1      -6.606  -7.297   5.620  0.00  0.00    +0.156 HD
BRANCH   5  28
ATOM     28  C   UNL     1      -8.024  -7.925   4.253  0.00  0.00    +0.036 A 
ATOM     30  C   UNL     1      -7.752  -8.347   2.952  0.00  0.00    +0.042 A 
ATOM     31  C   UNL     1      -9.236  -7.298   4.544  0.00  0.00    +0.023 A 
ATOM     32  C   UNL     1      -8.692  -8.142   1.941  0.00  0.00    +0.054 A 
ATOM     33  C   UNL     1     -10.175  -7.093   3.534  0.00  0.00    +0.003 A 
ATOM     34  C   UNL     1      -9.903  -7.514   2.231  0.00  0.00    +0.019 A 
BRANCH  32  35
ATOM      6  N   UNL     1      -8.186  -8.921  -0.476  0.00  0.00    -0.191 NA
ATOM     35  C   UNL     1      -8.413  -8.572   0.607  0.00  0.00    +0.099 C 
ENDBRANCH  32  35
ENDBRANCH   5  28
ENDBRANCH  15   4
ENDBRANCH  10  15
TORSDOF 8
ENDMDL
MODEL 6
REMARK VINA RESULT:      -6.7     15.116     18.530
REMARK  Name = 40780192
REMARK  8 active torsions:
REMARK  status: ('A' for Active; 'I' for Inactive)
REMARK    1  A    between atoms: N_3  and  C_14
REMARK    2  A    between atoms: N_4  and  C_15
REMARK    3  A    between atoms: N_5  and  C_28
REMARK    4  A    between atoms: C_8  and  C_14
REMARK    5  A    between atoms: C_10  and  C_15
REMARK    6  A    between atoms: C_18  and  C_21
REMARK    7  A    between atoms: C_21  and  C_23
REMARK    8  A    between atoms: C_32  and  C_35
REMARK                            x       y       z     vdW  Elec       q    Type
REMARK                         _______ _______ _______ _____ _____    ______ ____
ROOT
ATOM      2  N   UNL     1       9.097   8.241   6.540  0.00  0.00    -0.298 NA
ATOM      7  C   UNL     1      10.109   5.855   6.765  0.00  0.00    -0.003 C 
ATOM      8  C   UNL     1      11.219   6.906   6.536  0.00  0.00    +0.020 C 
ATOM      9  C   UNL     1       9.097   5.921   5.607  0.00  0.00    +0.024 C 
ATOM     10  C   UNL     1       8.417   7.308   5.601  0.00  0.00    +0.074 C 
ATOM     11  C   UNL     1      10.554   8.275   6.266  0.00  0.00    +0.089 C 
ATOM     12  C   UNL     1       9.361   6.267   8.049  0.00  0.00    +0.019 C 
ATOM     13  C   UNL     1       8.898   7.729   7.917  0.00  0.00    +0.085 C 
ENDROOT
BRANCH   8  14
ATOM     14  C   UNL     1      12.191   6.524   5.423  0.00  0.00    +0.089 C 
BRANCH  14   3
ATOM      3  N   UNL     1      13.336   7.435   5.390  0.00  0.00    -0.302 NA
ATOM     16  C   UNL     1      14.083   7.276   4.135  0.00  0.00    +0.084 C 
ATOM     17  C   UNL     1      14.204   7.212   6.554  0.00  0.00    +0.084 C 
ATOM     18  C   UNL     1      16.187   8.104   5.266  0.00  0.00    -0.004 C 
ATOM     19  C   UNL     1      15.253   8.258   4.061  0.00  0.00    +0.019 C 
ATOM     20  C   UNL     1      15.377   8.193   6.564  0.00  0.00    +0.019 C 
BRANCH  18  21
ATOM     21  C   UNL     1      17.295   9.153   5.237  0.00  0.00    +0.038 C 
BRANCH  21  23
ATOM     23  C   UNL     1      18.659   8.525   5.342  0.00  0.00    -0.047 A 
ATOM     24  C   UNL     1      19.202   7.850   4.249  0.00  0.00    +0.003 A 
ATOM     25  C   UNL     1      19.380   8.619   6.533  0.00  0.00    +0.003 A 
ATOM     26  C   UNL     1      20.466   7.268   4.347  0.00  0.00    +0.000 A 
ATOM     27  C   UNL     1      20.644   8.037   6.631  0.00  0.00    +0.000 A 
ATOM     29  C   UNL     1      21.186   7.362   5.538  0.00  0.00    +0.000 A 
ENDBRANCH  21  23
ENDBRANCH  18  21
ENDBRANCH  14   3
ENDBRANCH   8  14
BRANCH  10  15
ATOM     15  C   UNL     1       8.306   7.881   4.187  0.00  0.00    +0.124 C 
BRANCH  15   4
ATOM      1  O   UNL     1      10.804   7.611   2.809  0.00  0.00    -0.253 OA
ATOM      4  N   UNL     1       8.641   6.892   3.209  0.00  0.00    -0.298 N 
ATOM      5  N   UNL     1       9.929   5.756   1.668  0.00  0.00    -0.269 N 
ATOM     22  C   UNL     1       9.893   6.820   2.572  0.00  0.00    +0.304 C 
ATOM     36  H   UNL     1       7.935   6.206   2.960  0.00  0.00    +0.150 HD
ATOM     37  H   UNL     1       9.084   5.195   1.589  0.00  0.00    +0.156 HD
BRANCH   5  28
ATOM     28  C   UNL     1      11.004   5.356   0.840  0.00  0.00    +0.036 A 
ATOM     30  C   UNL     1      12.136   4.766   1.401  0.00  0.00    +0.042 A 
ATOM     31  C   UNL     1      10.930   5.550  -0.540  0.00  0.00    +0.023 A 
ATOM     32  C   UNL     1      13.195   4.371   0.583  0.00  0.00    +0.054 A 
ATOM     33  C   UNL     1      11.988   5.155  -1.358  0.00  0.00    +0.003 A 
ATOM     34  C   UNL     1      13.122   4.566  -0.796  0.00  0.00    +0.019 A 
BRANCH  32  35
ATOM      6  N   UNL     1      15.300   3.281   1.625  0.00  0.00    -0.191 NA
ATOM     35  C   UNL     1      14.356   3.769   1.158  0.00  0.00    +0.099 C 
ENDBRANCH  32  35
ENDBRANCH   5  28
ENDBRANCH  15   4
ENDBRANCH  10  15
TORSDOF 8
ENDMDL
MODEL 7
REMARK VINA RESULT:      -6.6     17.208     22.304
REMARK  Name = 40780192
REMARK  8 active torsions:
REMARK  status: ('A' for Active; 'I' for Inactive)
REMARK    1  A    between atoms: N_3  and  C_14
REMARK    2  A    between atoms: N_4  and  C_15
REMARK    3  A    between atoms: N_5  and  C_28
REMARK    4  A    between atoms: C_8  and  C_14
REMARK    5  A    between atoms: C_10  and  C_15
REMARK    6  A    between atoms: C_18  and  C_21
REMARK    7  A    between atoms: C_21  and  C_23
REMARK    8  A    between atoms: C_32  and  C_35
REMARK                            x       y       z     vdW  Elec       q    Type
REMARK                         _______ _______ _______ _____ _____    ______ ____
ROOT
ATOM      2  N   UNL     1      14.152   6.103   0.315  0.00  0.00    -0.298 NA
ATOM      7  C   UNL     1      14.721   3.993  -1.096  0.00  0.00    -0.003 C 
ATOM      8  C   UNL     1      13.966   5.040  -1.948  0.00  0.00    +0.020 C 
ATOM      9  C   UNL     1      13.868   3.626   0.132  0.00  0.00    +0.024 C 
ATOM     10  C   UNL     1      13.678   4.879   1.015  0.00  0.00    +0.074 C 
ATOM     11  C   UNL     1      13.529   6.202  -1.028  0.00  0.00    +0.089 C 
ATOM     12  C   UNL     1      16.000   4.678  -0.576  0.00  0.00    +0.019 C 
ATOM     13  C   UNL     1      15.620   5.988   0.136  0.00  0.00    +0.085 C 
ENDROOT
BRANCH   8  14
ATOM     14  C   UNL     1      12.784   4.454  -2.714  0.00  0.00    +0.089 C 
BRANCH  14   3
ATOM      3  N   UNL     1      11.593   5.292  -2.562  0.00  0.00    -0.302 NA
ATOM     16  C   UNL     1      10.517   4.539  -1.903  0.00  0.00    +0.084 C 
ATOM     17  C   UNL     1      11.156   5.807  -3.867  0.00  0.00    +0.084 C 
ATOM     18  C   UNL     1       8.788   6.017  -3.008  0.00  0.00    -0.004 C 
ATOM     19  C   UNL     1       9.283   5.417  -1.687  0.00  0.00    +0.019 C 
ATOM     20  C   UNL     1       9.944   6.728  -3.719  0.00  0.00    +0.019 C 
BRANCH  18  21
ATOM     21  C   UNL     1       7.619   6.969  -2.773  0.00  0.00    +0.038 C 
BRANCH  21  23
ATOM     23  C   UNL     1       6.379   6.516  -3.495  0.00  0.00    -0.047 A 
ATOM     24  C   UNL     1       5.123   6.727  -2.926  0.00  0.00    +0.003 A 
ATOM     25  C   UNL     1       6.486   5.886  -4.735  0.00  0.00    +0.003 A 
ATOM     26  C   UNL     1       3.975   6.307  -3.596  0.00  0.00    +0.000 A 
ATOM     27  C   UNL     1       5.337   5.466  -5.406  0.00  0.00    +0.000 A 
ATOM     29  C   UNL     1       4.082   5.677  -4.836  0.00  0.00    +0.000 A 
ENDBRANCH  21  23
ENDBRANCH  18  21
ENDBRANCH  14   3
ENDBRANCH   8  14
BRANCH  10  15
ATOM     15  C   UNL     1      12.236   5.011   1.510  0.00  0.00    +0.124 C 
BRANCH  15   4
ATOM      1  O   UNL     1      10.096   6.055   3.105  0.00  0.00    -0.253 OA
ATOM      4  N   UNL     1      12.193   5.089   2.938  0.00  0.00    -0.298 N 
ATOM      5  N   UNL     1      11.343   5.561   5.031  0.00  0.00    -0.269 N 
ATOM     22  C   UNL     1      11.104   5.615   3.656  0.00  0.00    +0.304 C 
ATOM     36  H   UNL     1      12.992   4.746   3.462  0.00  0.00    +0.150 HD
ATOM     37  H   UNL     1      12.234   5.166   5.324  0.00  0.00    +0.156 HD
BRANCH   5  28
ATOM     28  C   UNL     1      10.495   5.991   6.078  0.00  0.00    +0.036 A 
ATOM     30  C   UNL     1      10.500   5.320   7.301  0.00  0.00    +0.042 A 
ATOM     31  C   UNL     1       9.654   7.087   5.888  0.00  0.00    +0.023 A 
ATOM     32  C   UNL     1       9.663   5.745   8.334  0.00  0.00    +0.054 A 
ATOM     33  C   UNL     1       8.818   7.513   6.920  0.00  0.00    +0.003 A 
ATOM     34  C   UNL     1       8.822   6.841   8.143  0.00  0.00    +0.019 A 
BRANCH  32  35
ATOM      6  N   UNL     1       9.669   4.498  10.603  0.00  0.00    -0.191 NA
ATOM     35  C   UNL     1       9.667   5.056   9.586  0.00  0.00    +0.099 C 
ENDBRANCH  32  35
ENDBRANCH   5  28
ENDBRANCH  15   4
ENDBRANCH  10  15
TORSDOF 8
ENDMDL
MODEL 8
REMARK VINA RESULT:      -6.5      1.656      2.487
REMARK  Name = 40780192
REMARK  8 active torsions:
REMARK  status: ('A' for Active; 'I' for Inactive)
REMARK    1  A    between atoms: N_3  and  C_14
REMARK    2  A    between atoms: N_4  and  C_15
REMARK    3  A    between atoms: N_5  and  C_28
REMARK    4  A    between atoms: C_8  and  C_14
REMARK    5  A    between atoms: C_10  and  C_15
REMARK    6  A    between atoms: C_18  and  C_21
REMARK    7  A    between atoms: C_21  and  C_23
REMARK    8  A    between atoms: C_32  and  C_35
REMARK                            x       y       z     vdW  Elec       q    Type
REMARK                         _______ _______ _______ _____ _____    ______ ____
ROOT
ATOM      2  N   UNL     1      15.707  11.771  24.237  0.00  0.00    -0.298 NA
ATOM      7  C   UNL     1      14.249  13.923  24.118  0.00  0.00    -0.003 C 
ATOM      8  C   UNL     1      13.399  12.703  24.539  0.00  0.00    +0.020 C 
ATOM      9  C   UNL     1      14.921  13.633  22.763  0.00  0.00    +0.024 C 
ATOM     10  C   UNL     1      15.886  12.437  22.918  0.00  0.00    +0.074 C 
ATOM     11  C   UNL     1      14.278  11.435  24.452  0.00  0.00    +0.089 C 
ATOM     12  C   UNL     1      15.373  14.067  25.163  0.00  0.00    +0.019 C 
ATOM     13  C   UNL     1      16.121  12.728  25.291  0.00  0.00    +0.085 C 
ENDROOT
BRANCH   8  14
ATOM     14  C   UNL     1      12.115  12.553  23.727  0.00  0.00    +0.089 C 
BRANCH  14   3
ATOM      3  N   UNL     1      12.099  11.284  22.999  0.00  0.00    -0.302 NA
ATOM     16  C   UNL     1      12.086  11.523  21.550  0.00  0.00    +0.084 C 
ATOM     17  C   UNL     1      10.949  10.468  23.412  0.00  0.00    +0.084 C 
ATOM     18  C   UNL     1      10.965   9.287  21.177  0.00  0.00    -0.004 C 
ATOM     19  C   UNL     1      12.124  10.206  20.773  0.00  0.00    +0.019 C 
ATOM     20  C   UNL     1      10.948   9.115  22.700  0.00  0.00    +0.019 C 
BRANCH  18  21
ATOM     21  C   UNL     1      11.066   7.937  20.473  0.00  0.00    +0.038 C 
BRANCH  21  23
ATOM     23  C   UNL     1      12.465   7.663  19.994  0.00  0.00    -0.047 A 
ATOM     24  C   UNL     1      12.830   7.977  18.685  0.00  0.00    +0.003 A 
ATOM     25  C   UNL     1      13.399   7.095  20.861  0.00  0.00    +0.003 A 
ATOM     26  C   UNL     1      14.128   7.722  18.242  0.00  0.00    +0.000 A 
ATOM     27  C   UNL     1      14.698   6.840  20.418  0.00  0.00    +0.000 A 
ATOM     29  C   UNL     1      15.061   7.154  19.109  0.00  0.00    +0.000 A 
ENDBRANCH  21  23
ENDBRANCH  18  21
ENDBRANCH  14   3
ENDBRANCH   8  14
BRANCH  10  15
ATOM     15  C   UNL     1      15.768  11.457  21.749  0.00  0.00    +0.124 C 
BRANCH  15   4
ATOM      1  O   UNL     1      17.958  10.048  20.555  0.00  0.00    -0.253 OA
ATOM      4  N   UNL     1      16.255  10.163  22.117  0.00  0.00    -0.298 N 
ATOM      5  N   UNL     1      17.587   8.280  22.054  0.00  0.00    -0.269 N 
ATOM     22  C   UNL     1      17.340   9.531  21.484  0.00  0.00    +0.304 C 
ATOM     36  H   UNL     1      15.790   9.674  22.875  0.00  0.00    +0.150 HD
ATOM     37  H   UNL     1      16.978   7.999  22.819  0.00  0.00    +0.156 HD
BRANCH   5  28
ATOM     28  C   UNL     1      18.588   7.346  21.698  0.00  0.00    +0.036 A 
ATOM     30  C   UNL     1      19.758   7.255  22.451  0.00  0.00    +0.042 A 
ATOM     31  C   UNL     1      18.402   6.513  20.594  0.00  0.00    +0.023 A 
ATOM     32  C   UNL     1      20.744   6.332  22.100  0.00  0.00    +0.054 A 
ATOM     33  C   UNL     1      19.387   5.591  20.243  0.00  0.00    +0.003 A 
ATOM     34  C   UNL     1      20.559   5.500  20.995  0.00  0.00    +0.019 A 
BRANCH  32  35
ATOM      6  N   UNL     1      22.918   6.166  23.495  0.00  0.00    -0.191 NA
ATOM     35  C   UNL     1      21.944   6.240  22.870  0.00  0.00    +0.099 C 
ENDBRANCH  32  35
ENDBRANCH   5  28
ENDBRANCH  15   4
ENDBRANCH  10  15
TORSDOF 8
ENDMDL
MODEL 9
REMARK VINA RESULT:      -6.5     28.215     31.315
REMARK  Name = 40780192
REMARK  8 active torsions:
REMARK  status: ('A' for Active; 'I' for Inactive)
REMARK    1  A    between atoms: N_3  and  C_14
REMARK    2  A    between atoms: N_4  and  C_15
REMARK    3  A    between atoms: N_5  and  C_28
REMARK    4  A    between atoms: C_8  and  C_14
REMARK    5  A    between atoms: C_10  and  C_15
REMARK    6  A    between atoms: C_18  and  C_21
REMARK    7  A    between atoms: C_21  and  C_23
REMARK    8  A    between atoms: C_32  and  C_35
REMARK                            x       y       z     vdW  Elec       q    Type
REMARK                         _______ _______ _______ _____ _____    ______ ____
ROOT
ATOM      2  N   UNL     1     -12.533  -8.672  14.753  0.00  0.00    -0.298 NA
ATOM      7  C   UNL     1     -13.384  -6.350  15.557  0.00  0.00    -0.003 C 
ATOM      8  C   UNL     1     -13.445  -6.456  14.016  0.00  0.00    +0.020 C 
ATOM      9  C   UNL     1     -11.941  -6.605  16.029  0.00  0.00    +0.024 C 
ATOM     10  C   UNL     1     -11.529  -8.046  15.656  0.00  0.00    +0.074 C 
ATOM     11  C   UNL     1     -12.796  -7.792  13.588  0.00  0.00    +0.089 C 
ATOM     12  C   UNL     1     -14.257  -7.489  16.119  0.00  0.00    +0.019 C 
ATOM     13  C   UNL     1     -13.797  -8.826  15.511  0.00  0.00    +0.085 C 
ENDROOT
BRANCH   8  14
ATOM     14  C   UNL     1     -12.807  -5.267  13.303  0.00  0.00    +0.089 C 
BRANCH  14   3
ATOM      3  N   UNL     1     -13.668  -4.778  12.226  0.00  0.00    -0.302 NA
ATOM     16  C   UNL     1     -12.875  -4.504  11.019  0.00  0.00    +0.084 C 
ATOM     17  C   UNL     1     -14.404  -3.582  12.658  0.00  0.00    +0.084 C 
ATOM     18  C   UNL     1     -14.592  -2.812  10.257  0.00  0.00    -0.004 C 
ATOM     19  C   UNL     1     -13.766  -4.042   9.865  0.00  0.00    +0.019 C 
ATOM     20  C   UNL     1     -15.349  -3.089  11.561  0.00  0.00    +0.019 C 
BRANCH  18  21
ATOM     21  C   UNL     1     -15.551  -2.417   9.138  0.00  0.00    +0.038 C 
BRANCH  21  23
ATOM     23  C   UNL     1     -15.386  -0.974   8.747  0.00  0.00    -0.047 A 
ATOM     24  C   UNL     1     -14.708  -0.641   7.574  0.00  0.00    +0.003 A 
ATOM     25  C   UNL     1     -15.912   0.032   9.558  0.00  0.00    +0.003 A 
ATOM     26  C   UNL     1     -14.556   0.697   7.212  0.00  0.00    +0.000 A 
ATOM     27  C   UNL     1     -15.759   1.371   9.196  0.00  0.00    +0.000 A 
ATOM     29  C   UNL     1     -15.081   1.703   8.023  0.00  0.00    +0.000 A 
ENDBRANCH  21  23
ENDBRANCH  18  21
ENDBRANCH  14   3
ENDBRANCH   8  14
BRANCH  10  15
ATOM     15  C   UNL     1     -10.112  -8.101  15.082  0.00  0.00    +0.124 C 
BRANCH  15   4
ATOM      1  O   UNL     1      -8.100 -10.137  15.209  0.00  0.00    -0.253 OA
ATOM      4  N   UNL     1      -9.147  -8.286  16.122  0.00  0.00    -0.298 N 
ATOM      5  N   UNL     1      -7.382  -9.244  17.258  0.00  0.00    -0.269 N 
ATOM     22  C   UNL     1      -8.185  -9.312  16.117  0.00  0.00    +0.304 C 
ATOM     36  H   UNL     1      -9.159  -7.643  16.907  0.00  0.00    +0.150 HD
ATOM     37  H   UNL     1      -7.587  -8.496  17.916  0.00  0.00    +0.156 HD
BRANCH   5  28
ATOM     28  C   UNL     1      -6.309 -10.093  17.617  0.00  0.00    +0.036 A 
ATOM     30  C   UNL     1      -5.143 -10.107  16.851  0.00  0.00    +0.042 A 
ATOM     31  C   UNL     1      -6.416 -10.916  18.738  0.00  0.00    +0.023 A 
ATOM     32  C   UNL     1      -4.085 -10.944  17.206  0.00  0.00    +0.054 A 
ATOM     33  C   UNL     1      -5.359 -11.753  19.093  0.00  0.00    +0.003 A 
ATOM     34  C   UNL     1      -4.193 -11.768  18.327  0.00  0.00    +0.019 A 
BRANCH  32  35
ATOM      6  N   UNL     1      -1.922 -10.971  15.784  0.00  0.00    -0.191 NA
ATOM     35  C   UNL     1      -2.891 -10.959  16.421  0.00  0.00    +0.099 C 
ENDBRANCH  32  35
ENDBRANCH   5  28
ENDBRANCH  15   4
ENDBRANCH  10  15
TORSDOF 8
ENDMDL
MODEL 10
REMARK VINA RESULT:      -6.5     15.201     19.461
REMARK  Name = 40780192
REMARK  8 active torsions:
REMARK  status: ('A' for Active; 'I' for Inactive)
REMARK    1  A    between atoms: N_3  and  C_14
REMARK    2  A    between atoms: N_4  and  C_15
REMARK    3  A    between atoms: N_5  and  C_28
REMARK    4  A    between atoms: C_8  and  C_14
REMARK    5  A    between atoms: C_10  and  C_15
REMARK    6  A    between atoms: C_18  and  C_21
REMARK    7  A    between atoms: C_21  and  C_23
REMARK    8  A    between atoms: C_32  and  C_35
REMARK                            x       y       z     vdW  Elec       q    Type
REMARK                         _______ _______ _______ _____ _____    ______ ____
ROOT
ATOM      2  N   UNL     1       9.662   7.534   4.387  0.00  0.00    -0.298 NA
ATOM      7  C   UNL     1       9.571   7.676   6.983  0.00  0.00    -0.003 C 
ATOM      8  C   UNL     1      10.799   8.436   6.432  0.00  0.00    +0.020 C 
ATOM      9  C   UNL     1       9.624   6.212   6.509  0.00  0.00    +0.024 C 
ATOM     10  C   UNL     1       9.530   6.170   4.968  0.00  0.00    +0.074 C 
ATOM     11  C   UNL     1      10.883   8.199   4.907  0.00  0.00    +0.089 C 
ATOM     12  C   UNL     1       8.324   8.318   6.345  0.00  0.00    +0.019 C 
ATOM     13  C   UNL     1       8.486   8.329   4.815  0.00  0.00    +0.085 C 
ENDROOT
BRANCH   8  14
ATOM     14  C   UNL     1      12.104   8.064   7.131  0.00  0.00    +0.089 C 
BRANCH  14   3
ATOM      3  N   UNL     1      13.252   8.281   6.250  0.00  0.00    -0.302 NA
ATOM     16  C   UNL     1      14.179   7.143   6.326  0.00  0.00    +0.084 C 
ATOM     17  C   UNL     1      13.930   9.539   6.589  0.00  0.00    +0.084 C 
ATOM     18  C   UNL     1      16.097   8.643   5.645  0.00  0.00    -0.004 C 
ATOM     19  C   UNL     1      15.359   7.328   5.370  0.00  0.00    +0.019 C 
ATOM     20  C   UNL     1      15.101   9.807   5.642  0.00  0.00    +0.019 C 
BRANCH  18  21
ATOM     21  C   UNL     1      17.210   8.869   4.626  0.00  0.00    +0.038 C 
BRANCH  21  23
ATOM     23  C   UNL     1      18.553   8.460   5.168  0.00  0.00    -0.047 A 
ATOM     24  C   UNL     1      18.927   8.833   6.459  0.00  0.00    +0.003 A 
ATOM     25  C   UNL     1      19.423   7.708   4.380  0.00  0.00    +0.003 A 
ATOM     26  C   UNL     1      20.171   8.454   6.961  0.00  0.00    +0.000 A 
ATOM     27  C   UNL     1      20.669   7.328   4.882  0.00  0.00    +0.000 A 
ATOM     29  C   UNL     1      21.042   7.702   6.173  0.00  0.00    +0.000 A 
ENDBRANCH  21  23
ENDBRANCH  18  21
ENDBRANCH  14   3
ENDBRANCH   8  14
BRANCH  10  15
ATOM     15  C   UNL     1      10.528   5.180   4.364  0.00  0.00    +0.124 C 
BRANCH  15   4
ATOM      1  O   UNL     1      11.564   3.310   2.457  0.00  0.00    -0.253 OA
ATOM      4  N   UNL     1      10.652   5.378   2.952  0.00  0.00    -0.298 N 
ATOM      5  N   UNL     1      11.170   4.882   0.759  0.00  0.00    -0.269 N 
ATOM     22  C   UNL     1      11.172   4.410   2.074  0.00  0.00    +0.304 C 
ATOM     36  H   UNL     1      10.349   6.266   2.564  0.00  0.00    +0.150 HD
ATOM     37  H   UNL     1      10.810   5.822   0.612  0.00  0.00    +0.156 HD
BRANCH   5  28
ATOM     28  C   UNL     1      11.611   4.211  -0.405  0.00  0.00    +0.036 A 
ATOM     30  C   UNL     1      10.691   3.829  -1.381  0.00  0.00    +0.042 A 
ATOM     31  C   UNL     1      12.967   3.933  -0.578  0.00  0.00    +0.023 A 
ATOM     32  C   UNL     1      11.127   3.167  -2.530  0.00  0.00    +0.054 A 
ATOM     33  C   UNL     1      13.403   3.272  -1.726  0.00  0.00    +0.003 A 
ATOM     34  C   UNL     1      12.483   2.888  -2.702  0.00  0.00    +0.019 A 
BRANCH  32  35
ATOM      6  N   UNL     1       9.418   2.455  -4.340  0.00  0.00    -0.191 NA
ATOM     35  C   UNL     1      10.184   2.774  -3.529  0.00  0.00    +0.099 C 
ENDBRANCH  32  35
ENDBRANCH   5  28
ENDBRANCH  15   4
ENDBRANCH  10  15
TORSDOF 8
ENDMDL
