MODEL 1
REMARK VINA RESULT:      -8.3      0.000      0.000
REMARK  Name = 7675083
REMARK  6 active torsions:
REMARK  status: ('A' for Active; 'I' for Inactive)
REMARK    1  A    between atoms: S_1  and  N_8
REMARK    2  A    between atoms: S_1  and  C_22
REMARK    3  A    between atoms: N_10  and  C_18
REMARK    4  A    between atoms: C_13  and  C_17
REMARK    5  A    between atoms: C_21  and  C_25
REMARK    6  A    between atoms: C_35  and  C_36
REMARK                            x       y       z     vdW  Elec       q    Type
REMARK                         _______ _______ _______ _____ _____    ______ ____
ROOT
ATOM      6  O   UNL     1      17.662   6.170  19.229  0.00  0.00    -0.270 OA
ATOM      8  N   UNL     1      13.238   8.092  20.782  0.00  0.00    -0.162 NA
ATOM      9  N   UNL     1      15.924   7.064  20.514  0.00  0.00    -0.294 N 
ATOM     13  C   UNL     1      13.701   7.536  19.481  0.00  0.00    +0.183 C 
ATOM     14  C   UNL     1      14.876   6.573  19.620  0.00  0.00    +0.138 C 
ATOM     15  C   UNL     1      13.992   7.615  21.972  0.00  0.00    +0.129 C 
ATOM     16  C   UNL     1      15.483   7.779  21.717  0.00  0.00    +0.125 C 
ATOM     21  C   UNL     1      17.261   6.767  20.228  0.00  0.00    +0.247 C 
ENDROOT
BRANCH  21  25
ATOM     25  C   UNL     1      18.284   7.195  21.194  0.00  0.00    +0.037 A 
ATOM     28  C   UNL     1      18.529   8.554  21.396  0.00  0.00    +0.014 A 
ATOM     29  C   UNL     1      19.010   6.242  21.909  0.00  0.00    +0.014 A 
ATOM     33  C   UNL     1      19.498   8.959  22.312  0.00  0.00    +0.019 A 
ATOM     34  C   UNL     1      19.980   6.647  22.825  0.00  0.00    +0.019 A 
ATOM     35  C   UNL     1      20.224   8.006  23.028  0.00  0.00    +0.052 A 
BRANCH  35  36
ATOM     12  N   UNL     1      22.024   8.759  24.730  0.00  0.00    -0.191 NA
ATOM     36  C   UNL     1      21.217   8.421  23.967  0.00  0.00    +0.099 C 
ENDBRANCH  35  36
ENDBRANCH  21  25
BRANCH  13  17
ATOM      3  O   UNL     1      15.104   9.373  18.896  0.00  0.00    -0.274 OA
ATOM     10  N   UNL     1      13.130   9.038  17.709  0.00  0.00    -0.303 N 
ATOM     17  C   UNL     1      14.074   8.740  18.676  0.00  0.00    +0.234 C 
ATOM     37  H   UNL     1      12.329   8.423  17.594  0.00  0.00    +0.149 HD
BRANCH  10  18
ATOM      7  O   UNL     1      13.911   8.564  15.134  0.00  0.00    -0.274 OA
ATOM     11  N   UNL     1      14.761  10.676  14.939  0.00  0.00    -0.314 N 
ATOM     18  C   UNL     1      13.245  10.163  16.816  0.00  0.00    +0.159 C 
ATOM     19  C   UNL     1      13.851  11.363  17.529  0.00  0.00    +0.033 C 
ATOM     20  C   UNL     1      14.122  12.470  16.524  0.00  0.00    +0.021 C 
ATOM     23  C   UNL     1      14.021   9.705  15.585  0.00  0.00    +0.233 C 
ATOM     24  C   UNL     1      15.114  11.970  15.492  0.00  0.00    +0.104 C 
ATOM     38  H   UNL     1      15.235  10.397  14.086  0.00  0.00    +0.149 HD
ENDBRANCH  10  18
ENDBRANCH  13  17
BRANCH   8   1
ATOM      1  S   UNL     1      11.551   8.282  20.985  0.00  0.00    +0.062 S 
ATOM      4  O   UNL     1      11.101   7.406  22.045  0.00  0.00    -0.153 OA
ATOM      5  O   UNL     1      10.917   8.263  19.683  0.00  0.00    -0.153 OA
BRANCH   1  22
ATOM      2  F   UNL     1      11.369  13.814  23.011  0.00  0.00    -0.205 F 
ATOM     22  C   UNL     1      11.496   9.939  21.592  0.00  0.00    +0.106 A 
ATOM     26  C   UNL     1      10.930  10.206  22.838  0.00  0.00    +0.031 A 
ATOM     27  C   UNL     1      12.020  10.979  20.825  0.00  0.00    +0.031 A 
ATOM     30  C   UNL     1      10.887  11.515  23.317  0.00  0.00    +0.040 A 
ATOM     31  C   UNL     1      11.977  12.289  21.305  0.00  0.00    +0.040 A 
ATOM     32  C   UNL     1      11.411  12.556  22.551  0.00  0.00    +0.124 A 
ENDBRANCH   1  22
ENDBRANCH   8   1
TORSDOF 6
ENDMDL
MODEL 2
REMARK VINA RESULT:      -7.8      1.375      2.198
REMARK  Name = 7675083
REMARK  6 active torsions:
REMARK  status: ('A' for Active; 'I' for Inactive)
REMARK    1  A    between atoms: S_1  and  N_8
REMARK    2  A    between atoms: S_1  and  C_22
REMARK    3  A    between atoms: N_10  and  C_18
REMARK    4  A    between atoms: C_13  and  C_17
REMARK    5  A    between atoms: C_21  and  C_25
REMARK    6  A    between atoms: C_35  and  C_36
REMARK                            x       y       z     vdW  Elec       q    Type
REMARK                         _______ _______ _______ _____ _____    ______ ____
ROOT
ATOM      6  O   UNL     1      17.928   6.284  19.411  0.00  0.00    -0.270 OA
ATOM      8  N   UNL     1      13.324   8.059  20.562  0.00  0.00    -0.162 NA
ATOM      9  N   UNL     1      16.074   7.178  20.521  0.00  0.00    -0.294 N 
ATOM     13  C   UNL     1      13.888   7.422  19.340  0.00  0.00    +0.183 C 
ATOM     14  C   UNL     1      15.106   6.547  19.624  0.00  0.00    +0.138 C 
ATOM     15  C   UNL     1      14.037   7.734  21.825  0.00  0.00    +0.129 C 
ATOM     16  C   UNL     1      15.528   7.966  21.632  0.00  0.00    +0.125 C 
ATOM     21  C   UNL     1      17.439   6.939  20.331  0.00  0.00    +0.247 C 
ENDROOT
BRANCH  21  25
ATOM     25  C   UNL     1      18.382   7.511  21.304  0.00  0.00    +0.037 A 
ATOM     28  C   UNL     1      19.128   6.671  22.132  0.00  0.00    +0.014 A 
ATOM     29  C   UNL     1      18.532   8.895  21.400  0.00  0.00    +0.014 A 
ATOM     33  C   UNL     1      20.022   7.213  23.053  0.00  0.00    +0.019 A 
ATOM     34  C   UNL     1      19.426   9.438  22.322  0.00  0.00    +0.019 A 
ATOM     35  C   UNL     1      20.172   8.597  23.149  0.00  0.00    +0.052 A 
BRANCH  35  36
ATOM     12  N   UNL     1      21.833   9.605  24.860  0.00  0.00    -0.191 NA
ATOM     36  C   UNL     1      21.088   9.153  24.093  0.00  0.00    +0.099 C 
ENDBRANCH  35  36
ENDBRANCH  21  25
BRANCH  13  17
ATOM      3  O   UNL     1      14.325   8.443  17.231  0.00  0.00    -0.274 OA
ATOM     10  N   UNL     1      14.459   9.738  19.161  0.00  0.00    -0.303 N 
ATOM     17  C   UNL     1      14.237   8.571  18.450  0.00  0.00    +0.234 C 
ATOM     37  H   UNL     1      14.326   9.735  20.169  0.00  0.00    +0.149 HD
BRANCH  10  18
ATOM      7  O   UNL     1      16.514  11.166  20.260  0.00  0.00    -0.274 OA
ATOM     11  N   UNL     1      15.681  13.122  19.422  0.00  0.00    -0.314 N 
ATOM     18  C   UNL     1      14.831  10.982  18.538  0.00  0.00    +0.159 C 
ATOM     19  C   UNL     1      13.599  11.751  18.083  0.00  0.00    +0.033 C 
ATOM     20  C   UNL     1      14.010  13.129  17.592  0.00  0.00    +0.021 C 
ATOM     23  C   UNL     1      15.724  11.745  19.511  0.00  0.00    +0.233 C 
ATOM     24  C   UNL     1      14.659  13.888  18.733  0.00  0.00    +0.104 C 
ATOM     38  H   UNL     1      16.313  13.640  20.024  0.00  0.00    +0.149 HD
ENDBRANCH  10  18
ENDBRANCH  13  17
BRANCH   8   1
ATOM      1  S   UNL     1      11.620   8.162  20.662  0.00  0.00    +0.062 S 
ATOM      4  O   UNL     1      11.128   7.071  21.474  0.00  0.00    -0.153 OA
ATOM      5  O   UNL     1      11.086   8.406  19.338  0.00  0.00    -0.153 OA
BRANCH   1  22
ATOM      2  F   UNL     1      11.064  13.129  23.785  0.00  0.00    -0.205 F 
ATOM     22  C   UNL     1      11.454   9.650  21.597  0.00  0.00    +0.106 A 
ATOM     26  C   UNL     1      11.813  10.874  21.031  0.00  0.00    +0.031 A 
ATOM     27  C   UNL     1      10.963   9.602  22.902  0.00  0.00    +0.031 A 
ATOM     30  C   UNL     1      11.681  12.049  21.770  0.00  0.00    +0.040 A 
ATOM     31  C   UNL     1      10.832  10.778  23.641  0.00  0.00    +0.040 A 
ATOM     32  C   UNL     1      11.190  12.001  23.075  0.00  0.00    +0.124 A 
ENDBRANCH   1  22
ENDBRANCH   8   1
TORSDOF 6
ENDMDL
MODEL 3
REMARK VINA RESULT:      -7.4      2.866      5.221
REMARK  Name = 7675083
REMARK  6 active torsions:
REMARK  status: ('A' for Active; 'I' for Inactive)
REMARK    1  A    between atoms: S_1  and  N_8
REMARK    2  A    between atoms: S_1  and  C_22
REMARK    3  A    between atoms: N_10  and  C_18
REMARK    4  A    between atoms: C_13  and  C_17
REMARK    5  A    between atoms: C_21  and  C_25
REMARK    6  A    between atoms: C_35  and  C_36
REMARK                            x       y       z     vdW  Elec       q    Type
REMARK                         _______ _______ _______ _____ _____    ______ ____
ROOT
ATOM      6  O   UNL     1      18.204  10.131  20.791  0.00  0.00    -0.270 OA
ATOM      8  N   UNL     1      13.742   7.790  20.251  0.00  0.00    -0.162 NA
ATOM      9  N   UNL     1      16.524   8.532  20.491  0.00  0.00    -0.294 N 
ATOM     13  C   UNL     1      14.129   9.224  20.350  0.00  0.00    +0.183 C 
ATOM     14  C   UNL     1      15.571   9.491  19.930  0.00  0.00    +0.138 C 
ATOM     15  C   UNL     1      14.816   6.883  19.765  0.00  0.00    +0.129 C 
ATOM     16  C   UNL     1      16.084   7.134  20.568  0.00  0.00    +0.125 C 
ATOM     21  C   UNL     1      17.805   8.968  20.844  0.00  0.00    +0.247 C 
ENDROOT
BRANCH  21  25
ATOM     25  C   UNL     1      18.769   7.964  21.317  0.00  0.00    +0.037 A 
ATOM     28  C   UNL     1      19.112   6.885  20.501  0.00  0.00    +0.014 A 
ATOM     29  C   UNL     1      19.342   8.089  22.583  0.00  0.00    +0.014 A 
ATOM     33  C   UNL     1      20.027   5.934  20.950  0.00  0.00    +0.019 A 
ATOM     34  C   UNL     1      20.257   7.138  23.033  0.00  0.00    +0.019 A 
ATOM     35  C   UNL     1      20.600   6.060  22.216  0.00  0.00    +0.052 A 
BRANCH  35  36
ATOM     12  N   UNL     1      22.300   4.293  23.049  0.00  0.00    -0.191 NA
ATOM     36  C   UNL     1      21.538   5.085  22.676  0.00  0.00    +0.099 C 
ENDBRANCH  35  36
ENDBRANCH  21  25
BRANCH  13  17
ATOM      3  O   UNL     1      14.584   9.074  22.685  0.00  0.00    -0.274 OA
ATOM     10  N   UNL     1      12.863  10.464  21.957  0.00  0.00    -0.303 N 
ATOM     17  C   UNL     1      13.906   9.569  21.788  0.00  0.00    +0.234 C 
ATOM     37  H   UNL     1      12.391  10.834  21.137  0.00  0.00    +0.149 HD
BRANCH  10  18
ATOM      7  O   UNL     1      10.334   9.842  22.783  0.00  0.00    -0.274 OA
ATOM     11  N   UNL     1      10.256  11.687  24.129  0.00  0.00    -0.314 N 
ATOM     18  C   UNL     1      12.434  10.938  23.248  0.00  0.00    +0.159 C 
ATOM     19  C   UNL     1      12.932  12.354  23.499  0.00  0.00    +0.033 C 
ATOM     20  C   UNL     1      12.321  12.890  24.783  0.00  0.00    +0.021 C 
ATOM     23  C   UNL     1      10.919  10.782  23.324  0.00  0.00    +0.233 C 
ATOM     24  C   UNL     1      10.812  12.927  24.635  0.00  0.00    +0.104 C 
ATOM     38  H   UNL     1       9.254  11.557  24.234  0.00  0.00    +0.149 HD
ENDBRANCH  10  18
ENDBRANCH  13  17
BRANCH   8   1
ATOM      1  S   UNL     1      12.162   7.453  19.693  0.00  0.00    +0.062 S 
ATOM      4  O   UNL     1      11.208   8.148  20.531  0.00  0.00    -0.153 OA
ATOM      5  O   UNL     1      12.042   6.030  19.450  0.00  0.00    -0.153 OA
BRANCH   1  22
ATOM      2  F   UNL     1      12.302  10.180  14.470  0.00  0.00    -0.205 F 
ATOM     22  C   UNL     1      12.204   8.270  18.129  0.00  0.00    +0.106 A 
ATOM     26  C   UNL     1      13.427   8.627  17.562  0.00  0.00    +0.031 A 
ATOM     27  C   UNL     1      11.014   8.557  17.461  0.00  0.00    +0.031 A 
ATOM     30  C   UNL     1      13.460   9.272  16.326  0.00  0.00    +0.040 A 
ATOM     31  C   UNL     1      11.048   9.203  16.224  0.00  0.00    +0.040 A 
ATOM     32  C   UNL     1      12.271   9.560  15.657  0.00  0.00    +0.124 A 
ENDBRANCH   1  22
ENDBRANCH   8   1
TORSDOF 6
ENDMDL
MODEL 4
REMARK VINA RESULT:      -7.0      3.098      5.152
REMARK  Name = 7675083
REMARK  6 active torsions:
REMARK  status: ('A' for Active; 'I' for Inactive)
REMARK    1  A    between atoms: S_1  and  N_8
REMARK    2  A    between atoms: S_1  and  C_22
REMARK    3  A    between atoms: N_10  and  C_18
REMARK    4  A    between atoms: C_13  and  C_17
REMARK    5  A    between atoms: C_21  and  C_25
REMARK    6  A    between atoms: C_35  and  C_36
REMARK                            x       y       z     vdW  Elec       q    Type
REMARK                         _______ _______ _______ _____ _____    ______ ____
ROOT
ATOM      6  O   UNL     1      19.190  10.256  22.027  0.00  0.00    -0.270 OA
ATOM      8  N   UNL     1      14.961   8.572  19.799  0.00  0.00    -0.162 NA
ATOM      9  N   UNL     1      17.615   8.974  20.867  0.00  0.00    -0.294 N 
ATOM     13  C   UNL     1      15.323   9.867  20.439  0.00  0.00    +0.183 C 
ATOM     14  C   UNL     1      16.825  10.134  20.454  0.00  0.00    +0.138 C 
ATOM     15  C   UNL     1      16.112   7.780  19.293  0.00  0.00    +0.129 C 
ATOM     16  C   UNL     1      17.160   7.663  20.389  0.00  0.00    +0.125 C 
ATOM     21  C   UNL     1      18.782   9.172  21.612  0.00  0.00    +0.247 C 
ENDROOT
BRANCH  21  25
ATOM     25  C   UNL     1      19.603   7.994  21.933  0.00  0.00    +0.037 A 
ATOM     28  C   UNL     1      20.059   7.161  20.911  0.00  0.00    +0.014 A 
ATOM     29  C   UNL     1      19.927   7.710  23.260  0.00  0.00    +0.014 A 
ATOM     33  C   UNL     1      20.839   6.046  21.215  0.00  0.00    +0.019 A 
ATOM     34  C   UNL     1      20.706   6.595  23.565  0.00  0.00    +0.019 A 
ATOM     35  C   UNL     1      21.163   5.762  22.542  0.00  0.00    +0.052 A 
BRANCH  35  36
ATOM     12  N   UNL     1      22.609   3.691  23.108  0.00  0.00    -0.191 NA
ATOM     36  C   UNL     1      21.961   4.619  22.854  0.00  0.00    +0.099 C 
ENDBRANCH  35  36
ENDBRANCH  21  25
BRANCH  13  17
ATOM      3  O   UNL     1      14.700   8.684  22.413  0.00  0.00    -0.274 OA
ATOM     10  N   UNL     1      14.361  10.985  22.322  0.00  0.00    -0.303 N 
ATOM     17  C   UNL     1      14.774   9.761  21.826  0.00  0.00    +0.234 C 
ATOM     37  H   UNL     1      14.501  11.819  21.758  0.00  0.00    +0.149 HD
BRANCH  10  18
ATOM      7  O   UNL     1      11.816  11.969  22.480  0.00  0.00    -0.274 OA
ATOM     11  N   UNL     1      12.202  12.796  24.574  0.00  0.00    -0.314 N 
ATOM     18  C   UNL     1      13.775  11.149  23.628  0.00  0.00    +0.159 C 
ATOM     19  C   UNL     1      14.801  11.678  24.620  0.00  0.00    +0.033 C 
ATOM     20  C   UNL     1      14.115  12.007  25.936  0.00  0.00    +0.021 C 
ATOM     23  C   UNL     1      12.536  12.025  23.479  0.00  0.00    +0.233 C 
ATOM     24  C   UNL     1      13.074  13.083  25.697  0.00  0.00    +0.104 C 
ATOM     38  H   UNL     1      11.346  13.338  24.509  0.00  0.00    +0.149 HD
ENDBRANCH  10  18
ENDBRANCH  13  17
BRANCH   8   1
ATOM      1  S   UNL     1      13.551   8.557  18.833  0.00  0.00    +0.062 S 
ATOM      4  O   UNL     1      13.655   7.490  17.861  0.00  0.00    -0.153 OA
ATOM      5  O   UNL     1      13.249   9.912  18.421  0.00  0.00    -0.153 OA
BRANCH   1  22
ATOM      2  F   UNL     1       9.556   6.952  22.858  0.00  0.00    -0.205 F 
ATOM     22  C   UNL     1      12.354   8.076  20.038  0.00  0.00    +0.106 A 
ATOM     26  C   UNL     1      12.296   6.752  20.473  0.00  0.00    +0.031 A 
ATOM     27  C   UNL     1      11.469   9.020  20.556  0.00  0.00    +0.031 A 
ATOM     30  C   UNL     1      11.351   6.372  21.425  0.00  0.00    +0.040 A 
ATOM     31  C   UNL     1      10.523   8.640  21.509  0.00  0.00    +0.040 A 
ATOM     32  C   UNL     1      10.465   7.316  21.944  0.00  0.00    +0.124 A 
ENDBRANCH   1  22
ENDBRANCH   8   1
TORSDOF 6
ENDMDL
MODEL 5
REMARK VINA RESULT:      -7.0     14.780     18.487
REMARK  Name = 7675083
REMARK  6 active torsions:
REMARK  status: ('A' for Active; 'I' for Inactive)
REMARK    1  A    between atoms: S_1  and  N_8
REMARK    2  A    between atoms: S_1  and  C_22
REMARK    3  A    between atoms: N_10  and  C_18
REMARK    4  A    between atoms: C_13  and  C_17
REMARK    5  A    between atoms: C_21  and  C_25
REMARK    6  A    between atoms: C_35  and  C_36
REMARK                            x       y       z     vdW  Elec       q    Type
REMARK                         _______ _______ _______ _____ _____    ______ ____
ROOT
ATOM      6  O   UNL     1      15.066   9.915   2.341  0.00  0.00    -0.270 OA
ATOM      8  N   UNL     1      12.969   5.309   2.086  0.00  0.00    -0.162 NA
ATOM      9  N   UNL     1      14.685   7.609   2.419  0.00  0.00    -0.294 N 
ATOM     13  C   UNL     1      12.487   6.665   1.706  0.00  0.00    +0.183 C 
ATOM     14  C   UNL     1      13.616   7.650   1.421  0.00  0.00    +0.138 C 
ATOM     15  C   UNL     1      14.448   5.156   2.120  0.00  0.00    +0.129 C 
ATOM     16  C   UNL     1      15.049   6.287   2.942  0.00  0.00    +0.125 C 
ATOM     21  C   UNL     1      15.347   8.793   2.761  0.00  0.00    +0.247 C 
ENDROOT
BRANCH  21  25
ATOM     25  C   UNL     1      16.477   8.705   3.698  0.00  0.00    +0.037 A 
ATOM     28  C   UNL     1      16.266   8.887   5.066  0.00  0.00    +0.014 A 
ATOM     29  C   UNL     1      17.760   8.439   3.220  0.00  0.00    +0.014 A 
ATOM     33  C   UNL     1      17.338   8.802   5.954  0.00  0.00    +0.019 A 
ATOM     34  C   UNL     1      18.832   8.355   4.108  0.00  0.00    +0.019 A 
ATOM     35  C   UNL     1      18.621   8.536   5.476  0.00  0.00    +0.052 A 
BRANCH  35  36
ATOM     12  N   UNL     1      20.611   8.380   7.124  0.00  0.00    -0.191 NA
ATOM     36  C   UNL     1      19.719   8.450   6.386  0.00  0.00    +0.099 C 
ENDBRANCH  35  36
ENDBRANCH  21  25
BRANCH  13  17
ATOM      3  O   UNL     1      11.011   8.148   2.848  0.00  0.00    -0.274 OA
ATOM     10  N   UNL     1      11.744   6.225   3.936  0.00  0.00    -0.303 N 
ATOM     17  C   UNL     1      11.660   7.105   2.871  0.00  0.00    +0.234 C 
ATOM     37  H   UNL     1      12.288   5.373   3.831  0.00  0.00    +0.149 HD
BRANCH  10  18
ATOM      7  O   UNL     1      13.193   7.140   6.065  0.00  0.00    -0.274 OA
ATOM     11  N   UNL     1      11.739   6.181   7.543  0.00  0.00    -0.314 N 
ATOM     18  C   UNL     1      11.058   6.432   5.186  0.00  0.00    +0.159 C 
ATOM     19  C   UNL     1      10.049   5.323   5.442  0.00  0.00    +0.033 C 
ATOM     20  C   UNL     1       9.471   5.471   6.840  0.00  0.00    +0.021 C 
ATOM     23  C   UNL     1      12.112   6.588   6.278  0.00  0.00    +0.233 C 
ATOM     24  C   UNL     1      10.592   5.349   7.855  0.00  0.00    +0.104 C 
ATOM     38  H   UNL     1      12.410   6.333   8.290  0.00  0.00    +0.149 HD
ENDBRANCH  10  18
ENDBRANCH  13  17
BRANCH   8   1
ATOM      1  S   UNL     1      12.087   3.976   1.479  0.00  0.00    +0.062 S 
ATOM      4  O   UNL     1      10.948   3.733   2.338  0.00  0.00    -0.153 OA
ATOM      5  O   UNL     1      13.012   2.912   1.148  0.00  0.00    -0.153 OA
BRANCH   1  22
ATOM      2  F   UNL     1      10.084   6.275  -3.565  0.00  0.00    -0.205 F 
ATOM     22  C   UNL     1      11.488   4.665  -0.032  0.00  0.00    +0.106 A 
ATOM     26  C   UNL     1      12.348   4.816  -1.120  0.00  0.00    +0.031 A 
ATOM     27  C   UNL     1      10.153   5.058  -0.138  0.00  0.00    +0.031 A 
ATOM     30  C   UNL     1      11.874   5.360  -2.313  0.00  0.00    +0.040 A 
ATOM     31  C   UNL     1       9.679   5.602  -1.332  0.00  0.00    +0.040 A 
ATOM     32  C   UNL     1      10.539   5.752  -2.419  0.00  0.00    +0.124 A 
ENDBRANCH   1  22
ENDBRANCH   8   1
TORSDOF 6
ENDMDL
MODEL 6
REMARK VINA RESULT:      -7.0     14.384     18.082
REMARK  Name = 7675083
REMARK  6 active torsions:
REMARK  status: ('A' for Active; 'I' for Inactive)
REMARK    1  A    between atoms: S_1  and  N_8
REMARK    2  A    between atoms: S_1  and  C_22
REMARK    3  A    between atoms: N_10  and  C_18
REMARK    4  A    between atoms: C_13  and  C_17
REMARK    5  A    between atoms: C_21  and  C_25
REMARK    6  A    between atoms: C_35  and  C_36
REMARK                            x       y       z     vdW  Elec       q    Type
REMARK                         _______ _______ _______ _____ _____    ______ ____
ROOT
ATOM      6  O   UNL     1       7.821   7.718   4.168  0.00  0.00    -0.270 OA
ATOM      8  N   UNL     1      12.408   9.239   2.642  0.00  0.00    -0.162 NA
ATOM      9  N   UNL     1      10.067   8.367   4.092  0.00  0.00    -0.294 N 
ATOM     13  C   UNL     1      11.104   9.088   1.939  0.00  0.00    +0.183 C 
ATOM     14  C   UNL     1       9.901   9.161   2.875  0.00  0.00    +0.138 C 
ATOM     15  C   UNL     1      12.308   9.434   4.113  0.00  0.00    +0.129 C 
ATOM     16  C   UNL     1      11.403   8.360   4.699  0.00  0.00    +0.125 C 
ATOM     21  C   UNL     1       8.952   7.732   4.651  0.00  0.00    +0.247 C 
ENDROOT
BRANCH  21  25
ATOM     25  C   UNL     1       9.132   7.018   5.924  0.00  0.00    +0.037 A 
ATOM     28  C   UNL     1       8.802   7.642   7.128  0.00  0.00    +0.014 A 
ATOM     29  C   UNL     1       9.632   5.716   5.929  0.00  0.00    +0.014 A 
ATOM     33  C   UNL     1       8.971   6.965   8.334  0.00  0.00    +0.019 A 
ATOM     34  C   UNL     1       9.801   5.038   7.136  0.00  0.00    +0.019 A 
ATOM     35  C   UNL     1       9.470   5.663   8.339  0.00  0.00    +0.052 A 
BRANCH  35  36
ATOM     12  N   UNL     1       9.785   4.404  10.580  0.00  0.00    -0.191 NA
ATOM     36  C   UNL     1       9.644   4.968   9.576  0.00  0.00    +0.099 C 
ENDBRANCH  35  36
ENDBRANCH  21  25
BRANCH  13  17
ATOM      3  O   UNL     1      10.252   7.274   0.647  0.00  0.00    -0.274 OA
ATOM     10  N   UNL     1      12.427   7.152   1.467  0.00  0.00    -0.303 N 
ATOM     17  C   UNL     1      11.196   7.753   1.271  0.00  0.00    +0.234 C 
ATOM     37  H   UNL     1      13.148   7.657   1.976  0.00  0.00    +0.149 HD
BRANCH  10  18
ATOM      7  O   UNL     1      11.624   4.952   2.876  0.00  0.00    -0.274 OA
ATOM     11  N   UNL     1      13.331   3.702   2.013  0.00  0.00    -0.314 N 
ATOM     18  C   UNL     1      12.761   5.852   0.945  0.00  0.00    +0.159 C 
ATOM     19  C   UNL     1      14.168   5.845   0.364  0.00  0.00    +0.033 C 
ATOM     20  C   UNL     1      14.556   4.425  -0.016  0.00  0.00    +0.021 C 
ATOM     23  C   UNL     1      12.535   4.829   2.054  0.00  0.00    +0.233 C 
ATOM     24  C   UNL     1      14.543   3.558   1.228  0.00  0.00    +0.104 C 
ATOM     38  H   UNL     1      13.150   2.988   2.711  0.00  0.00    +0.149 HD
ENDBRANCH  10  18
ENDBRANCH  13  17
BRANCH   8   1
ATOM      1  S   UNL     1      13.616  10.146   1.842  0.00  0.00    +0.062 S 
ATOM      4  O   UNL     1      13.368  11.556   2.055  0.00  0.00    -0.153 OA
ATOM      5  O   UNL     1      13.794   9.615   0.506  0.00  0.00    -0.153 OA
BRANCH   1  22
ATOM      2  F   UNL     1      18.330   8.635   5.040  0.00  0.00    -0.205 F 
ATOM     22  C   UNL     1      15.028   9.694   2.799  0.00  0.00    +0.106 A 
ATOM     26  C   UNL     1      15.678  10.652   3.578  0.00  0.00    +0.031 A 
ATOM     27  C   UNL     1      15.492   8.379   2.778  0.00  0.00    +0.031 A 
ATOM     30  C   UNL     1      16.794  10.294   4.334  0.00  0.00    +0.040 A 
ATOM     31  C   UNL     1      16.608   8.022   3.536  0.00  0.00    +0.040 A 
ATOM     32  C   UNL     1      17.259   8.979   4.314  0.00  0.00    +0.124 A 
ENDBRANCH   1  22
ENDBRANCH   8   1
TORSDOF 6
ENDMDL
MODEL 7
REMARK VINA RESULT:      -7.0     29.732     32.708
REMARK  Name = 7675083
REMARK  6 active torsions:
REMARK  status: ('A' for Active; 'I' for Inactive)
REMARK    1  A    between atoms: S_1  and  N_8
REMARK    2  A    between atoms: S_1  and  C_22
REMARK    3  A    between atoms: N_10  and  C_18
REMARK    4  A    between atoms: C_13  and  C_17
REMARK    5  A    between atoms: C_21  and  C_25
REMARK    6  A    between atoms: C_35  and  C_36
REMARK                            x       y       z     vdW  Elec       q    Type
REMARK                         _______ _______ _______ _____ _____    ______ ____
ROOT
ATOM      6  O   UNL     1     -12.956 -10.549  15.982  0.00  0.00    -0.270 OA
ATOM      8  N   UNL     1      -8.516 -10.618  18.425  0.00  0.00    -0.162 NA
ATOM      9  N   UNL     1     -10.761 -10.131  16.673  0.00  0.00    -0.294 N 
ATOM     13  C   UNL     1      -9.748 -11.448  18.537  0.00  0.00    +0.183 C 
ATOM     14  C   UNL     1     -10.586 -11.459  17.261  0.00  0.00    +0.138 C 
ATOM     15  C   UNL     1      -8.323  -9.956  17.108  0.00  0.00    +0.129 C 
ATOM     16  C   UNL     1      -9.603  -9.231  16.720  0.00  0.00    +0.125 C 
ATOM     21  C   UNL     1     -11.968  -9.818  16.039  0.00  0.00    +0.247 C 
ENDROOT
BRANCH  21  25
ATOM     25  C   UNL     1     -12.080  -8.509  15.377  0.00  0.00    +0.037 A 
ATOM     28  C   UNL     1     -12.263  -7.354  16.139  0.00  0.00    +0.014 A 
ATOM     29  C   UNL     1     -12.003  -8.421  13.987  0.00  0.00    +0.014 A 
ATOM     33  C   UNL     1     -12.368  -6.114  15.511  0.00  0.00    +0.019 A 
ATOM     34  C   UNL     1     -12.108  -7.181  13.359  0.00  0.00    +0.019 A 
ATOM     35  C   UNL     1     -12.290  -6.026  14.121  0.00  0.00    +0.052 A 
BRANCH  35  36
ATOM     12  N   UNL     1     -12.485  -3.723  12.955  0.00  0.00    -0.191 NA
ATOM     36  C   UNL     1     -12.398  -4.755  13.478  0.00  0.00    +0.099 C 
ENDBRANCH  35  36
ENDBRANCH  21  25
BRANCH  13  17
ATOM      3  O   UNL     1      -9.926 -10.263  20.598  0.00  0.00    -0.274 OA
ATOM     10  N   UNL     1     -11.866 -11.041  19.571  0.00  0.00    -0.303 N 
ATOM     17  C   UNL     1     -10.500 -10.844  19.679  0.00  0.00    +0.234 C 
ATOM     37  H   UNL     1     -12.234 -11.509  18.747  0.00  0.00    +0.149 HD
BRANCH  10  18
ATOM      7  O   UNL     1     -12.593 -12.753  21.573  0.00  0.00    -0.274 OA
ATOM     11  N   UNL     1     -14.599 -11.690  21.834  0.00  0.00    -0.314 N 
ATOM     18  C   UNL     1     -12.809 -10.575  20.554  0.00  0.00    +0.159 C 
ATOM     19  C   UNL     1     -13.904  -9.741  19.904  0.00  0.00    +0.033 C 
ATOM     20  C   UNL     1     -14.975  -9.413  20.932  0.00  0.00    +0.021 C 
ATOM     23  C   UNL     1     -13.318 -11.788  21.327  0.00  0.00    +0.233 C 
ATOM     24  C   UNL     1     -15.587 -10.705  21.438  0.00  0.00    +0.104 C 
ATOM     38  H   UNL     1     -14.927 -12.467  22.400  0.00  0.00    +0.149 HD
ENDBRANCH  10  18
ENDBRANCH  13  17
BRANCH   8   1
ATOM      1  S   UNL     1      -7.107 -11.224  19.179  0.00  0.00    +0.062 S 
ATOM      4  O   UNL     1      -7.378 -12.550  19.691  0.00  0.00    -0.153 OA
ATOM      5  O   UNL     1      -6.552 -10.194  20.033  0.00  0.00    -0.153 OA
BRANCH   1  22
ATOM      2  F   UNL     1      -3.584 -11.783  14.487  0.00  0.00    -0.205 F 
ATOM     22  C   UNL     1      -6.052 -11.392  17.774  0.00  0.00    +0.106 A 
ATOM     26  C   UNL     1      -6.197 -12.484  16.919  0.00  0.00    +0.031 A 
ATOM     27  C   UNL     1      -5.074 -10.431  17.518  0.00  0.00    +0.031 A 
ATOM     30  C   UNL     1      -5.363 -12.617  15.810  0.00  0.00    +0.040 A 
ATOM     31  C   UNL     1      -4.240 -10.564  16.408  0.00  0.00    +0.040 A 
ATOM     32  C   UNL     1      -4.385 -11.656  15.553  0.00  0.00    +0.124 A 
ENDBRANCH   1  22
ENDBRANCH   8   1
TORSDOF 6
ENDMDL
MODEL 8
REMARK VINA RESULT:      -6.9     14.846     19.925
REMARK  Name = 7675083
REMARK  6 active torsions:
REMARK  status: ('A' for Active; 'I' for Inactive)
REMARK    1  A    between atoms: S_1  and  N_8
REMARK    2  A    between atoms: S_1  and  C_22
REMARK    3  A    between atoms: N_10  and  C_18
REMARK    4  A    between atoms: C_13  and  C_17
REMARK    5  A    between atoms: C_21  and  C_25
REMARK    6  A    between atoms: C_35  and  C_36
REMARK                            x       y       z     vdW  Elec       q    Type
REMARK                         _______ _______ _______ _____ _____    ______ ____
ROOT
ATOM      6  O   UNL     1      13.246   3.201   1.694  0.00  0.00    -0.270 OA
ATOM      8  N   UNL     1      14.270   8.164   1.763  0.00  0.00    -0.162 NA
ATOM      9  N   UNL     1      13.662   5.421   1.089  0.00  0.00    -0.294 N 
ATOM     13  C   UNL     1      14.241   7.120   2.825  0.00  0.00    +0.183 C 
ATOM     14  C   UNL     1      14.450   5.707   2.288  0.00  0.00    +0.138 C 
ATOM     15  C   UNL     1      14.496   7.651   0.386  0.00  0.00    +0.129 C 
ATOM     16  C   UNL     1      13.529   6.509   0.112  0.00  0.00    +0.125 C 
ATOM     21  C   UNL     1      13.152   4.133   0.896  0.00  0.00    +0.247 C 
ENDROOT
BRANCH  21  25
ATOM     25  C   UNL     1      12.444   3.852  -0.362  0.00  0.00    +0.037 A 
ATOM     28  C   UNL     1      11.130   4.289  -0.536  0.00  0.00    +0.014 A 
ATOM     29  C   UNL     1      13.086   3.150  -1.382  0.00  0.00    +0.014 A 
ATOM     33  C   UNL     1      10.459   4.024  -1.729  0.00  0.00    +0.019 A 
ATOM     34  C   UNL     1      12.415   2.884  -2.575  0.00  0.00    +0.019 A 
ATOM     35  C   UNL     1      11.101   3.322  -2.749  0.00  0.00    +0.052 A 
BRANCH  35  36
ATOM     12  N   UNL     1       9.856   2.828  -4.965  0.00  0.00    -0.191 NA
ATOM     36  C   UNL     1      10.414   3.050  -3.972  0.00  0.00    +0.099 C 
ENDBRANCH  35  36
ENDBRANCH  21  25
BRANCH  13  17
ATOM      3  O   UNL     1      12.011   7.956   2.944  0.00  0.00    -0.274 OA
ATOM     10  N   UNL     1      12.793   6.578   4.650  0.00  0.00    -0.303 N 
ATOM     17  C   UNL     1      12.893   7.270   3.455  0.00  0.00    +0.234 C 
ATOM     37  H   UNL     1      13.579   6.015   4.962  0.00  0.00    +0.149 HD
BRANCH  10  18
ATOM      7  O   UNL     1      13.072   6.974   7.340  0.00  0.00    -0.274 OA
ATOM     11  N   UNL     1      11.139   5.834   7.768  0.00  0.00    -0.314 N 
ATOM     18  C   UNL     1      11.604   6.580   5.464  0.00  0.00    +0.159 C 
ATOM     19  C   UNL     1      10.631   5.504   5.004  0.00  0.00    +0.033 C 
ATOM     20  C   UNL     1       9.472   5.412   5.984  0.00  0.00    +0.021 C 
ATOM     23  C   UNL     1      12.034   6.456   6.922  0.00  0.00    +0.233 C 
ATOM     24  C   UNL     1      10.008   5.027   7.350  0.00  0.00    +0.104 C 
ATOM     38  H   UNL     1      11.388   5.798   8.752  0.00  0.00    +0.149 HD
ENDBRANCH  10  18
ENDBRANCH  13  17
BRANCH   8   1
ATOM      1  S   UNL     1      15.037   9.640   2.155  0.00  0.00    +0.062 S 
ATOM      4  O   UNL     1      14.223  10.356   3.114  0.00  0.00    -0.153 OA
ATOM      5  O   UNL     1      15.481  10.277   0.932  0.00  0.00    -0.153 OA
BRANCH   1  22
ATOM      2  F   UNL     1      19.797   7.619   4.982  0.00  0.00    -0.205 F 
ATOM     22  C   UNL     1      16.462   9.034   3.001  0.00  0.00    +0.106 A 
ATOM     26  C   UNL     1      17.554   8.557   2.275  0.00  0.00    +0.031 A 
ATOM     27  C   UNL     1      16.497   9.035   4.395  0.00  0.00    +0.031 A 
ATOM     30  C   UNL     1      18.680   8.078   2.945  0.00  0.00    +0.040 A 
ATOM     31  C   UNL     1      17.624   8.556   5.064  0.00  0.00    +0.040 A 
ATOM     32  C   UNL     1      18.715   8.078   4.339  0.00  0.00    +0.124 A 
ENDBRANCH   1  22
ENDBRANCH   8   1
TORSDOF 6
ENDMDL
MODEL 9
REMARK VINA RESULT:      -6.9     27.830     29.989
REMARK  Name = 7675083
REMARK  6 active torsions:
REMARK  status: ('A' for Active; 'I' for Inactive)
REMARK    1  A    between atoms: S_1  and  N_8
REMARK    2  A    between atoms: S_1  and  C_22
REMARK    3  A    between atoms: N_10  and  C_18
REMARK    4  A    between atoms: C_13  and  C_17
REMARK    5  A    between atoms: C_21  and  C_25
REMARK    6  A    between atoms: C_35  and  C_36
REMARK                            x       y       z     vdW  Elec       q    Type
REMARK                         _______ _______ _______ _____ _____    ______ ____
ROOT
ATOM      6  O   UNL     1      -1.457 -10.877  11.839  0.00  0.00    -0.270 OA
ATOM      8  N   UNL     1      -4.761 -11.526  15.626  0.00  0.00    -0.162 NA
ATOM      9  N   UNL     1      -3.360 -10.831  13.197  0.00  0.00    -0.294 N 
ATOM     13  C   UNL     1      -3.321 -11.870  15.467  0.00  0.00    +0.183 C 
ATOM     14  C   UNL     1      -2.603 -11.003  14.437  0.00  0.00    +0.138 C 
ATOM     15  C   UNL     1      -5.238 -10.411  14.766  0.00  0.00    +0.129 C 
ATOM     16  C   UNL     1      -4.813 -10.672  13.328  0.00  0.00    +0.125 C 
ATOM     21  C   UNL     1      -2.672 -10.749  11.982  0.00  0.00    +0.247 C 
ENDROOT
BRANCH  21  25
ATOM     25  C   UNL     1      -3.453 -10.483  10.764  0.00  0.00    +0.037 A 
ATOM     28  C   UNL     1      -4.001 -11.543  10.040  0.00  0.00    +0.014 A 
ATOM     29  C   UNL     1      -3.647  -9.171  10.332  0.00  0.00    +0.014 A 
ATOM     33  C   UNL     1      -4.742 -11.291   8.887  0.00  0.00    +0.019 A 
ATOM     34  C   UNL     1      -4.388  -8.919   9.178  0.00  0.00    +0.019 A 
ATOM     35  C   UNL     1      -4.937  -9.979   8.455  0.00  0.00    +0.052 A 
BRANCH  35  36
ATOM     12  N   UNL     1      -6.312  -9.510   6.312  0.00  0.00    -0.191 NA
ATOM     36  C   UNL     1      -5.696  -9.721   7.273  0.00  0.00    +0.099 C 
ENDBRANCH  35  36
ENDBRANCH  21  25
BRANCH  13  17
ATOM      3  O   UNL     1      -4.248 -14.065  15.362  0.00  0.00    -0.274 OA
ATOM     10  N   UNL     1      -2.193 -13.657  14.347  0.00  0.00    -0.303 N 
ATOM     17  C   UNL     1      -3.327 -13.309  15.059  0.00  0.00    +0.234 C 
ATOM     37  H   UNL     1      -1.509 -12.939  14.125  0.00  0.00    +0.149 HD
BRANCH  10  18
ATOM      7  O   UNL     1       0.375 -14.346  13.714  0.00  0.00    -0.274 OA
ATOM     11  N   UNL     1      -0.351 -15.919  12.224  0.00  0.00    -0.314 N 
ATOM     18  C   UNL     1      -1.948 -14.990  13.858  0.00  0.00    +0.159 C 
ATOM     19  C   UNL     1      -3.053 -15.433  12.910  0.00  0.00    +0.033 C 
ATOM     20  C   UNL     1      -2.680 -16.764  12.278  0.00  0.00    +0.021 C 
ATOM     23  C   UNL     1      -0.550 -15.016  13.249  0.00  0.00    +0.233 C 
ATOM     24  C   UNL     1      -1.400 -16.592  11.482  0.00  0.00    +0.104 C 
ATOM     38  H   UNL     1       0.590 -15.987  11.850  0.00  0.00    +0.149 HD
ENDBRANCH  10  18
ENDBRANCH  13  17
BRANCH   8   1
ATOM      1  S   UNL     1      -5.396 -11.580  17.212  0.00  0.00    +0.062 S 
ATOM      4  O   UNL     1      -4.646 -10.672  18.053  0.00  0.00    -0.153 OA
ATOM      5  O   UNL     1      -5.589 -12.963  17.594  0.00  0.00    -0.153 OA
BRANCH   1  22
ATOM      2  F   UNL     1     -10.708  -9.201  16.278  0.00  0.00    -0.205 F 
ATOM     22  C   UNL     1      -6.987 -10.867  16.933  0.00  0.00    +0.106 A 
ATOM     26  C   UNL     1      -7.236  -9.547  17.309  0.00  0.00    +0.031 A 
ATOM     27  C   UNL     1      -7.995 -11.624  16.335  0.00  0.00    +0.031 A 
ATOM     30  C   UNL     1      -8.493  -8.985  17.088  0.00  0.00    +0.040 A 
ATOM     31  C   UNL     1      -9.252 -11.061  16.114  0.00  0.00    +0.040 A 
ATOM     32  C   UNL     1      -9.500  -9.741  16.490  0.00  0.00    +0.124 A 
ENDBRANCH   1  22
ENDBRANCH   8   1
TORSDOF 6
ENDMDL
MODEL 10
REMARK VINA RESULT:      -6.8     28.019     30.165
REMARK  Name = 7675083
REMARK  6 active torsions:
REMARK  status: ('A' for Active; 'I' for Inactive)
REMARK    1  A    between atoms: S_1  and  N_8
REMARK    2  A    between atoms: S_1  and  C_22
REMARK    3  A    between atoms: N_10  and  C_18
REMARK    4  A    between atoms: C_13  and  C_17
REMARK    5  A    between atoms: C_21  and  C_25
REMARK    6  A    between atoms: C_35  and  C_36
REMARK                            x       y       z     vdW  Elec       q    Type
REMARK                         _______ _______ _______ _____ _____    ______ ____
ROOT
ATOM      6  O   UNL     1      -3.691 -14.377  14.763  0.00  0.00    -0.270 OA
ATOM      8  N   UNL     1      -6.544 -11.657  17.948  0.00  0.00    -0.162 NA
ATOM      9  N   UNL     1      -4.581 -12.664  16.083  0.00  0.00    -0.294 N 
ATOM     13  C   UNL     1      -6.550 -13.094  17.557  0.00  0.00    +0.183 C 
ATOM     14  C   UNL     1      -5.201 -13.583  17.037  0.00  0.00    +0.138 C 
ATOM     15  C   UNL     1      -5.242 -10.963  17.766  0.00  0.00    +0.129 C 
ATOM     16  C   UNL     1      -4.725 -11.230  16.360  0.00  0.00    +0.125 C 
ATOM     21  C   UNL     1      -3.831 -13.183  15.022  0.00  0.00    +0.247 C 
ENDROOT
BRANCH  21  25
ATOM     25  C   UNL     1      -3.144 -12.233  14.134  0.00  0.00    +0.037 A 
ATOM     28  C   UNL     1      -2.181 -11.364  14.651  0.00  0.00    +0.014 A 
ATOM     29  C   UNL     1      -3.453 -12.200  12.774  0.00  0.00    +0.014 A 
ATOM     33  C   UNL     1      -1.529 -10.465  13.808  0.00  0.00    +0.019 A 
ATOM     34  C   UNL     1      -2.802 -11.300  11.932  0.00  0.00    +0.019 A 
ATOM     35  C   UNL     1      -1.838 -10.433  12.449  0.00  0.00    +0.052 A 
BRANCH  35  36
ATOM     12  N   UNL     1      -0.628  -8.762  10.884  0.00  0.00    -0.191 NA
ATOM     36  C   UNL     1      -1.170  -9.511  11.585  0.00  0.00    +0.099 C 
ENDBRANCH  35  36
ENDBRANCH  21  25
BRANCH  13  17
ATOM      3  O   UNL     1      -8.104 -14.263  16.178  0.00  0.00    -0.274 OA
ATOM     10  N   UNL     1      -7.915 -11.952  15.959  0.00  0.00    -0.303 N 
ATOM     17  C   UNL     1      -7.607 -13.187  16.504  0.00  0.00    +0.234 C 
ATOM     37  H   UNL     1      -7.463 -11.121  16.330  0.00  0.00    +0.149 HD
BRANCH  10  18
ATOM      7  O   UNL     1      -7.332 -10.201  13.944  0.00  0.00    -0.274 OA
ATOM     11  N   UNL     1      -9.551  -9.835  13.540  0.00  0.00    -0.314 N 
ATOM     18  C   UNL     1      -8.887 -11.775  14.911  0.00  0.00    +0.159 C 
ATOM     19  C   UNL     1     -10.300 -11.756  15.477  0.00  0.00    +0.033 C 
ATOM     20  C   UNL     1     -11.286 -11.393  14.379  0.00  0.00    +0.021 C 
ATOM     23  C   UNL     1      -8.508 -10.522  14.128  0.00  0.00    +0.233 C 
ATOM     24  C   UNL     1     -10.956 -10.007  13.857  0.00  0.00    +0.104 C 
ATOM     38  H   UNL     1      -9.306  -9.032  12.968  0.00  0.00    +0.149 HD
ENDBRANCH  10  18
ENDBRANCH  13  17
BRANCH   8   1
ATOM      1  S   UNL     1      -7.436 -11.233  19.343  0.00  0.00    +0.062 S 
ATOM      4  O   UNL     1      -6.614 -10.401  20.195  0.00  0.00    -0.153 OA
ATOM      5  O   UNL     1      -8.087 -12.418  19.862  0.00  0.00    -0.153 OA
BRANCH   1  22
ATOM      2  F   UNL     1     -11.574  -7.804  16.923  0.00  0.00    -0.205 F 
ATOM     22  C   UNL     1      -8.675 -10.206  18.618  0.00  0.00    +0.106 A 
ATOM     26  C   UNL     1      -8.314  -9.219  17.701  0.00  0.00    +0.031 A 
ATOM     27  C   UNL     1     -10.016 -10.382  18.962  0.00  0.00    +0.031 A 
ATOM     30  C   UNL     1      -9.293  -8.407  17.129  0.00  0.00    +0.040 A 
ATOM     31  C   UNL     1     -10.995  -9.571  18.389  0.00  0.00    +0.040 A 
ATOM     32  C   UNL     1     -10.634  -8.583  17.472  0.00  0.00    +0.124 A 
ENDBRANCH   1  22
ENDBRANCH   8   1
TORSDOF 6
ENDMDL
