MODEL 1
REMARK VINA RESULT:      -7.4      0.000      0.000
REMARK  Name = 11885265
REMARK  3 active torsions:
REMARK  status: ('A' for Active; 'I' for Inactive)
REMARK    1  A    between atoms: C_13  and  C_14
REMARK    2  A    between atoms: C_22  and  C_24
REMARK    3  A    between atoms: C_25  and  C_26
REMARK                            x       y       z     vdW  Elec       q    Type
REMARK                         _______ _______ _______ _____ _____    ______ ____
ROOT
ATOM      2  O   UNL     1      10.620   3.778   4.120  0.00  0.00    -0.275 OA
ATOM      3  O   UNL     1      13.872   6.270   7.566  0.00  0.00    -0.267 OA
ATOM      4  N   UNL     1       9.761   5.853   4.716  0.00  0.00    -0.300 N 
ATOM      5  N   UNL     1      11.947   7.193   6.629  0.00  0.00    -0.311 N 
ATOM      6  C   UNL     1       9.600   6.316   7.165  0.00  0.00    +0.027 C 
ATOM      7  C   UNL     1       9.877   8.182   5.588  0.00  0.00    +0.054 C 
ATOM      8  C   UNL     1       9.151   7.738   6.856  0.00  0.00    +0.018 C 
ATOM      9  C   UNL     1       9.249   5.374   6.001  0.00  0.00    +0.113 C 
ATOM     10  C   UNL     1       9.476   7.265   4.416  0.00  0.00    +0.117 C 
ATOM     11  C   UNL     1      11.105   6.325   7.464  0.00  0.00    +0.130 C 
ATOM     12  C   UNL     1      11.381   8.146   5.778  0.00  0.00    +0.027 A 
ATOM     14  C   UNL     1      10.389   4.960   3.848  0.00  0.00    +0.219 C 
ATOM     17  C   UNL     1      12.168   9.005   5.113  0.00  0.00    +0.022 A 
ATOM     20  C   UNL     1      13.341   7.086   6.809  0.00  0.00    +0.259 A 
ATOM     22  C   UNL     1      14.200   8.044   6.027  0.00  0.00    +0.040 A 
ATOM     23  C   UNL     1      13.596   8.948   5.242  0.00  0.00    +0.015 A 
ENDROOT
BRANCH  14  13
ATOM     13  C   UNL     1      10.806   5.500   2.512  0.00  0.00    +0.075 C 
ATOM     15  C   UNL     1      12.309   5.786   2.511  0.00  0.00    +0.013 C 
ATOM     16  C   UNL     1      10.422   4.513   1.408  0.00  0.00    +0.013 C 
ATOM     18  C   UNL     1      12.794   6.249   1.140  0.00  0.00    +0.001 C 
ATOM     19  C   UNL     1      10.912   4.980   0.039  0.00  0.00    +0.001 C 
ATOM     21  C   UNL     1      12.411   5.261   0.043  0.00  0.00    +0.000 C 
ENDBRANCH  14  13
BRANCH  22  24
ATOM     24  C   UNL     1      15.634   7.983   6.142  0.00  0.00    +0.014 C 
ATOM     25  C   UNL     1      16.460   8.480   5.213  0.00  0.00    +0.008 C 
BRANCH  25  26
ATOM      1 CL   UNL     1      22.416   8.288   5.495  0.00  0.00    -0.084 Cl
ATOM     26  C   UNL     1      17.931   8.433   5.282  0.00  0.00    -0.025 A 
ATOM     27  C   UNL     1      18.651   8.031   4.169  0.00  0.00    +0.009 A 
ATOM     28  C   UNL     1      18.567   8.791   6.460  0.00  0.00    +0.009 A 
ATOM     29  C   UNL     1      20.044   7.986   4.235  0.00  0.00    +0.020 A 
ATOM     30  C   UNL     1      19.959   8.746   6.527  0.00  0.00    +0.020 A 
ATOM     31  C   UNL     1      20.698   8.344   5.414  0.00  0.00    +0.041 A 
ENDBRANCH  25  26
ENDBRANCH  22  24
TORSDOF 3
ENDMDL
MODEL 2
REMARK VINA RESULT:      -7.3     25.730     29.852
REMARK  Name = 11885265
REMARK  3 active torsions:
REMARK  status: ('A' for Active; 'I' for Inactive)
REMARK    1  A    between atoms: C_13  and  C_14
REMARK    2  A    between atoms: C_22  and  C_24
REMARK    3  A    between atoms: C_25  and  C_26
REMARK                            x       y       z     vdW  Elec       q    Type
REMARK                         _______ _______ _______ _____ _____    ______ ____
ROOT
ATOM      2  O   UNL     1      -4.439 -14.702  12.608  0.00  0.00    -0.275 OA
ATOM      3  O   UNL     1      -6.582  -9.997  13.995  0.00  0.00    -0.267 OA
ATOM      4  N   UNL     1      -2.782 -13.119  12.991  0.00  0.00    -0.300 N 
ATOM      5  N   UNL     1      -4.300 -10.474  13.956  0.00  0.00    -0.311 N 
ATOM      6  C   UNL     1      -3.032 -10.948  11.781  0.00  0.00    +0.027 C 
ATOM      7  C   UNL     1      -1.840 -11.015  13.931  0.00  0.00    +0.054 C 
ATOM      8  C   UNL     1      -1.824 -10.403  12.531  0.00  0.00    +0.018 C 
ATOM      9  C   UNL     1      -2.961 -12.482  11.686  0.00  0.00    +0.113 C 
ATOM     10  C   UNL     1      -1.713 -12.547  13.825  0.00  0.00    +0.117 C 
ATOM     11  C   UNL     1      -4.310 -10.475  12.486  0.00  0.00    +0.130 C 
ATOM     12  C   UNL     1      -3.113 -10.653  14.671  0.00  0.00    +0.027 A 
ATOM     14  C   UNL     1      -3.545 -14.239  13.323  0.00  0.00    +0.219 C 
ATOM     17  C   UNL     1      -3.109 -10.533  16.007  0.00  0.00    +0.022 A 
ATOM     20  C   UNL     1      -5.521 -10.180  14.597  0.00  0.00    +0.259 A 
ATOM     22  C   UNL     1      -5.491 -10.080  16.098  0.00  0.00    +0.040 A 
ATOM     23  C   UNL     1      -4.317 -10.244  16.725  0.00  0.00    +0.015 A 
ENDROOT
BRANCH  14  13
ATOM     13  C   UNL     1      -3.244 -14.893  14.638  0.00  0.00    +0.075 C 
ATOM     15  C   UNL     1      -4.542 -15.129  15.413  0.00  0.00    +0.013 C 
ATOM     16  C   UNL     1      -2.484 -16.201  14.408  0.00  0.00    +0.013 C 
ATOM     18  C   UNL     1      -4.291 -15.879  16.719  0.00  0.00    +0.001 C 
ATOM     19  C   UNL     1      -2.238 -16.949  15.716  0.00  0.00    +0.001 C 
ATOM     21  C   UNL     1      -3.536 -17.183  16.483  0.00  0.00    +0.000 C 
ENDBRANCH  14  13
BRANCH  22  24
ATOM     24  C   UNL     1      -6.703  -9.804  16.826  0.00  0.00    +0.014 C 
ATOM     25  C   UNL     1      -7.433 -10.760  17.413  0.00  0.00    +0.008 C 
BRANCH  25  26
ATOM      1 CL   UNL     1     -12.488  -9.818  20.436  0.00  0.00    -0.084 Cl
ATOM     26  C   UNL     1      -8.681 -10.527  18.159  0.00  0.00    -0.025 A 
ATOM     27  C   UNL     1      -9.624  -9.649  17.649  0.00  0.00    +0.009 A 
ATOM     28  C   UNL     1      -8.890 -11.191  19.357  0.00  0.00    +0.009 A 
ATOM     29  C   UNL     1     -10.806  -9.429  18.356  0.00  0.00    +0.020 A 
ATOM     30  C   UNL     1     -10.072 -10.971  20.065  0.00  0.00    +0.020 A 
ATOM     31  C   UNL     1     -11.030 -10.090  19.564  0.00  0.00    +0.041 A 
ENDBRANCH  25  26
ENDBRANCH  22  24
TORSDOF 3
ENDMDL
MODEL 3
REMARK VINA RESULT:      -7.0      3.620      7.664
REMARK  Name = 11885265
REMARK  3 active torsions:
REMARK  status: ('A' for Active; 'I' for Inactive)
REMARK    1  A    between atoms: C_13  and  C_14
REMARK    2  A    between atoms: C_22  and  C_24
REMARK    3  A    between atoms: C_25  and  C_26
REMARK                            x       y       z     vdW  Elec       q    Type
REMARK                         _______ _______ _______ _____ _____    ______ ____
ROOT
ATOM      2  O   UNL     1      12.234  10.335   5.374  0.00  0.00    -0.275 OA
ATOM      3  O   UNL     1       8.952   7.655   2.102  0.00  0.00    -0.267 OA
ATOM      4  N   UNL     1      11.144   8.628   6.512  0.00  0.00    -0.300 N 
ATOM      5  N   UNL     1       9.390   7.092   4.322  0.00  0.00    -0.311 N 
ATOM      6  C   UNL     1       8.657   8.566   6.284  0.00  0.00    +0.027 C 
ATOM      7  C   UNL     1       9.894   6.484   6.715  0.00  0.00    +0.054 C 
ATOM      8  C   UNL     1       8.628   7.262   7.071  0.00  0.00    +0.018 C 
ATOM      9  C   UNL     1       9.903   9.391   6.653  0.00  0.00    +0.113 C 
ATOM     10  C   UNL     1      11.134   7.296   7.137  0.00  0.00    +0.117 C 
ATOM     11  C   UNL     1       8.604   8.243   4.786  0.00  0.00    +0.130 C 
ATOM     12  C   UNL     1       9.954   6.190   5.228  0.00  0.00    +0.027 A 
ATOM     14  C   UNL     1      12.248   9.216   5.894  0.00  0.00    +0.219 C 
ATOM     17  C   UNL     1      10.568   5.084   4.781  0.00  0.00    +0.022 A 
ATOM     20  C   UNL     1       9.455   6.890   2.928  0.00  0.00    +0.259 A 
ATOM     22  C   UNL     1      10.176   5.656   2.456  0.00  0.00    +0.040 A 
ATOM     23  C   UNL     1      10.679   4.819   3.375  0.00  0.00    +0.015 A 
ENDROOT
BRANCH  14  13
ATOM     13  C   UNL     1      13.512   8.410   5.867  0.00  0.00    +0.075 C 
ATOM     15  C   UNL     1      13.704   7.785   4.483  0.00  0.00    +0.013 C 
ATOM     16  C   UNL     1      14.701   9.292   6.253  0.00  0.00    +0.013 C 
ATOM     18  C   UNL     1      15.027   7.032   4.383  0.00  0.00    +0.001 C 
ATOM     19  C   UNL     1      16.023   8.535   6.148  0.00  0.00    +0.001 C 
ATOM     21  C   UNL     1      16.210   7.916   4.766  0.00  0.00    +0.000 C 
ENDBRANCH  14  13
BRANCH  22  24
ATOM     24  C   UNL     1      10.302   5.391   1.046  0.00  0.00    +0.014 C 
ATOM     25  C   UNL     1      11.038   4.385   0.558  0.00  0.00    +0.008 C 
BRANCH  25  26
ATOM      1 CL   UNL     1      11.712   3.155  -5.240  0.00  0.00    -0.084 Cl
ATOM     26  C   UNL     1      11.205   4.081  -0.874  0.00  0.00    -0.025 A 
ATOM     27  C   UNL     1      12.185   3.186  -1.269  0.00  0.00    +0.009 A 
ATOM     28  C   UNL     1      10.377   4.696  -1.799  0.00  0.00    +0.009 A 
ATOM     29  C   UNL     1      12.343   2.898  -2.625  0.00  0.00    +0.020 A 
ATOM     30  C   UNL     1      10.534   4.410  -3.155  0.00  0.00    +0.020 A 
ATOM     31  C   UNL     1      11.517   3.510  -3.568  0.00  0.00    +0.041 A 
ENDBRANCH  25  26
ENDBRANCH  22  24
TORSDOF 3
ENDMDL
MODEL 4
REMARK VINA RESULT:      -6.9     32.045     34.346
REMARK  Name = 11885265
REMARK  3 active torsions:
REMARK  status: ('A' for Active; 'I' for Inactive)
REMARK    1  A    between atoms: C_13  and  C_14
REMARK    2  A    between atoms: C_22  and  C_24
REMARK    3  A    between atoms: C_25  and  C_26
REMARK                            x       y       z     vdW  Elec       q    Type
REMARK                         _______ _______ _______ _____ _____    ______ ____
ROOT
ATOM      2  O   UNL     1       8.247  -9.393  37.161  0.00  0.00    -0.275 OA
ATOM      3  O   UNL     1       9.393  -9.852  31.952  0.00  0.00    -0.267 OA
ATOM      4  N   UNL     1       8.044  -7.344  36.085  0.00  0.00    -0.300 N 
ATOM      5  N   UNL     1       8.612  -7.916  32.989  0.00  0.00    -0.311 N 
ATOM      6  C   UNL     1      10.001  -6.623  34.711  0.00  0.00    +0.027 C 
ATOM      7  C   UNL     1       7.745  -5.840  34.124  0.00  0.00    +0.054 C 
ATOM      8  C   UNL     1       9.208  -5.414  34.234  0.00  0.00    +0.018 C 
ATOM      9  C   UNL     1       9.487  -7.100  36.080  0.00  0.00    +0.113 C 
ATOM     10  C   UNL     1       7.225  -6.265  35.511  0.00  0.00    +0.117 C 
ATOM     11  C   UNL     1       9.913  -7.725  33.647  0.00  0.00    +0.130 C 
ATOM     12  C   UNL     1       7.582  -6.984  33.141  0.00  0.00    +0.027 A 
ATOM     14  C   UNL     1       7.542  -8.499  36.686  0.00  0.00    +0.219 C 
ATOM     17  C   UNL     1       6.446  -7.118  32.440  0.00  0.00    +0.022 A 
ATOM     20  C   UNL     1       8.497  -9.023  32.123  0.00  0.00    +0.259 A 
ATOM     22  C   UNL     1       7.200  -9.163  31.373  0.00  0.00    +0.040 A 
ATOM     23  C   UNL     1       6.257  -8.226  31.547  0.00  0.00    +0.015 A 
ENDROOT
BRANCH  14  13
ATOM     13  C   UNL     1       6.050  -8.638  36.735  0.00  0.00    +0.075 C 
ATOM     15  C   UNL     1       5.542  -9.275  35.439  0.00  0.00    +0.013 C 
ATOM     16  C   UNL     1       5.642  -9.459  37.960  0.00  0.00    +0.013 C 
ATOM     18  C   UNL     1       4.036  -9.521  35.484  0.00  0.00    +0.001 C 
ATOM     19  C   UNL     1       4.135  -9.704  37.999  0.00  0.00    +0.001 C 
ATOM     21  C   UNL     1       3.635 -10.342  36.706  0.00  0.00    +0.000 C 
ENDBRANCH  14  13
BRANCH  22  24
ATOM     24  C   UNL     1       6.999 -10.279  30.485  0.00  0.00    +0.014 C 
ATOM     25  C   UNL     1       6.532 -11.463  30.900  0.00  0.00    +0.008 C 
BRANCH  25  26
ATOM      1 CL   UNL     1       5.667 -16.206  27.386  0.00  0.00    -0.084 Cl
ATOM     26  C   UNL     1       6.319 -12.634  30.032  0.00  0.00    -0.025 A 
ATOM     27  C   UNL     1       7.303 -12.997  29.127  0.00  0.00    +0.009 A 
ATOM     28  C   UNL     1       5.138 -13.351  30.137  0.00  0.00    +0.009 A 
ATOM     29  C   UNL     1       7.101 -14.107  28.305  0.00  0.00    +0.020 A 
ATOM     30  C   UNL     1       4.935 -14.460  29.316  0.00  0.00    +0.020 A 
ATOM     31  C   UNL     1       5.917 -14.838  28.399  0.00  0.00    +0.041 A 
ENDBRANCH  25  26
ENDBRANCH  22  24
TORSDOF 3
ENDMDL
MODEL 5
REMARK VINA RESULT:      -6.8     24.429     27.087
REMARK  Name = 11885265
REMARK  3 active torsions:
REMARK  status: ('A' for Active; 'I' for Inactive)
REMARK    1  A    between atoms: C_13  and  C_14
REMARK    2  A    between atoms: C_22  and  C_24
REMARK    3  A    between atoms: C_25  and  C_26
REMARK                            x       y       z     vdW  Elec       q    Type
REMARK                         _______ _______ _______ _____ _____    ______ ____
ROOT
ATOM      2  O   UNL     1      20.099  -3.397  25.296  0.00  0.00    -0.275 OA
ATOM      3  O   UNL     1      17.951  -6.184  29.330  0.00  0.00    -0.267 OA
ATOM      4  N   UNL     1      19.705  -5.598  24.664  0.00  0.00    -0.300 N 
ATOM      5  N   UNL     1      18.282  -6.990  27.168  0.00  0.00    -0.311 N 
ATOM      6  C   UNL     1      20.617  -7.360  26.181  0.00  0.00    +0.027 C 
ATOM      7  C   UNL     1      18.625  -7.836  24.819  0.00  0.00    +0.054 C 
ATOM      8  C   UNL     1      19.936  -8.427  25.334  0.00  0.00    +0.018 C 
ATOM      9  C   UNL     1      20.900  -6.103  25.340  0.00  0.00    +0.113 C 
ATOM     10  C   UNL     1      18.924  -6.609  23.935  0.00  0.00    +0.117 C 
ATOM     11  C   UNL     1      19.733  -7.052  27.396  0.00  0.00    +0.130 C 
ATOM     12  C   UNL     1      17.720  -7.433  25.968  0.00  0.00    +0.027 A 
ATOM     14  C   UNL     1      19.431  -4.229  24.676  0.00  0.00    +0.219 C 
ATOM     17  C   UNL     1      16.386  -7.476  25.826  0.00  0.00    +0.022 A 
ATOM     20  C   UNL     1      17.489  -6.563  28.252  0.00  0.00    +0.259 A 
ATOM     22  C   UNL     1      15.997  -6.594  28.052  0.00  0.00    +0.040 A 
ATOM     23  C   UNL     1      15.518  -7.048  26.885  0.00  0.00    +0.015 A 
ENDROOT
BRANCH  14  13
ATOM     13  C   UNL     1      18.241  -3.774  23.886  0.00  0.00    +0.075 C 
ATOM     15  C   UNL     1      17.051  -3.545  24.820  0.00  0.00    +0.013 C 
ATOM     16  C   UNL     1      18.589  -2.507  23.102  0.00  0.00    +0.013 C 
ATOM     18  C   UNL     1      15.843  -2.990  24.070  0.00  0.00    +0.001 C 
ATOM     19  C   UNL     1      17.377  -1.954  22.356  0.00  0.00    +0.001 C 
ATOM     21  C   UNL     1      16.195  -1.726  23.292  0.00  0.00    +0.000 C 
ENDBRANCH  14  13
BRANCH  22  24
ATOM     24  C   UNL     1      15.121  -6.153  29.107  0.00  0.00    +0.014 C 
ATOM     25  C   UNL     1      14.187  -6.941  29.654  0.00  0.00    +0.008 C 
BRANCH  25  26
ATOM      1 CL   UNL     1      10.446  -5.286  33.996  0.00  0.00    -0.084 Cl
ATOM     26  C   UNL     1      13.263  -6.533  30.726  0.00  0.00    -0.025 A 
ATOM     27  C   UNL     1      12.182  -7.342  31.036  0.00  0.00    +0.009 A 
ATOM     28  C   UNL     1      13.493  -5.347  31.405  0.00  0.00    +0.009 A 
ATOM     29  C   UNL     1      11.307  -6.955  32.052  0.00  0.00    +0.020 A 
ATOM     30  C   UNL     1      12.619  -4.959  32.420  0.00  0.00    +0.020 A 
ATOM     31  C   UNL     1      11.525  -5.764  32.744  0.00  0.00    +0.041 A 
ENDBRANCH  25  26
ENDBRANCH  22  24
TORSDOF 3
ENDMDL
MODEL 6
REMARK VINA RESULT:      -6.7     24.152     26.815
REMARK  Name = 11885265
REMARK  3 active torsions:
REMARK  status: ('A' for Active; 'I' for Inactive)
REMARK    1  A    between atoms: C_13  and  C_14
REMARK    2  A    between atoms: C_22  and  C_24
REMARK    3  A    between atoms: C_25  and  C_26
REMARK                            x       y       z     vdW  Elec       q    Type
REMARK                         _______ _______ _______ _____ _____    ______ ____
ROOT
ATOM      2  O   UNL     1      19.695  -0.799  25.343  0.00  0.00    -0.275 OA
ATOM      3  O   UNL     1      18.937  -3.443  29.935  0.00  0.00    -0.267 OA
ATOM      4  N   UNL     1      20.719  -2.884  25.277  0.00  0.00    -0.300 N 
ATOM      5  N   UNL     1      19.985  -4.312  28.043  0.00  0.00    -0.311 N 
ATOM      6  C   UNL     1      22.232  -3.429  27.187  0.00  0.00    +0.027 C 
ATOM      7  C   UNL     1      21.092  -5.242  25.979  0.00  0.00    +0.054 C 
ATOM      8  C   UNL     1      22.413  -4.834  26.630  0.00  0.00    +0.018 C 
ATOM      9  C   UNL     1      21.873  -2.443  26.062  0.00  0.00    +0.113 C 
ATOM     10  C   UNL     1      20.770  -4.281  24.819  0.00  0.00    +0.117 C 
ATOM     11  C   UNL     1      21.160  -3.464  28.284  0.00  0.00    +0.130 C 
ATOM     12  C   UNL     1      19.960  -5.229  26.988  0.00  0.00    +0.027 A 
ATOM     14  C   UNL     1      19.719  -1.968  24.947  0.00  0.00    +0.219 C 
ATOM     17  C   UNL     1      18.926  -6.074  26.857  0.00  0.00    +0.022 A 
ATOM     20  C   UNL     1      18.938  -4.227  28.983  0.00  0.00    +0.259 A 
ATOM     22  C   UNL     1      17.778  -5.166  28.792  0.00  0.00    +0.040 A 
ATOM     23  C   UNL     1      17.821  -6.036  27.772  0.00  0.00    +0.015 A 
ENDROOT
BRANCH  14  13
ATOM     13  C   UNL     1      18.615  -2.466  24.064  0.00  0.00    +0.075 C 
ATOM     15  C   UNL     1      17.534  -3.143  24.911  0.00  0.00    +0.013 C 
ATOM     16  C   UNL     1      18.040  -1.309  23.244  0.00  0.00    +0.013 C 
ATOM     18  C   UNL     1      16.345  -3.583  24.061  0.00  0.00    +0.001 C 
ATOM     19  C   UNL     1      16.849  -1.753  22.398  0.00  0.00    +0.001 C 
ATOM     21  C   UNL     1      15.775  -2.425  23.248  0.00  0.00    +0.000 C 
ENDBRANCH  14  13
BRANCH  22  24
ATOM     24  C   UNL     1      16.661  -5.125  29.700  0.00  0.00    +0.014 C 
ATOM     25  C   UNL     1      15.531  -5.815  29.496  0.00  0.00    +0.008 C 
BRANCH  25  26
ATOM      1 CL   UNL     1      10.791  -5.741  33.117  0.00  0.00    -0.084 Cl
ATOM     26  C   UNL     1      14.361  -5.797  30.390  0.00  0.00    -0.025 A 
ATOM     27  C   UNL     1      13.349  -6.724  30.203  0.00  0.00    +0.009 A 
ATOM     28  C   UNL     1      14.294  -4.853  31.402  0.00  0.00    +0.009 A 
ATOM     29  C   UNL     1      12.240  -6.707  31.050  0.00  0.00    +0.020 A 
ATOM     30  C   UNL     1      13.186  -4.835  32.249  0.00  0.00    +0.020 A 
ATOM     31  C   UNL     1      12.159  -5.762  32.073  0.00  0.00    +0.041 A 
ENDBRANCH  25  26
ENDBRANCH  22  24
TORSDOF 3
ENDMDL
MODEL 7
REMARK VINA RESULT:      -6.6     25.338     27.832
REMARK  Name = 11885265
REMARK  3 active torsions:
REMARK  status: ('A' for Active; 'I' for Inactive)
REMARK    1  A    between atoms: C_13  and  C_14
REMARK    2  A    between atoms: C_22  and  C_24
REMARK    3  A    between atoms: C_25  and  C_26
REMARK                            x       y       z     vdW  Elec       q    Type
REMARK                         _______ _______ _______ _____ _____    ______ ____
ROOT
ATOM      2  O   UNL     1      -5.937 -13.772  14.711  0.00  0.00    -0.275 OA
ATOM      3  O   UNL     1      -4.296 -12.959   9.681  0.00  0.00    -0.267 OA
ATOM      4  N   UNL     1      -3.662 -13.308  14.648  0.00  0.00    -0.300 N 
ATOM      5  N   UNL     1      -2.972 -12.703  11.584  0.00  0.00    -0.311 N 
ATOM      6  C   UNL     1      -2.301 -14.681  13.067  0.00  0.00    +0.027 C 
ATOM      7  C   UNL     1      -1.565 -12.409  13.652  0.00  0.00    +0.054 C 
ATOM      8  C   UNL     1      -1.079 -13.835  13.400  0.00  0.00    +0.018 C 
ATOM      9  C   UNL     1      -3.303 -14.665  14.234  0.00  0.00    +0.113 C 
ATOM     10  C   UNL     1      -2.526 -12.397  14.857  0.00  0.00    +0.117 C 
ATOM     11  C   UNL     1      -2.925 -14.161  11.766  0.00  0.00    +0.130 C 
ATOM     12  C   UNL     1      -2.264 -11.846  12.430  0.00  0.00    +0.027 A 
ATOM     14  C   UNL     1      -4.999 -12.992  14.894  0.00  0.00    +0.219 C 
ATOM     17  C   UNL     1      -2.228 -10.529  12.175  0.00  0.00    +0.022 A 
ATOM     20  C   UNL     1      -3.677 -12.228  10.459  0.00  0.00    +0.259 A 
ATOM     22  C   UNL     1      -3.643 -10.743  10.216  0.00  0.00    +0.040 A 
ATOM     23  C   UNL     1      -2.930  -9.976  11.053  0.00  0.00    +0.015 A 
ENDROOT
BRANCH  14  13
ATOM     13  C   UNL     1      -5.281 -11.611  15.403  0.00  0.00    +0.075 C 
ATOM     15  C   UNL     1      -6.584 -11.086  14.795  0.00  0.00    +0.013 C 
ATOM     16  C   UNL     1      -5.342 -11.620  16.932  0.00  0.00    +0.013 C 
ATOM     18  C   UNL     1      -6.959  -9.718  15.358  0.00  0.00    +0.001 C 
ATOM     19  C   UNL     1      -5.720 -10.251  17.491  0.00  0.00    +0.001 C 
ATOM     21  C   UNL     1      -7.020  -9.734  16.883  0.00  0.00    +0.000 C 
ENDBRANCH  14  13
BRANCH  22  24
ATOM     24  C   UNL     1      -4.356 -10.180   9.099  0.00  0.00    +0.014 C 
ATOM     25  C   UNL     1      -5.629  -9.773   9.179  0.00  0.00    +0.008 C 
BRANCH  25  26
ATOM      1 CL   UNL     1      -8.757  -7.454   4.660  0.00  0.00    -0.084 Cl
ATOM     26  C   UNL     1      -6.401  -9.200   8.063  0.00  0.00    -0.025 A 
ATOM     27  C   UNL     1      -7.323  -8.198   8.319  0.00  0.00    +0.009 A 
ATOM     28  C   UNL     1      -6.192  -9.675   6.778  0.00  0.00    +0.009 A 
ATOM     29  C   UNL     1      -8.054  -7.655   7.262  0.00  0.00    +0.020 A 
ATOM     30  C   UNL     1      -6.924  -9.133   5.721  0.00  0.00    +0.020 A 
ATOM     31  C   UNL     1      -7.855  -8.123   5.963  0.00  0.00    +0.041 A 
ENDBRANCH  25  26
ENDBRANCH  22  24
TORSDOF 3
ENDMDL
MODEL 8
REMARK VINA RESULT:      -6.6     16.683     20.663
REMARK  Name = 11885265
REMARK  3 active torsions:
REMARK  status: ('A' for Active; 'I' for Inactive)
REMARK    1  A    between atoms: C_13  and  C_14
REMARK    2  A    between atoms: C_22  and  C_24
REMARK    3  A    between atoms: C_25  and  C_26
REMARK                            x       y       z     vdW  Elec       q    Type
REMARK                         _______ _______ _______ _____ _____    ______ ____
ROOT
ATOM      2  O   UNL     1      22.511   3.574  25.213  0.00  0.00    -0.275 OA
ATOM      3  O   UNL     1      20.170   3.879  20.408  0.00  0.00    -0.267 OA
ATOM      4  N   UNL     1      23.821   4.790  23.729  0.00  0.00    -0.300 N 
ATOM      5  N   UNL     1      22.142   4.965  21.013  0.00  0.00    -0.311 N 
ATOM      6  C   UNL     1      24.305   3.697  21.537  0.00  0.00    +0.027 C 
ATOM      7  C   UNL     1      24.259   6.150  21.691  0.00  0.00    +0.054 C 
ATOM      8  C   UNL     1      24.999   4.968  21.067  0.00  0.00    +0.018 C 
ATOM      9  C   UNL     1      24.347   3.593  23.071  0.00  0.00    +0.113 C 
ATOM     10  C   UNL     1      24.354   6.066  23.227  0.00  0.00    +0.117 C 
ATOM     11  C   UNL     1      22.868   3.687  20.999  0.00  0.00    +0.130 C 
ATOM     12  C   UNL     1      22.803   6.170  21.266  0.00  0.00    +0.027 A 
ATOM     14  C   UNL     1      22.946   4.655  24.808  0.00  0.00    +0.219 C 
ATOM     17  C   UNL     1      22.144   7.333  21.159  0.00  0.00    +0.022 A 
ATOM     20  C   UNL     1      20.778   4.922  20.657  0.00  0.00    +0.259 A 
ATOM     22  C   UNL     1      20.059   6.241  20.574  0.00  0.00    +0.040 A 
ATOM     23  C   UNL     1      20.753   7.364  20.810  0.00  0.00    +0.015 A 
ENDROOT
BRANCH  14  13
ATOM     13  C   UNL     1      22.521   5.920  25.491  0.00  0.00    +0.075 C 
ATOM     15  C   UNL     1      21.361   6.562  24.726  0.00  0.00    +0.013 C 
ATOM     16  C   UNL     1      22.139   5.626  26.944  0.00  0.00    +0.013 C 
ATOM     18  C   UNL     1      20.834   7.804  25.440  0.00  0.00    +0.001 C 
ATOM     19  C   UNL     1      21.610   6.871  27.652  0.00  0.00    +0.001 C 
ATOM     21  C   UNL     1      20.453   7.504  26.886  0.00  0.00    +0.000 C 
ENDBRANCH  14  13
BRANCH  22  24
ATOM     24  C   UNL     1      18.659   6.277  20.237  0.00  0.00    +0.014 C 
ATOM     25  C   UNL     1      17.769   7.021  20.905  0.00  0.00    +0.008 C 
BRANCH  25  26
ATOM      1 CL   UNL     1      11.935   7.272  19.683  0.00  0.00    -0.084 Cl
ATOM     26  C   UNL     1      16.328   7.084  20.603  0.00  0.00    -0.025 A 
ATOM     27  C   UNL     1      15.429   7.328  21.629  0.00  0.00    +0.009 A 
ATOM     28  C   UNL     1      15.899   6.896  19.300  0.00  0.00    +0.009 A 
ATOM     29  C   UNL     1      14.065   7.387  21.343  0.00  0.00    +0.020 A 
ATOM     30  C   UNL     1      14.535   6.954  19.013  0.00  0.00    +0.020 A 
ATOM     31  C   UNL     1      13.618   7.200  20.035  0.00  0.00    +0.041 A 
ENDBRANCH  25  26
ENDBRANCH  22  24
TORSDOF 3
ENDMDL
MODEL 9
REMARK VINA RESULT:      -6.4     26.382     29.384
REMARK  Name = 11885265
REMARK  3 active torsions:
REMARK  status: ('A' for Active; 'I' for Inactive)
REMARK    1  A    between atoms: C_13  and  C_14
REMARK    2  A    between atoms: C_22  and  C_24
REMARK    3  A    between atoms: C_25  and  C_26
REMARK                            x       y       z     vdW  Elec       q    Type
REMARK                         _______ _______ _______ _____ _____    ______ ____
ROOT
ATOM      2  O   UNL     1      -9.635 -12.258  17.873  0.00  0.00    -0.275 OA
ATOM      3  O   UNL     1      -5.797 -13.430  14.330  0.00  0.00    -0.267 OA
ATOM      4  N   UNL     1      -7.598 -11.353  18.529  0.00  0.00    -0.300 N 
ATOM      5  N   UNL     1      -5.533 -12.046  16.187  0.00  0.00    -0.311 N 
ATOM      6  C   UNL     1      -5.661 -12.928  18.588  0.00  0.00    +0.027 C 
ATOM      7  C   UNL     1      -5.273 -10.534  18.185  0.00  0.00    +0.054 C 
ATOM      8  C   UNL     1      -4.737 -11.763  18.917  0.00  0.00    +0.018 C 
ATOM      9  C   UNL     1      -7.097 -12.625  19.051  0.00  0.00    +0.113 C 
ATOM     10  C   UNL     1      -6.690 -10.208  18.695  0.00  0.00    +0.117 C 
ATOM     11  C   UNL     1      -5.589 -13.210  17.082  0.00  0.00    +0.130 C 
ATOM     12  C   UNL     1      -5.305 -10.761  16.686  0.00  0.00    +0.027 A 
ATOM     14  C   UNL     1      -8.889 -11.284  18.004  0.00  0.00    +0.219 C 
ATOM     17  C   UNL     1      -5.142  -9.731  15.842  0.00  0.00    +0.022 A 
ATOM     20  C   UNL     1      -5.616 -12.306  14.804  0.00  0.00    +0.259 A 
ATOM     22  C   UNL     1      -5.459 -11.126  13.883  0.00  0.00    +0.040 A 
ATOM     23  C   UNL     1      -5.223  -9.922  14.422  0.00  0.00    +0.015 A 
ENDROOT
BRANCH  14  13
ATOM     13  C   UNL     1      -9.369  -9.930  17.574  0.00  0.00    +0.075 C 
ATOM     15  C   UNL     1      -9.147  -9.751  16.071  0.00  0.00    +0.013 C 
ATOM     16  C   UNL     1     -10.842  -9.756  17.947  0.00  0.00    +0.013 C 
ATOM     18  C   UNL     1      -9.707  -8.422  15.572  0.00  0.00    +0.001 C 
ATOM     19  C   UNL     1     -11.399  -8.426  17.444  0.00  0.00    +0.001 C 
ATOM     21  C   UNL     1     -11.177  -8.254  15.945  0.00  0.00    +0.000 C 
ENDBRANCH  14  13
BRANCH  22  24
ATOM     24  C   UNL     1      -5.552 -11.309  12.457  0.00  0.00    +0.014 C 
ATOM     25  C   UNL     1      -4.657 -10.805  11.599  0.00  0.00    +0.008 C 
BRANCH  25  26
ATOM      1 CL   UNL     1      -4.892 -11.421   5.670  0.00  0.00    -0.084 Cl
ATOM     26  C   UNL     1      -4.715 -10.958  10.135  0.00  0.00    -0.025 A 
ATOM     27  C   UNL     1      -4.408 -12.183   9.567  0.00  0.00    +0.009 A 
ATOM     28  C   UNL     1      -5.076  -9.872   9.353  0.00  0.00    +0.009 A 
ATOM     29  C   UNL     1      -4.463 -12.327   8.180  0.00  0.00    +0.020 A 
ATOM     30  C   UNL     1      -5.131 -10.015   7.967  0.00  0.00    +0.020 A 
ATOM     31  C   UNL     1      -4.824 -11.244   7.380  0.00  0.00    +0.041 A 
ENDBRANCH  25  26
ENDBRANCH  22  24
TORSDOF 3
ENDMDL
MODEL 10
REMARK VINA RESULT:      -6.4     35.271     39.150
REMARK  Name = 11885265
REMARK  3 active torsions:
REMARK  status: ('A' for Active; 'I' for Inactive)
REMARK    1  A    between atoms: C_13  and  C_14
REMARK    2  A    between atoms: C_22  and  C_24
REMARK    3  A    between atoms: C_25  and  C_26
REMARK                            x       y       z     vdW  Elec       q    Type
REMARK                         _______ _______ _______ _____ _____    ______ ____
ROOT
ATOM      2  O   UNL     1     -15.098  12.530  30.170  0.00  0.00    -0.275 OA
ATOM      3  O   UNL     1     -16.231   8.137  33.011  0.00  0.00    -0.267 OA
ATOM      4  N   UNL     1     -13.870  12.480  32.141  0.00  0.00    -0.300 N 
ATOM      5  N   UNL     1     -14.597   9.707  33.560  0.00  0.00    -0.311 N 
ATOM      6  C   UNL     1     -15.172  12.109  34.240  0.00  0.00    +0.027 C 
ATOM      7  C   UNL     1     -12.820  11.401  34.124  0.00  0.00    +0.054 C 
ATOM      8  C   UNL     1     -13.869  12.049  35.026  0.00  0.00    +0.018 C 
ATOM      9  C   UNL     1     -14.992  12.942  32.959  0.00  0.00    +0.113 C 
ATOM     10  C   UNL     1     -12.609  12.272  32.869  0.00  0.00    +0.117 C 
ATOM     11  C   UNL     1     -15.634  10.678  33.936  0.00  0.00    +0.130 C 
ATOM     12  C   UNL     1     -13.240  10.003  33.714  0.00  0.00    +0.027 A 
ATOM     14  C   UNL     1     -14.030  12.351  30.761  0.00  0.00    +0.219 C 
ATOM     17  C   UNL     1     -12.316   9.060  33.475  0.00  0.00    +0.022 A 
ATOM     20  C   UNL     1     -15.042   8.437  33.139  0.00  0.00    +0.259 A 
ATOM     22  C   UNL     1     -13.980   7.410  32.850  0.00  0.00    +0.040 A 
ATOM     23  C   UNL     1     -12.696   7.749  33.035  0.00  0.00    +0.015 A 
ENDROOT
BRANCH  14  13
ATOM     13  C   UNL     1     -12.813  11.963  29.976  0.00  0.00    +0.075 C 
ATOM     15  C   UNL     1     -12.718  10.438  29.881  0.00  0.00    +0.013 C 
ATOM     16  C   UNL     1     -12.858  12.608  28.590  0.00  0.00    +0.013 C 
ATOM     18  C   UNL     1     -11.543  10.000  29.011  0.00  0.00    +0.001 C 
ATOM     19  C   UNL     1     -11.683  12.164  27.722  0.00  0.00    +0.001 C 
ATOM     21  C   UNL     1     -11.595  10.644  27.629  0.00  0.00    +0.000 C 
ENDBRANCH  14  13
BRANCH  22  24
ATOM     24  C   UNL     1     -14.355   6.096  32.395  0.00  0.00    +0.014 C 
ATOM     25  C   UNL     1     -13.755   4.979  32.825  0.00  0.00    +0.008 C 
BRANCH  25  26
ATOM      1 CL   UNL     1     -15.142  -0.541  31.038  0.00  0.00    -0.084 Cl
ATOM     26  C   UNL     1     -14.097   3.616  32.383  0.00  0.00    -0.025 A 
ATOM     27  C   UNL     1     -13.986   3.288  31.042  0.00  0.00    +0.009 A 
ATOM     28  C   UNL     1     -14.525   2.687  33.318  0.00  0.00    +0.009 A 
ATOM     29  C   UNL     1     -14.310   1.997  30.624  0.00  0.00    +0.020 A 
ATOM     30  C   UNL     1     -14.850   1.396  32.901  0.00  0.00    +0.020 A 
ATOM     31  C   UNL     1     -14.742   1.051  31.554  0.00  0.00    +0.041 A 
ENDBRANCH  25  26
ENDBRANCH  22  24
TORSDOF 3
ENDMDL
