MODEL 1
REMARK VINA RESULT:      -6.7      0.000      0.000
REMARK  Name = 40777896
REMARK  12 active torsions:
REMARK  status: ('A' for Active; 'I' for Inactive)
REMARK    1  A    between atoms: O_2  and  C_11
REMARK    2  A    between atoms: O_3  and  C_12
REMARK    3  A    between atoms: O_4  and  C_21
REMARK    4  A    between atoms: O_4  and  C_23
REMARK    5  A    between atoms: N_8  and  C_20
REMARK    6  A    between atoms: N_9  and  C_24
REMARK    7  A    between atoms: C_10  and  C_15
REMARK    8  A    between atoms: C_13  and  C_20
REMARK    9  A    between atoms: C_14  and  C_21
REMARK   10  A    between atoms: C_15  and  C_19
REMARK   11  A    between atoms: C_24  and  C_25
REMARK   12  A    between atoms: C_24  and  C_26
REMARK                            x       y       z     vdW  Elec       q    Type
REMARK                         _______ _______ _______ _____ _____    ______ ____
ROOT
ATOM      1  O   UNL     1      11.164   8.869  20.074  0.00  0.00    -0.366 OA
ATOM     10  C   UNL     1      11.686   7.531  19.990  0.00  0.00    +0.159 C 
ATOM     11  C   UNL     1      12.002   7.122  21.419  0.00  0.00    +0.175 C 
ATOM     12  C   UNL     1      10.887   7.803  22.183  0.00  0.00    +0.176 C 
ATOM     13  C   UNL     1      10.752   9.126  21.436  0.00  0.00    +0.167 C 
ENDROOT
BRANCH  11   2
ATOM      2  O   UNL     1      12.013   5.719  21.578  0.00  0.00    -0.387 OA
ATOM     27  H   UNL     1      11.196   5.473  22.044  0.00  0.00    +0.210 HD
ENDBRANCH  11   2
BRANCH  12   3
ATOM      3  O   UNL     1       9.666   7.082  22.027  0.00  0.00    -0.387 OA
ATOM     28  H   UNL     1       8.945   7.661  22.328  0.00  0.00    +0.210 HD
ENDBRANCH  12   3
BRANCH  10  15
ATOM     15  C   UNL     1      12.898   7.511  19.075  0.00  0.00    +0.130 C 
BRANCH  15  19
ATOM      5  O   UNL     1      13.725   9.716  19.421  0.00  0.00    -0.276 OA
ATOM      7  N   UNL     1      15.054   7.965  20.141  0.00  0.00    -0.296 N 
ATOM     14  C   UNL     1      16.188   8.784  20.574  0.00  0.00    +0.102 C 
ATOM     16  C   UNL     1      17.328   7.775  20.728  0.00  0.00    +0.026 C 
ATOM     17  C   UNL     1      15.330   6.542  20.321  0.00  0.00    +0.108 C 
ATOM     18  C   UNL     1      16.613   6.493  21.138  0.00  0.00    +0.021 C 
ATOM     19  C   UNL     1      13.922   8.508  19.555  0.00  0.00    +0.218 C 
BRANCH  14  21
ATOM     21  C   UNL     1      15.884   9.513  21.882  0.00  0.00    +0.181 C 
BRANCH  21   4
ATOM      4  O   UNL     1      16.664  10.693  21.929  0.00  0.00    -0.381 OA
ATOM     23  C   UNL     1      16.561  11.443  20.724  0.00  0.00    +0.194 C 
ENDBRANCH  21   4
ENDBRANCH  14  21
ENDBRANCH  15  19
ENDBRANCH  10  15
BRANCH  13  20
ATOM     20  C   UNL     1      11.650  10.221  21.995  0.00  0.00    +0.140 C 
BRANCH  20   8
ATOM      6  O   UNL     1      11.421  13.008  21.284  0.00  0.00    -0.253 OA
ATOM      8  N   UNL     1      10.883  11.225  22.673  0.00  0.00    -0.297 N 
ATOM      9  N   UNL     1      10.007  13.318  23.098  0.00  0.00    -0.297 N 
ATOM     22  C   UNL     1      10.824  12.560  22.263  0.00  0.00    +0.300 C 
ATOM     29  H   UNL     1      10.346  10.947  23.488  0.00  0.00    +0.150 HD
ATOM     30  H   UNL     1       9.497  12.842  23.836  0.00  0.00    +0.150 HD
BRANCH   9  24
ATOM     24  C   UNL     1       9.776  14.729  22.897  0.00  0.00    +0.068 C 
ATOM     25  C   UNL     1       9.985  15.491  24.198  0.00  0.00    +0.027 C 
ATOM     26  C   UNL     1       8.378  14.966  22.336  0.00  0.00    +0.027 C 
ENDBRANCH   9  24
ENDBRANCH  20   8
ENDBRANCH  13  20
TORSDOF 9
ENDMDL
MODEL 2
REMARK VINA RESULT:      -6.7      3.031      4.178
REMARK  Name = 40777896
REMARK  12 active torsions:
REMARK  status: ('A' for Active; 'I' for Inactive)
REMARK    1  A    between atoms: O_2  and  C_11
REMARK    2  A    between atoms: O_3  and  C_12
REMARK    3  A    between atoms: O_4  and  C_21
REMARK    4  A    between atoms: O_4  and  C_23
REMARK    5  A    between atoms: N_8  and  C_20
REMARK    6  A    between atoms: N_9  and  C_24
REMARK    7  A    between atoms: C_10  and  C_15
REMARK    8  A    between atoms: C_13  and  C_20
REMARK    9  A    between atoms: C_14  and  C_21
REMARK   10  A    between atoms: C_15  and  C_19
REMARK   11  A    between atoms: C_24  and  C_25
REMARK   12  A    between atoms: C_24  and  C_26
REMARK                            x       y       z     vdW  Elec       q    Type
REMARK                         _______ _______ _______ _____ _____    ______ ____
ROOT
ATOM      1  O   UNL     1      10.746   8.400  20.352  0.00  0.00    -0.366 OA
ATOM     10  C   UNL     1      12.009   8.138  19.712  0.00  0.00    +0.159 C 
ATOM     11  C   UNL     1      12.798   7.288  20.693  0.00  0.00    +0.175 C 
ATOM     12  C   UNL     1      11.703   6.446  21.314  0.00  0.00    +0.176 C 
ATOM     13  C   UNL     1      10.556   7.446  21.420  0.00  0.00    +0.167 C 
ENDROOT
BRANCH  11   2
ATOM      2  O   UNL     1      13.794   6.523  20.049  0.00  0.00    -0.387 OA
ATOM     27  H   UNL     1      13.482   6.342  19.146  0.00  0.00    +0.210 HD
ENDBRANCH  11   2
BRANCH  12   3
ATOM      3  O   UNL     1      11.305   5.411  20.418  0.00  0.00    -0.387 OA
ATOM     28  H   UNL     1      10.420   5.114  20.691  0.00  0.00    +0.210 HD
ENDBRANCH  12   3
BRANCH  10  15
ATOM     15  C   UNL     1      12.690   9.451  19.368  0.00  0.00    +0.130 C 
BRANCH  15  19
ATOM      5  O   UNL     1      13.253   8.320  17.350  0.00  0.00    -0.276 OA
ATOM      7  N   UNL     1      13.817  10.560  17.499  0.00  0.00    -0.296 N 
ATOM     14  C   UNL     1      14.513  10.641  16.213  0.00  0.00    +0.102 C 
ATOM     16  C   UNL     1      15.293  11.955  16.304  0.00  0.00    +0.026 C 
ATOM     17  C   UNL     1      13.868  11.834  18.210  0.00  0.00    +0.108 C 
ATOM     18  C   UNL     1      14.415  12.826  17.195  0.00  0.00    +0.021 C 
ATOM     19  C   UNL     1      13.277   9.378  17.981  0.00  0.00    +0.218 C 
BRANCH  14  21
ATOM     21  C   UNL     1      13.528  10.637  15.044  0.00  0.00    +0.181 C 
BRANCH  21   4
ATOM      4  O   UNL     1      14.056  11.448  14.011  0.00  0.00    -0.381 OA
ATOM     23  C   UNL     1      13.070  12.319  13.469  0.00  0.00    +0.194 C 
ENDBRANCH  21   4
ENDBRANCH  14  21
ENDBRANCH  15  19
ENDBRANCH  10  15
BRANCH  13  20
ATOM     20  C   UNL     1      10.554   8.214  22.735  0.00  0.00    +0.140 C 
BRANCH  20   8
ATOM      6  O   UNL     1      12.409  10.421  22.838  0.00  0.00    -0.253 OA
ATOM      8  N   UNL     1      10.259   9.601  22.525  0.00  0.00    -0.297 N 
ATOM      9  N   UNL     1      10.661  11.867  22.348  0.00  0.00    -0.297 N 
ATOM     22  C   UNL     1      11.219  10.614  22.593  0.00  0.00    +0.300 C 
ATOM     29  H   UNL     1       9.301   9.858  22.306  0.00  0.00    +0.150 HD
ATOM     30  H   UNL     1       9.684  11.915  22.080  0.00  0.00    +0.150 HD
BRANCH   9  24
ATOM     24  C   UNL     1      11.438  13.085  22.359  0.00  0.00    +0.068 C 
ATOM     25  C   UNL     1      10.673  14.193  23.070  0.00  0.00    +0.027 C 
ATOM     26  C   UNL     1      11.810  13.493  20.939  0.00  0.00    +0.027 C 
ENDBRANCH   9  24
ENDBRANCH  20   8
ENDBRANCH  13  20
TORSDOF 9
ENDMDL
MODEL 3
REMARK VINA RESULT:      -6.2     16.146     18.153
REMARK  Name = 40777896
REMARK  12 active torsions:
REMARK  status: ('A' for Active; 'I' for Inactive)
REMARK    1  A    between atoms: O_2  and  C_11
REMARK    2  A    between atoms: O_3  and  C_12
REMARK    3  A    between atoms: O_4  and  C_21
REMARK    4  A    between atoms: O_4  and  C_23
REMARK    5  A    between atoms: N_8  and  C_20
REMARK    6  A    between atoms: N_9  and  C_24
REMARK    7  A    between atoms: C_10  and  C_15
REMARK    8  A    between atoms: C_13  and  C_20
REMARK    9  A    between atoms: C_14  and  C_21
REMARK   10  A    between atoms: C_15  and  C_19
REMARK   11  A    between atoms: C_24  and  C_25
REMARK   12  A    between atoms: C_24  and  C_26
REMARK                            x       y       z     vdW  Elec       q    Type
REMARK                         _______ _______ _______ _____ _____    ______ ____
ROOT
ATOM      1  O   UNL     1       9.272   5.792   6.083  0.00  0.00    -0.366 OA
ATOM     10  C   UNL     1      10.584   5.742   5.492  0.00  0.00    +0.159 C 
ATOM     11  C   UNL     1      11.460   6.627   6.362  0.00  0.00    +0.175 C 
ATOM     12  C   UNL     1      10.881   6.368   7.737  0.00  0.00    +0.176 C 
ATOM     13  C   UNL     1       9.389   6.274   7.440  0.00  0.00    +0.167 C 
ENDROOT
BRANCH  11   2
ATOM      2  O   UNL     1      12.826   6.285   6.257  0.00  0.00    -0.387 OA
ATOM     27  H   UNL     1      12.889   5.317   6.320  0.00  0.00    +0.210 HD
ENDBRANCH  11   2
BRANCH  12   3
ATOM      3  O   UNL     1      11.316   5.101   8.228  0.00  0.00    -0.387 OA
ATOM     28  H   UNL     1      10.789   4.900   9.020  0.00  0.00    +0.210 HD
ENDBRANCH  12   3
BRANCH  10  15
ATOM     15  C   UNL     1      10.511   6.201   4.046  0.00  0.00    +0.130 C 
BRANCH  15  19
ATOM      5  O   UNL     1      10.726   4.080   2.985  0.00  0.00    -0.276 OA
ATOM      7  N   UNL     1      12.378   5.645   2.563  0.00  0.00    -0.296 N 
ATOM     14  C   UNL     1      13.226   4.774   1.747  0.00  0.00    +0.102 C 
ATOM     16  C   UNL     1      14.563   5.519   1.690  0.00  0.00    +0.026 C 
ATOM     17  C   UNL     1      12.982   6.964   2.734  0.00  0.00    +0.108 C 
ATOM     18  C   UNL     1      14.154   6.985   1.765  0.00  0.00    +0.021 C 
ATOM     19  C   UNL     1      11.205   5.203   3.154  0.00  0.00    +0.218 C 
BRANCH  14  21
ATOM     21  C   UNL     1      12.630   4.556   0.357  0.00  0.00    +0.181 C 
BRANCH  21   4
ATOM      4  O   UNL     1      12.908   3.228  -0.046  0.00  0.00    -0.381 OA
ATOM     23  C   UNL     1      12.534   2.999  -1.400  0.00  0.00    +0.194 C 
ENDBRANCH  21   4
ENDBRANCH  14  21
ENDBRANCH  15  19
ENDBRANCH  10  15
BRANCH  13  20
ATOM     20  C   UNL     1       8.678   7.618   7.519  0.00  0.00    +0.140 C 
BRANCH  20   8
ATOM      6  O   UNL     1       9.134   9.521   5.399  0.00  0.00    -0.253 OA
ATOM      8  N   UNL     1       7.857   7.839   6.366  0.00  0.00    -0.297 N 
ATOM      9  N   UNL     1       7.186   8.790   4.372  0.00  0.00    -0.297 N 
ATOM     22  C   UNL     1       8.148   8.785   5.379  0.00  0.00    +0.300 C 
ATOM     29  H   UNL     1       7.023   7.270   6.256  0.00  0.00    +0.150 HD
ATOM     30  H   UNL     1       6.449   8.093   4.406  0.00  0.00    +0.150 HD
BRANCH   9  24
ATOM     24  C   UNL     1       7.249   9.676   3.233  0.00  0.00    +0.068 C 
ATOM     25  C   UNL     1       5.848  10.088   2.804  0.00  0.00    +0.027 C 
ATOM     26  C   UNL     1       8.007   9.016   2.086  0.00  0.00    +0.027 C 
ENDBRANCH   9  24
ENDBRANCH  20   8
ENDBRANCH  13  20
TORSDOF 9
ENDMDL
MODEL 4
REMARK VINA RESULT:      -6.2     15.718     18.578
REMARK  Name = 40777896
REMARK  12 active torsions:
REMARK  status: ('A' for Active; 'I' for Inactive)
REMARK    1  A    between atoms: O_2  and  C_11
REMARK    2  A    between atoms: O_3  and  C_12
REMARK    3  A    between atoms: O_4  and  C_21
REMARK    4  A    between atoms: O_4  and  C_23
REMARK    5  A    between atoms: N_8  and  C_20
REMARK    6  A    between atoms: N_9  and  C_24
REMARK    7  A    between atoms: C_10  and  C_15
REMARK    8  A    between atoms: C_13  and  C_20
REMARK    9  A    between atoms: C_14  and  C_21
REMARK   10  A    between atoms: C_15  and  C_19
REMARK   11  A    between atoms: C_24  and  C_25
REMARK   12  A    between atoms: C_24  and  C_26
REMARK                            x       y       z     vdW  Elec       q    Type
REMARK                         _______ _______ _______ _____ _____    ______ ____
ROOT
ATOM      1  O   UNL     1      12.289   4.261   2.561  0.00  0.00    -0.366 OA
ATOM     10  C   UNL     1      11.178   5.164   2.706  0.00  0.00    +0.159 C 
ATOM     11  C   UNL     1      11.116   5.951   1.408  0.00  0.00    +0.175 C 
ATOM     12  C   UNL     1      11.537   4.904   0.398  0.00  0.00    +0.176 C 
ATOM     13  C   UNL     1      12.619   4.146   1.159  0.00  0.00    +0.167 C 
ENDROOT
BRANCH  11   2
ATOM      2  O   UNL     1       9.827   6.474   1.166  0.00  0.00    -0.387 OA
ATOM     27  H   UNL     1       9.694   7.214   1.783  0.00  0.00    +0.210 HD
ENDBRANCH  11   2
BRANCH  12   3
ATOM      3  O   UNL     1      10.462   4.001   0.143  0.00  0.00    -0.387 OA
ATOM     28  H   UNL     1      10.222   4.092  -0.795  0.00  0.00    +0.210 HD
ENDBRANCH  12   3
BRANCH  10  15
ATOM     15  C   UNL     1      11.384   6.037   3.931  0.00  0.00    +0.130 C 
BRANCH  15  19
ATOM      5  O   UNL     1      10.241   4.312   5.108  0.00  0.00    -0.276 OA
ATOM      7  N   UNL     1      10.292   6.406   6.091  0.00  0.00    -0.296 N 
ATOM     14  C   UNL     1       9.446   6.072   7.238  0.00  0.00    +0.102 C 
ATOM     16  C   UNL     1       9.047   7.437   7.806  0.00  0.00    +0.026 C 
ATOM     17  C   UNL     1      10.679   7.815   6.110  0.00  0.00    +0.108 C 
ATOM     18  C   UNL     1      10.246   8.319   7.479  0.00  0.00    +0.021 C 
ATOM     19  C   UNL     1      10.586   5.494   5.090  0.00  0.00    +0.218 C 
BRANCH  14  21
ATOM     21  C   UNL     1      10.200   5.222   8.260  0.00  0.00    +0.181 C 
BRANCH  21   4
ATOM      4  O   UNL     1       9.296   4.285   8.817  0.00  0.00    -0.381 OA
ATOM     23  C   UNL     1       9.017   4.570  10.182  0.00  0.00    +0.194 C 
ENDBRANCH  21   4
ENDBRANCH  14  21
ENDBRANCH  15  19
ENDBRANCH  10  15
BRANCH  13  20
ATOM     20  C   UNL     1      14.010   4.733   0.959  0.00  0.00    +0.140 C 
BRANCH  20   8
ATOM      6  O   UNL     1      14.449   7.400   1.968  0.00  0.00    -0.253 OA
ATOM      8  N   UNL     1      14.605   5.095   2.212  0.00  0.00    -0.297 N 
ATOM      9  N   UNL     1      15.383   6.483   3.884  0.00  0.00    -0.297 N 
ATOM     22  C   UNL     1      14.783   6.417   2.629  0.00  0.00    +0.300 C 
ATOM     29  H   UNL     1      14.904   4.350   2.833  0.00  0.00    +0.150 HD
ATOM     30  H   UNL     1      15.553   5.616   4.384  0.00  0.00    +0.150 HD
BRANCH   9  24
ATOM     24  C   UNL     1      15.680   7.733   4.545  0.00  0.00    +0.068 C 
ATOM     25  C   UNL     1      17.164   8.051   4.433  0.00  0.00    +0.027 C 
ATOM     26  C   UNL     1      15.234   7.685   6.002  0.00  0.00    +0.027 C 
ENDBRANCH   9  24
ENDBRANCH  20   8
ENDBRANCH  13  20
TORSDOF 9
ENDMDL
MODEL 5
REMARK VINA RESULT:      -6.2     25.902     28.450
REMARK  Name = 40777896
REMARK  12 active torsions:
REMARK  status: ('A' for Active; 'I' for Inactive)
REMARK    1  A    between atoms: O_2  and  C_11
REMARK    2  A    between atoms: O_3  and  C_12
REMARK    3  A    between atoms: O_4  and  C_21
REMARK    4  A    between atoms: O_4  and  C_23
REMARK    5  A    between atoms: N_8  and  C_20
REMARK    6  A    between atoms: N_9  and  C_24
REMARK    7  A    between atoms: C_10  and  C_15
REMARK    8  A    between atoms: C_13  and  C_20
REMARK    9  A    between atoms: C_14  and  C_21
REMARK   10  A    between atoms: C_15  and  C_19
REMARK   11  A    between atoms: C_24  and  C_25
REMARK   12  A    between atoms: C_24  and  C_26
REMARK                            x       y       z     vdW  Elec       q    Type
REMARK                         _______ _______ _______ _____ _____    ______ ____
ROOT
ATOM      1  O   UNL     1      -3.639 -10.414  13.836  0.00  0.00    -0.366 OA
ATOM     10  C   UNL     1      -3.607 -10.760  15.232  0.00  0.00    +0.159 C 
ATOM     11  C   UNL     1      -2.224 -11.335  15.481  0.00  0.00    +0.175 C 
ATOM     12  C   UNL     1      -1.373 -10.492  14.554  0.00  0.00    +0.176 C 
ATOM     13  C   UNL     1      -2.283 -10.339  13.341  0.00  0.00    +0.167 C 
ENDROOT
BRANCH  11   2
ATOM      2  O   UNL     1      -1.844 -11.231  16.837  0.00  0.00    -0.387 OA
ATOM     27  H   UNL     1      -2.509 -11.707  17.363  0.00  0.00    +0.210 HD
ENDBRANCH  11   2
BRANCH  12   3
ATOM      3  O   UNL     1      -1.162  -9.197  15.115  0.00  0.00    -0.387 OA
ATOM     28  H   UNL     1      -0.644  -8.684  14.472  0.00  0.00    +0.210 HD
ENDBRANCH  12   3
BRANCH  10  15
ATOM     15  C   UNL     1      -4.731 -11.733  15.544  0.00  0.00    +0.130 C 
BRANCH  15  19
ATOM      5  O   UNL     1      -6.719 -10.426  15.612  0.00  0.00    -0.276 OA
ATOM      7  N   UNL     1      -5.817 -11.082  17.640  0.00  0.00    -0.296 N 
ATOM     14  C   UNL     1      -6.770 -10.363  18.487  0.00  0.00    +0.102 C 
ATOM     16  C   UNL     1      -6.105 -10.364  19.865  0.00  0.00    +0.026 C 
ATOM     17  C   UNL     1      -4.808 -11.769  18.443  0.00  0.00    +0.108 C 
ATOM     18  C   UNL     1      -5.312 -11.666  19.874  0.00  0.00    +0.021 C 
ATOM     19  C   UNL     1      -5.850 -11.016  16.256  0.00  0.00    +0.218 C 
BRANCH  14  21
ATOM     21  C   UNL     1      -8.133 -11.054  18.505  0.00  0.00    +0.181 C 
BRANCH  21   4
ATOM      4  O   UNL     1      -8.655 -10.979  19.819  0.00  0.00    -0.381 OA
ATOM     23  C   UNL     1     -10.048 -11.264  19.850  0.00  0.00    +0.194 C 
ENDBRANCH  21   4
ENDBRANCH  14  21
ENDBRANCH  15  19
ENDBRANCH  10  15
BRANCH  13  20
ATOM     20  C   UNL     1      -2.101 -11.448  12.314  0.00  0.00    +0.140 C 
BRANCH  20   8
ATOM      6  O   UNL     1      -2.608  -9.327  10.425  0.00  0.00    -0.253 OA
ATOM      8  N   UNL     1      -3.130 -11.407  11.317  0.00  0.00    -0.297 N 
ATOM      9  N   UNL     1      -4.380 -10.559   9.572  0.00  0.00    -0.297 N 
ATOM     22  C   UNL     1      -3.311 -10.338  10.436  0.00  0.00    +0.300 C 
ATOM     29  H   UNL     1      -3.754 -12.204  11.241  0.00  0.00    +0.150 HD
ATOM     30  H   UNL     1      -4.851 -11.457   9.608  0.00  0.00    +0.150 HD
BRANCH   9  24
ATOM     24  C   UNL     1      -4.781  -9.607   8.562  0.00  0.00    +0.068 C 
ATOM     25  C   UNL     1      -5.872  -8.692   9.101  0.00  0.00    +0.027 C 
ATOM     26  C   UNL     1      -5.239 -10.329   7.300  0.00  0.00    +0.027 C 
ENDBRANCH   9  24
ENDBRANCH  20   8
ENDBRANCH  13  20
TORSDOF 9
ENDMDL
MODEL 6
REMARK VINA RESULT:      -6.1      2.389      6.265
REMARK  Name = 40777896
REMARK  12 active torsions:
REMARK  status: ('A' for Active; 'I' for Inactive)
REMARK    1  A    between atoms: O_2  and  C_11
REMARK    2  A    between atoms: O_3  and  C_12
REMARK    3  A    between atoms: O_4  and  C_21
REMARK    4  A    between atoms: O_4  and  C_23
REMARK    5  A    between atoms: N_8  and  C_20
REMARK    6  A    between atoms: N_9  and  C_24
REMARK    7  A    between atoms: C_10  and  C_15
REMARK    8  A    between atoms: C_13  and  C_20
REMARK    9  A    between atoms: C_14  and  C_21
REMARK   10  A    between atoms: C_15  and  C_19
REMARK   11  A    between atoms: C_24  and  C_25
REMARK   12  A    between atoms: C_24  and  C_26
REMARK                            x       y       z     vdW  Elec       q    Type
REMARK                         _______ _______ _______ _____ _____    ______ ____
ROOT
ATOM      1  O   UNL     1      13.713   8.245  21.075  0.00  0.00    -0.366 OA
ATOM     10  C   UNL     1      12.354   8.649  21.322  0.00  0.00    +0.159 C 
ATOM     11  C   UNL     1      11.500   7.811  20.387  0.00  0.00    +0.175 C 
ATOM     12  C   UNL     1      12.255   6.498  20.380  0.00  0.00    +0.176 C 
ATOM     13  C   UNL     1      13.706   6.967  20.399  0.00  0.00    +0.167 C 
ENDROOT
BRANCH  11   2
ATOM      2  O   UNL     1      10.172   7.689  20.850  0.00  0.00    -0.387 OA
ATOM     27  H   UNL     1      10.212   7.379  21.770  0.00  0.00    +0.210 HD
ENDBRANCH  11   2
BRANCH  12   3
ATOM      3  O   UNL     1      12.008   5.778  21.586  0.00  0.00    -0.387 OA
ATOM     28  H   UNL     1      11.776   6.428  22.271  0.00  0.00    +0.210 HD
ENDBRANCH  12   3
BRANCH  10  15
ATOM     15  C   UNL     1      12.215  10.143  21.090  0.00  0.00    +0.130 C 
BRANCH  15  19
ATOM      5  O   UNL     1      11.199  10.107  23.243  0.00  0.00    -0.276 OA
ATOM      7  N   UNL     1      11.298  12.147  22.156  0.00  0.00    -0.296 N 
ATOM     14  C   UNL     1      10.553  12.907  23.162  0.00  0.00    +0.102 C 
ATOM     16  C   UNL     1      10.181  14.203  22.437  0.00  0.00    +0.026 C 
ATOM     17  C   UNL     1      11.663  12.989  21.019  0.00  0.00    +0.108 C 
ATOM     18  C   UNL     1      11.336  14.407  21.463  0.00  0.00    +0.021 C 
ATOM     19  C   UNL     1      11.523  10.784  22.266  0.00  0.00    +0.218 C 
BRANCH  14  21
ATOM     21  C   UNL     1      11.401  13.167  24.406  0.00  0.00    +0.181 C 
BRANCH  21   4
ATOM      4  O   UNL     1      10.534  13.342  25.511  0.00  0.00    -0.381 OA
ATOM     23  C   UNL     1      10.919  14.452  26.314  0.00  0.00    +0.194 C 
ENDBRANCH  21   4
ENDBRANCH  14  21
ENDBRANCH  15  19
ENDBRANCH  10  15
BRANCH  13  20
ATOM     20  C   UNL     1      14.284   7.176  19.006  0.00  0.00    +0.140 C 
BRANCH  20   8
ATOM      6  O   UNL     1      13.227   9.141  17.176  0.00  0.00    -0.253 OA
ATOM      8  N   UNL     1      14.739   8.523  18.828  0.00  0.00    -0.297 N 
ATOM      9  N   UNL     1      14.804  10.657  17.951  0.00  0.00    -0.297 N 
ATOM     22  C   UNL     1      14.171   9.418  17.916  0.00  0.00    +0.300 C 
ATOM     29  H   UNL     1      15.509   8.848  19.405  0.00  0.00    +0.150 HD
ATOM     30  H   UNL     1      15.523  10.812  18.650  0.00  0.00    +0.150 HD
BRANCH   9  24
ATOM     24  C   UNL     1      14.411  11.761  17.105  0.00  0.00    +0.068 C 
ATOM     25  C   UNL     1      15.563  12.168  16.197  0.00  0.00    +0.027 C 
ATOM     26  C   UNL     1      13.931  12.935  17.950  0.00  0.00    +0.027 C 
ENDBRANCH   9  24
ENDBRANCH  20   8
ENDBRANCH  13  20
TORSDOF 9
ENDMDL
MODEL 7
REMARK VINA RESULT:      -6.1      2.458      6.908
REMARK  Name = 40777896
REMARK  12 active torsions:
REMARK  status: ('A' for Active; 'I' for Inactive)
REMARK    1  A    between atoms: O_2  and  C_11
REMARK    2  A    between atoms: O_3  and  C_12
REMARK    3  A    between atoms: O_4  and  C_21
REMARK    4  A    between atoms: O_4  and  C_23
REMARK    5  A    between atoms: N_8  and  C_20
REMARK    6  A    between atoms: N_9  and  C_24
REMARK    7  A    between atoms: C_10  and  C_15
REMARK    8  A    between atoms: C_13  and  C_20
REMARK    9  A    between atoms: C_14  and  C_21
REMARK   10  A    between atoms: C_15  and  C_19
REMARK   11  A    between atoms: C_24  and  C_25
REMARK   12  A    between atoms: C_24  and  C_26
REMARK                            x       y       z     vdW  Elec       q    Type
REMARK                         _______ _______ _______ _____ _____    ______ ____
ROOT
ATOM      1  O   UNL     1      13.231   8.114  21.779  0.00  0.00    -0.366 OA
ATOM     10  C   UNL     1      12.207   8.904  21.146  0.00  0.00    +0.159 C 
ATOM     11  C   UNL     1      11.818   8.142  19.890  0.00  0.00    +0.175 C 
ATOM     12  C   UNL     1      11.947   6.706  20.355  0.00  0.00    +0.176 C 
ATOM     13  C   UNL     1      13.182   6.771  21.247  0.00  0.00    +0.167 C 
ENDROOT
BRANCH  11   2
ATOM      2  O   UNL     1      10.518   8.473  19.452  0.00  0.00    -0.387 OA
ATOM     27  H   UNL     1       9.971   8.614  20.244  0.00  0.00    +0.210 HD
ENDBRANCH  11   2
BRANCH  12   3
ATOM      3  O   UNL     1      10.832   6.346  21.168  0.00  0.00    -0.387 OA
ATOM     28  H   UNL     1      11.166   5.782  21.886  0.00  0.00    +0.210 HD
ENDBRANCH  12   3
BRANCH  10  15
ATOM     15  C   UNL     1      12.737  10.299  20.865  0.00  0.00    +0.130 C 
BRANCH  15  19
ATOM      5  O   UNL     1      11.064  11.708  21.806  0.00  0.00    -0.276 OA
ATOM      7  N   UNL     1      13.095  11.596  22.910  0.00  0.00    -0.296 N 
ATOM     14  C   UNL     1      12.781  12.593  23.935  0.00  0.00    +0.102 C 
ATOM     16  C   UNL     1      14.146  12.940  24.535  0.00  0.00    +0.026 C 
ATOM     17  C   UNL     1      14.461  11.099  23.055  0.00  0.00    +0.108 C 
ATOM     18  C   UNL     1      14.933  11.642  24.395  0.00  0.00    +0.021 C 
ATOM     19  C   UNL     1      12.211  11.266  21.895  0.00  0.00    +0.218 C 
BRANCH  14  21
ATOM     21  C   UNL     1      11.817  12.034  24.981  0.00  0.00    +0.181 C 
BRANCH  21   4
ATOM      4  O   UNL     1      10.607  12.764  24.911  0.00  0.00    -0.381 OA
ATOM     23  C   UNL     1      10.510  13.729  25.952  0.00  0.00    +0.194 C 
ENDBRANCH  21   4
ENDBRANCH  14  21
ENDBRANCH  15  19
ENDBRANCH  10  15
BRANCH  13  20
ATOM     20  C   UNL     1      14.479   6.523  20.490  0.00  0.00    +0.140 C 
BRANCH  20   8
ATOM      6  O   UNL     1      17.227   6.811  19.661  0.00  0.00    -0.253 OA
ATOM      8  N   UNL     1      15.619   6.723  21.335  0.00  0.00    -0.297 N 
ATOM      9  N   UNL     1      17.838   7.040  21.888  0.00  0.00    -0.297 N 
ATOM     22  C   UNL     1      16.925   6.854  20.853  0.00  0.00    +0.300 C 
ATOM     29  H   UNL     1      15.468   6.784  22.337  0.00  0.00    +0.150 HD
ATOM     30  H   UNL     1      17.482   7.137  22.833  0.00  0.00    +0.150 HD
BRANCH   9  24
ATOM     24  C   UNL     1      19.256   7.202  21.662  0.00  0.00    +0.068 C 
ATOM     25  C   UNL     1      20.048   6.567  22.796  0.00  0.00    +0.027 C 
ATOM     26  C   UNL     1      19.605   8.676  21.501  0.00  0.00    +0.027 C 
ENDBRANCH   9  24
ENDBRANCH  20   8
ENDBRANCH  13  20
TORSDOF 9
ENDMDL
MODEL 8
REMARK VINA RESULT:      -5.8      2.519      7.885
REMARK  Name = 40777896
REMARK  12 active torsions:
REMARK  status: ('A' for Active; 'I' for Inactive)
REMARK    1  A    between atoms: O_2  and  C_11
REMARK    2  A    between atoms: O_3  and  C_12
REMARK    3  A    between atoms: O_4  and  C_21
REMARK    4  A    between atoms: O_4  and  C_23
REMARK    5  A    between atoms: N_8  and  C_20
REMARK    6  A    between atoms: N_9  and  C_24
REMARK    7  A    between atoms: C_10  and  C_15
REMARK    8  A    between atoms: C_13  and  C_20
REMARK    9  A    between atoms: C_14  and  C_21
REMARK   10  A    between atoms: C_15  and  C_19
REMARK   11  A    between atoms: C_24  and  C_25
REMARK   12  A    between atoms: C_24  and  C_26
REMARK                            x       y       z     vdW  Elec       q    Type
REMARK                         _______ _______ _______ _____ _____    ______ ____
ROOT
ATOM      1  O   UNL     1      13.575   8.883  22.035  0.00  0.00    -0.366 OA
ATOM     10  C   UNL     1      12.523   8.877  21.054  0.00  0.00    +0.159 C 
ATOM     11  C   UNL     1      13.001   7.958  19.943  0.00  0.00    +0.175 C 
ATOM     12  C   UNL     1      13.758   6.906  20.725  0.00  0.00    +0.176 C 
ATOM     13  C   UNL     1      14.431   7.740  21.810  0.00  0.00    +0.167 C 
ENDROOT
BRANCH  11   2
ATOM      2  O   UNL     1      11.927   7.432  19.192  0.00  0.00    -0.387 OA
ATOM     27  H   UNL     1      11.193   7.272  19.809  0.00  0.00    +0.210 HD
ENDBRANCH  11   2
BRANCH  12   3
ATOM      3  O   UNL     1      12.848   6.008  21.358  0.00  0.00    -0.387 OA
ATOM     28  H   UNL     1      12.396   6.501  22.063  0.00  0.00    +0.210 HD
ENDBRANCH  12   3
BRANCH  10  15
ATOM     15  C   UNL     1      12.251  10.297  20.587  0.00  0.00    +0.130 C 
BRANCH  15  19
ATOM      5  O   UNL     1      10.827  10.400  22.493  0.00  0.00    -0.276 OA
ATOM      7  N   UNL     1      11.399  12.407  21.491  0.00  0.00    -0.296 N 
ATOM     14  C   UNL     1      10.570  13.260  22.344  0.00  0.00    +0.102 C 
ATOM     16  C   UNL     1      10.519  14.590  21.587  0.00  0.00    +0.026 C 
ATOM     17  C   UNL     1      12.089  13.189  20.469  0.00  0.00    +0.108 C 
ATOM     18  C   UNL     1      11.862  14.640  20.868  0.00  0.00    +0.021 C 
ATOM     19  C   UNL     1      11.423  11.027  21.615  0.00  0.00    +0.218 C 
BRANCH  14  21
ATOM     21  C   UNL     1      11.176  13.415  23.738  0.00  0.00    +0.181 C 
BRANCH  21   4
ATOM      4  O   UNL     1      10.185  13.093  24.696  0.00  0.00    -0.381 OA
ATOM     23  C   UNL     1      10.481  13.652  25.970  0.00  0.00    +0.194 C 
ENDBRANCH  21   4
ENDBRANCH  14  21
ENDBRANCH  15  19
ENDBRANCH  10  15
BRANCH  13  20
ATOM     20  C   UNL     1      15.802   8.258  21.401  0.00  0.00    +0.140 C 
BRANCH  20   8
ATOM      6  O   UNL     1      18.649   8.575  21.053  0.00  0.00    -0.253 OA
ATOM      8  N   UNL     1      16.811   7.256  21.582  0.00  0.00    -0.297 N 
ATOM      9  N   UNL     1      18.932   6.347  21.637  0.00  0.00    -0.297 N 
ATOM     22  C   UNL     1      18.176   7.491  21.392  0.00  0.00    +0.300 C 
ATOM     29  H   UNL     1      16.518   6.329  21.873  0.00  0.00    +0.150 HD
ATOM     30  H   UNL     1      18.458   5.521  21.986  0.00  0.00    +0.150 HD
BRANCH   9  24
ATOM     24  C   UNL     1      20.371   6.319  21.512  0.00  0.00    +0.068 C 
ATOM     25  C   UNL     1      20.804   5.145  20.645  0.00  0.00    +0.027 C 
ATOM     26  C   UNL     1      21.025   6.261  22.888  0.00  0.00    +0.027 C 
ENDBRANCH   9  24
ENDBRANCH  20   8
ENDBRANCH  13  20
TORSDOF 9
ENDMDL
MODEL 9
REMARK VINA RESULT:      -5.7     15.339     17.135
REMARK  Name = 40777896
REMARK  12 active torsions:
REMARK  status: ('A' for Active; 'I' for Inactive)
REMARK    1  A    between atoms: O_2  and  C_11
REMARK    2  A    between atoms: O_3  and  C_12
REMARK    3  A    between atoms: O_4  and  C_21
REMARK    4  A    between atoms: O_4  and  C_23
REMARK    5  A    between atoms: N_8  and  C_20
REMARK    6  A    between atoms: N_9  and  C_24
REMARK    7  A    between atoms: C_10  and  C_15
REMARK    8  A    between atoms: C_13  and  C_20
REMARK    9  A    between atoms: C_14  and  C_21
REMARK   10  A    between atoms: C_15  and  C_19
REMARK   11  A    between atoms: C_24  and  C_25
REMARK   12  A    between atoms: C_24  and  C_26
REMARK                            x       y       z     vdW  Elec       q    Type
REMARK                         _______ _______ _______ _____ _____    ______ ____
ROOT
ATOM      1  O   UNL     1       9.516   5.807   5.570  0.00  0.00    -0.366 OA
ATOM     10  C   UNL     1      10.921   5.751   5.262  0.00  0.00    +0.159 C 
ATOM     11  C   UNL     1      11.604   6.626   6.298  0.00  0.00    +0.175 C 
ATOM     12  C   UNL     1      10.753   6.366   7.523  0.00  0.00    +0.176 C 
ATOM     13  C   UNL     1       9.353   6.283   6.925  0.00  0.00    +0.167 C 
ENDROOT
BRANCH  11   2
ATOM      2  O   UNL     1      12.961   6.276   6.476  0.00  0.00    -0.387 OA
ATOM     27  H   UNL     1      12.994   5.319   6.644  0.00  0.00    +0.210 HD
ENDBRANCH  11   2
BRANCH  12   3
ATOM      3  O   UNL     1      11.069   5.094   8.087  0.00  0.00    -0.387 OA
ATOM     28  H   UNL     1      10.682   5.066   8.978  0.00  0.00    +0.210 HD
ENDBRANCH  12   3
BRANCH  10  15
ATOM     15  C   UNL     1      11.151   6.216   3.834  0.00  0.00    +0.130 C 
BRANCH  15  19
ATOM      5  O   UNL     1      10.351   4.245   2.764  0.00  0.00    -0.276 OA
ATOM      7  N   UNL     1      12.523   4.893   2.298  0.00  0.00    -0.296 N 
ATOM     14  C   UNL     1      12.862   3.743   1.457  0.00  0.00    +0.102 C 
ATOM     16  C   UNL     1      14.389   3.798   1.364  0.00  0.00    +0.026 C 
ATOM     17  C   UNL     1      13.665   5.790   2.454  0.00  0.00    +0.108 C 
ATOM     18  C   UNL     1      14.695   5.289   1.452  0.00  0.00    +0.021 C 
ATOM     19  C   UNL     1      11.292   5.024   2.921  0.00  0.00    +0.218 C 
BRANCH  14  21
ATOM     21  C   UNL     1      12.198   3.840   0.084  0.00  0.00    +0.181 C 
BRANCH  21   4
ATOM      4  O   UNL     1      12.868   2.961  -0.800  0.00  0.00    -0.381 OA
ATOM     23  C   UNL     1      13.124   3.573  -2.059  0.00  0.00    +0.194 C 
ENDBRANCH  21   4
ENDBRANCH  14  21
ENDBRANCH  15  19
ENDBRANCH  10  15
BRANCH  13  20
ATOM     20  C   UNL     1       8.650   7.631   6.862  0.00  0.00    +0.140 C 
BRANCH  20   8
ATOM      6  O   UNL     1       9.411  10.413   6.789  0.00  0.00    -0.253 OA
ATOM      8  N   UNL     1       9.011   8.457   7.976  0.00  0.00    -0.297 N 
ATOM      9  N   UNL     1       9.671  10.366   9.095  0.00  0.00    -0.297 N 
ATOM     22  C   UNL     1       9.370   9.803   7.857  0.00  0.00    +0.300 C 
ATOM     29  H   UNL     1       8.995   8.044   8.904  0.00  0.00    +0.150 HD
ATOM     30  H   UNL     1       9.534   9.802   9.927  0.00  0.00    +0.150 HD
BRANCH   9  24
ATOM     24  C   UNL     1      10.072  11.745   9.250  0.00  0.00    +0.068 C 
ATOM     25  C   UNL     1      10.924  11.910  10.501  0.00  0.00    +0.027 C 
ATOM     26  C   UNL     1       8.850  12.655   9.290  0.00  0.00    +0.027 C 
ENDBRANCH   9  24
ENDBRANCH  20   8
ENDBRANCH  13  20
TORSDOF 9
ENDMDL
MODEL 10
REMARK VINA RESULT:      -5.7     27.556     29.069
REMARK  Name = 40777896
REMARK  12 active torsions:
REMARK  status: ('A' for Active; 'I' for Inactive)
REMARK    1  A    between atoms: O_2  and  C_11
REMARK    2  A    between atoms: O_3  and  C_12
REMARK    3  A    between atoms: O_4  and  C_21
REMARK    4  A    between atoms: O_4  and  C_23
REMARK    5  A    between atoms: N_8  and  C_20
REMARK    6  A    between atoms: N_9  and  C_24
REMARK    7  A    between atoms: C_10  and  C_15
REMARK    8  A    between atoms: C_13  and  C_20
REMARK    9  A    between atoms: C_14  and  C_21
REMARK   10  A    between atoms: C_15  and  C_19
REMARK   11  A    between atoms: C_24  and  C_25
REMARK   12  A    between atoms: C_24  and  C_26
REMARK                            x       y       z     vdW  Elec       q    Type
REMARK                         _______ _______ _______ _____ _____    ______ ____
ROOT
ATOM      1  O   UNL     1      -6.580 -11.709  17.444  0.00  0.00    -0.366 OA
ATOM     10  C   UNL     1      -5.383 -11.417  16.700  0.00  0.00    +0.159 C 
ATOM     11  C   UNL     1      -4.267 -11.349  17.728  0.00  0.00    +0.175 C 
ATOM     12  C   UNL     1      -4.696 -12.415  18.714  0.00  0.00    +0.176 C 
ATOM     13  C   UNL     1      -6.209 -12.231  18.740  0.00  0.00    +0.167 C 
ENDROOT
BRANCH  11   2
ATOM      2  O   UNL     1      -3.002 -11.597  17.152  0.00  0.00    -0.387 OA
ATOM     27  H   UNL     1      -2.717 -10.778  16.711  0.00  0.00    +0.210 HD
ENDBRANCH  11   2
BRANCH  12   3
ATOM      3  O   UNL     1      -4.418 -13.714  18.193  0.00  0.00    -0.387 OA
ATOM     28  H   UNL     1      -4.581 -13.684  17.235  0.00  0.00    +0.210 HD
ENDBRANCH  12   3
BRANCH  10  15
ATOM     15  C   UNL     1      -5.566 -10.126  15.922  0.00  0.00    +0.130 C 
BRANCH  15  19
ATOM      5  O   UNL     1      -3.717 -10.535  14.479  0.00  0.00    -0.276 OA
ATOM      7  N   UNL     1      -5.738 -10.006  13.483  0.00  0.00    -0.296 N 
ATOM     14  C   UNL     1      -5.243  -9.983  12.105  0.00  0.00    +0.102 C 
ATOM     16  C   UNL     1      -6.356  -9.272  11.331  0.00  0.00    +0.026 C 
ATOM     17  C   UNL     1      -7.155  -9.657  13.543  0.00  0.00    +0.108 C 
ATOM     18  C   UNL     1      -7.618  -9.657  12.093  0.00  0.00    +0.021 C 
ATOM     19  C   UNL     1      -4.911 -10.242  14.569  0.00  0.00    +0.218 C 
BRANCH  14  21
ATOM     21  C   UNL     1      -4.987 -11.395  11.580  0.00  0.00    +0.181 C 
BRANCH  21   4
ATOM      4  O   UNL     1      -3.857 -11.358  10.729  0.00  0.00    -0.381 OA
ATOM     23  C   UNL     1      -2.904 -10.392  11.158  0.00  0.00    +0.194 C 
ENDBRANCH  21   4
ENDBRANCH  14  21
ENDBRANCH  15  19
ENDBRANCH  10  15
BRANCH  13  20
ATOM     20  C   UNL     1      -6.671 -11.233  19.793  0.00  0.00    +0.140 C 
BRANCH  20   8
ATOM      6  O   UNL     1      -9.451 -11.971  20.019  0.00  0.00    -0.253 OA
ATOM      8  N   UNL     1      -7.803 -10.483  19.336  0.00  0.00    -0.297 N 
ATOM      9  N   UNL     1     -10.026  -9.991  18.954  0.00  0.00    -0.297 N 
ATOM     22  C   UNL     1      -9.126 -10.911  19.484  0.00  0.00    +0.300 C 
ATOM     29  H   UNL     1      -7.635  -9.586  18.891  0.00  0.00    +0.150 HD
ATOM     30  H   UNL     1      -9.664  -9.110  18.602  0.00  0.00    +0.150 HD
BRANCH   9  24
ATOM     24  C   UNL     1     -11.456 -10.193  18.976  0.00  0.00    +0.068 C 
ATOM     25  C   UNL     1     -12.124  -9.370  17.883  0.00  0.00    +0.027 C 
ATOM     26  C   UNL     1     -12.022  -9.849  20.349  0.00  0.00    +0.027 C 
ENDBRANCH   9  24
ENDBRANCH  20   8
ENDBRANCH  13  20
TORSDOF 9
ENDMDL
