MODEL 1
REMARK VINA RESULT:      -6.8      0.000      0.000
REMARK  Name = 11883077
REMARK  9 active torsions:
REMARK  status: ('A' for Active; 'I' for Inactive)
REMARK    1  A    between atoms: O_2  and  C_15
REMARK    2  A    between atoms: O_3  and  C_20
REMARK    3  A    between atoms: N_8  and  C_26
REMARK    4  A    between atoms: C_10  and  C_18
REMARK    5  A    between atoms: C_12  and  C_20
REMARK    6  A    between atoms: C_12  and  C_21
REMARK    7  A    between atoms: C_13  and  C_23
REMARK    8  A    between atoms: C_23  and  C_24
REMARK    9  A    between atoms: C_32  and  C_33
REMARK                            x       y       z     vdW  Elec       q    Type
REMARK                         _______ _______ _______ _____ _____    ______ ____
ROOT
ATOM      1  S   UNL     1      15.015   8.061   6.330  0.00  0.00    -0.057 S 
ATOM      5  O   UNL     1      12.258   6.415   3.005  0.00  0.00    -0.266 OA
ATOM      7  N   UNL     1      14.879   7.387   3.836  0.00  0.00    -0.229 NA
ATOM      9  N   UNL     1      12.867   7.138   5.140  0.00  0.00    -0.258 N 
ATOM     10  C   UNL     1      18.461   8.747   3.408  0.00  0.00    -0.019 C 
ATOM     11  C   UNL     1      18.864   8.379   4.905  0.00  0.00    +0.011 C 
ATOM     12  C   UNL     1      20.293   8.835   5.395  0.00  0.00    +0.021 C 
ATOM     13  C   UNL     1      17.215   7.837   2.996  0.00  0.00    +0.054 C 
ATOM     14  C   UNL     1      19.643   8.415   2.460  0.00  0.00    +0.010 C 
ATOM     15  C   UNL     1      21.346   8.470   4.312  0.00  0.00    +0.123 C 
ATOM     16  C   UNL     1      17.720   8.722   5.902  0.00  0.00    +0.049 C 
ATOM     17  C   UNL     1      20.981   8.979   2.921  0.00  0.00    +0.032 C 
ATOM     18  C   UNL     1      18.089  10.240   3.236  0.00  0.00    +0.012 C 
ATOM     19  C   UNL     1      16.165   7.832   4.077  0.00  0.00    +0.058 A 
ATOM     21  C   UNL     1      20.662   8.047   6.683  0.00  0.00    +0.016 C 
ATOM     22  C   UNL     1      16.418   8.216   5.379  0.00  0.00    +0.015 A 
ATOM     25  C   UNL     1      14.182   7.469   4.949  0.00  0.00    +0.165 A 
ATOM     32  C   UNL     1      11.965   6.630   4.179  0.00  0.00    +0.285 C 
ATOM     40  H   UNL     1      12.521   7.285   6.085  0.00  0.00    +0.157 HD
ENDROOT
BRANCH  32  33
ATOM      6  O   UNL     1      10.417   5.540   5.698  0.00  0.00    -0.458 OA
ATOM     33  C   UNL     1      10.593   6.407   4.667  0.00  0.00    +0.189 A 
ATOM     34  C   UNL     1       9.387   6.933   4.267  0.00  0.00    +0.054 A 
ATOM     35  C   UNL     1       8.406   6.351   5.105  0.00  0.00    +0.042 A 
ATOM     36  C   UNL     1       9.083   5.510   5.958  0.00  0.00    +0.196 A 
ENDBRANCH  32  33
BRANCH  15   2
ATOM      2  O   UNL     1      22.630   8.984   4.665  0.00  0.00    -0.391 OA
ATOM     37  H   UNL     1      23.263   8.247   4.629  0.00  0.00    +0.210 HD
ENDBRANCH  15   2
BRANCH  12  20
ATOM     20  C   UNL     1      20.392  10.328   5.778  0.00  0.00    +0.165 C 
BRANCH  20   3
ATOM      3  O   UNL     1      21.260  10.433   6.884  0.00  0.00    -0.394 OA
ATOM     38  H   UNL     1      22.166  10.307   6.555  0.00  0.00    +0.209 HD
ENDBRANCH  20   3
ENDBRANCH  12  20
BRANCH  13  23
ATOM     23  C   UNL     1      16.607   8.171   1.626  0.00  0.00    +0.106 C 
BRANCH  23  24
ATOM      4  O   UNL     1      17.546   7.009  -0.279  0.00  0.00    -0.276 OA
ATOM      8  N   UNL     1      15.846   6.009   0.952  0.00  0.00    -0.312 N 
ATOM     24  C   UNL     1      16.743   7.024   0.652  0.00  0.00    +0.214 C 
ATOM     39  H   UNL     1      15.267   6.102   1.781  0.00  0.00    +0.149 HD
BRANCH   8  26
ATOM     26  C   UNL     1      15.750   4.787   0.186  0.00  0.00    +0.073 C 
ATOM     27  C   UNL     1      15.438   3.591   1.092  0.00  0.00    +0.022 C 
ATOM     28  C   UNL     1      14.713   4.919  -0.934  0.00  0.00    +0.022 C 
ATOM     29  C   UNL     1      14.004   3.614   1.618  0.00  0.00    +0.002 C 
ATOM     30  C   UNL     1      13.279   4.941  -0.406  0.00  0.00    +0.002 C 
ATOM     31  C   UNL     1      12.990   3.736   0.484  0.00  0.00    +0.000 C 
ENDBRANCH   8  26
ENDBRANCH  23  24
ENDBRANCH  13  23
TORSDOF 7
ENDMDL
MODEL 2
REMARK VINA RESULT:      -6.5     31.105     35.825
REMARK  Name = 11883077
REMARK  9 active torsions:
REMARK  status: ('A' for Active; 'I' for Inactive)
REMARK    1  A    between atoms: O_2  and  C_15
REMARK    2  A    between atoms: O_3  and  C_20
REMARK    3  A    between atoms: N_8  and  C_26
REMARK    4  A    between atoms: C_10  and  C_18
REMARK    5  A    between atoms: C_12  and  C_20
REMARK    6  A    between atoms: C_12  and  C_21
REMARK    7  A    between atoms: C_13  and  C_23
REMARK    8  A    between atoms: C_23  and  C_24
REMARK    9  A    between atoms: C_32  and  C_33
REMARK                            x       y       z     vdW  Elec       q    Type
REMARK                         _______ _______ _______ _____ _____    ______ ____
ROOT
ATOM      1  S   UNL     1     -12.775   5.027  22.391  0.00  0.00    -0.057 S 
ATOM      5  O   UNL     1     -17.072   4.819  24.081  0.00  0.00    -0.266 OA
ATOM      7  N   UNL     1     -15.116   6.126  22.356  0.00  0.00    -0.229 NA
ATOM      9  N   UNL     1     -14.841   4.200  23.779  0.00  0.00    -0.258 N 
ATOM     10  C   UNL     1     -13.628   8.921  20.156  0.00  0.00    -0.019 C 
ATOM     11  C   UNL     1     -12.569   7.938  19.486  0.00  0.00    +0.011 C 
ATOM     12  C   UNL     1     -11.516   8.581  18.503  0.00  0.00    +0.021 C 
ATOM     13  C   UNL     1     -14.826   8.035  20.733  0.00  0.00    +0.054 C 
ATOM     14  C   UNL     1     -14.202   9.873  19.074  0.00  0.00    +0.010 C 
ATOM     15  C   UNL     1     -12.250   9.538  17.522  0.00  0.00    +0.123 C 
ATOM     16  C   UNL     1     -11.940   6.978  20.538  0.00  0.00    +0.049 C 
ATOM     17  C   UNL     1     -13.138  10.558  18.228  0.00  0.00    +0.032 C 
ATOM     18  C   UNL     1     -13.020   9.772  21.297  0.00  0.00    +0.012 C 
ATOM     19  C   UNL     1     -14.303   6.853  21.508  0.00  0.00    +0.058 A 
ATOM     21  C   UNL     1     -10.866   7.455  17.650  0.00  0.00    +0.016 C 
ATOM     22  C   UNL     1     -13.009   6.385  21.392  0.00  0.00    +0.015 A 
ATOM     25  C   UNL     1     -14.416   5.144  22.883  0.00  0.00    +0.165 A 
ATOM     32  C   UNL     1     -16.132   4.071  24.338  0.00  0.00    +0.285 C 
ATOM     40  H   UNL     1     -14.131   3.530  24.064  0.00  0.00    +0.157 HD
ENDROOT
BRANCH  32  33
ATOM      6  O   UNL     1     -16.436   1.716  24.840  0.00  0.00    -0.458 OA
ATOM     33  C   UNL     1     -16.282   2.979  25.316  0.00  0.00    +0.189 A 
ATOM     34  C   UNL     1     -16.297   2.982  26.691  0.00  0.00    +0.054 A 
ATOM     35  C   UNL     1     -16.472   1.634  27.086  0.00  0.00    +0.042 A 
ATOM     36  C   UNL     1     -16.552   0.903  25.924  0.00  0.00    +0.196 A 
ENDBRANCH  32  33
BRANCH  15   2
ATOM      2  O   UNL     1     -11.312  10.235  16.704  0.00  0.00    -0.391 OA
ATOM     37  H   UNL     1     -11.639  11.144  16.587  0.00  0.00    +0.210 HD
ENDBRANCH  15   2
BRANCH  12  20
ATOM     20  C   UNL     1     -10.344   9.303  19.203  0.00  0.00    +0.165 C 
BRANCH  20   3
ATOM      3  O   UNL     1      -9.273   9.373  18.288  0.00  0.00    -0.394 OA
ATOM     38  H   UNL     1      -9.250   8.530  17.804  0.00  0.00    +0.209 HD
ENDBRANCH  20   3
ENDBRANCH  12  20
BRANCH  13  23
ATOM     23  C   UNL     1     -15.867   8.820  21.542  0.00  0.00    +0.106 C 
BRANCH  23  24
ATOM      4  O   UNL     1     -18.241   9.248  21.345  0.00  0.00    -0.276 OA
ATOM      8  N   UNL     1     -17.327   7.364  20.336  0.00  0.00    -0.312 N 
ATOM     24  C   UNL     1     -17.277   8.533  21.082  0.00  0.00    +0.214 C 
ATOM     39  H   UNL     1     -16.457   6.881  20.131  0.00  0.00    +0.149 HD
BRANCH   8  26
ATOM     26  C   UNL     1     -18.549   6.840  19.767  0.00  0.00    +0.073 C 
ATOM     27  C   UNL     1     -18.281   6.156  18.423  0.00  0.00    +0.022 C 
ATOM     28  C   UNL     1     -19.249   5.891  20.744  0.00  0.00    +0.022 C 
ATOM     29  C   UNL     1     -17.545   4.826  18.579  0.00  0.00    +0.002 C 
ATOM     30  C   UNL     1     -18.511   4.561  20.898  0.00  0.00    +0.002 C 
ATOM     31  C   UNL     1     -18.266   3.894  19.549  0.00  0.00    +0.000 C 
ENDBRANCH   8  26
ENDBRANCH  23  24
ENDBRANCH  13  23
TORSDOF 7
ENDMDL
MODEL 3
REMARK VINA RESULT:      -6.2     27.507     33.159
REMARK  Name = 11883077
REMARK  9 active torsions:
REMARK  status: ('A' for Active; 'I' for Inactive)
REMARK    1  A    between atoms: O_2  and  C_15
REMARK    2  A    between atoms: O_3  and  C_20
REMARK    3  A    between atoms: N_8  and  C_26
REMARK    4  A    between atoms: C_10  and  C_18
REMARK    5  A    between atoms: C_12  and  C_20
REMARK    6  A    between atoms: C_12  and  C_21
REMARK    7  A    between atoms: C_13  and  C_23
REMARK    8  A    between atoms: C_23  and  C_24
REMARK    9  A    between atoms: C_32  and  C_33
REMARK                            x       y       z     vdW  Elec       q    Type
REMARK                         _______ _______ _______ _____ _____    ______ ____
ROOT
ATOM      1  S   UNL     1      -9.808  -9.597  12.918  0.00  0.00    -0.057 S 
ATOM      5  O   UNL     1      -5.212  -9.789  13.369  0.00  0.00    -0.266 OA
ATOM      7  N   UNL     1      -7.855  -9.798  14.602  0.00  0.00    -0.229 NA
ATOM      9  N   UNL     1      -7.267  -9.629  12.271  0.00  0.00    -0.258 N 
ATOM     10  C   UNL     1     -10.449  -9.536  17.442  0.00  0.00    -0.019 C 
ATOM     11  C   UNL     1     -11.586 -10.238  16.576  0.00  0.00    +0.011 C 
ATOM     12  C   UNL     1     -13.026 -10.318  17.214  0.00  0.00    +0.021 C 
ATOM     13  C   UNL     1      -9.034  -9.949  16.827  0.00  0.00    +0.054 C 
ATOM     14  C   UNL     1     -10.519 -10.055  18.902  0.00  0.00    +0.010 C 
ATOM     15  C   UNL     1     -12.909 -10.810  18.684  0.00  0.00    +0.123 C 
ATOM     16  C   UNL     1     -11.578  -9.727  15.106  0.00  0.00    +0.049 C 
ATOM     17  C   UNL     1     -11.913 -10.003  19.510  0.00  0.00    +0.032 C 
ATOM     18  C   UNL     1     -10.574  -7.992  17.458  0.00  0.00    +0.012 C 
ATOM     19  C   UNL     1      -9.032  -9.806  15.327  0.00  0.00    +0.058 A 
ATOM     21  C   UNL     1     -13.865 -11.374  16.439  0.00  0.00    +0.016 C 
ATOM     22  C   UNL     1     -10.186  -9.727  14.573  0.00  0.00    +0.015 A 
ATOM     25  C   UNL     1      -8.142  -9.685  13.323  0.00  0.00    +0.165 A 
ATOM     32  C   UNL     1      -5.856  -9.683  12.328  0.00  0.00    +0.285 C 
ATOM     40  H   UNL     1      -7.702  -9.534  11.357  0.00  0.00    +0.157 HD
ENDROOT
BRANCH  32  33
ATOM      6  O   UNL     1      -4.769 -10.691  10.406  0.00  0.00    -0.458 OA
ATOM     33  C   UNL     1      -5.174  -9.554  11.028  0.00  0.00    +0.189 A 
ATOM     34  C   UNL     1      -4.849  -8.449  10.275  0.00  0.00    +0.054 A 
ATOM     35  C   UNL     1      -4.201  -8.940   9.116  0.00  0.00    +0.042 A 
ATOM     36  C   UNL     1      -4.177 -10.310   9.244  0.00  0.00    +0.196 A 
ENDBRANCH  32  33
BRANCH  15   2
ATOM      2  O   UNL     1     -14.180 -10.770  19.331  0.00  0.00    -0.391 OA
ATOM     37  H   UNL     1     -14.342  -9.852  19.608  0.00  0.00    +0.210 HD
ENDBRANCH  15   2
BRANCH  12  20
ATOM     20  C   UNL     1     -13.836  -9.005  17.136  0.00  0.00    +0.165 C 
BRANCH  20   3
ATOM      3  O   UNL     1     -15.202  -9.344  17.060  0.00  0.00    -0.394 OA
ATOM     38  H   UNL     1     -15.480  -9.224  16.136  0.00  0.00    +0.209 HD
ENDBRANCH  20   3
ENDBRANCH  12  20
BRANCH  13  23
ATOM     23  C   UNL     1      -7.831  -9.236  17.460  0.00  0.00    +0.106 C 
BRANCH  23  24
ATOM      4  O   UNL     1      -6.770 -10.358  19.324  0.00  0.00    -0.276 OA
ATOM      8  N   UNL     1      -6.140 -10.895  17.152  0.00  0.00    -0.312 N 
ATOM     24  C   UNL     1      -6.874 -10.209  18.109  0.00  0.00    +0.214 C 
ATOM     39  H   UNL     1      -6.349 -10.734  16.172  0.00  0.00    +0.149 HD
BRANCH   8  26
ATOM     26  C   UNL     1      -5.144 -11.890  17.484  0.00  0.00    +0.073 C 
ATOM     27  C   UNL     1      -5.202 -13.073  16.511  0.00  0.00    +0.022 C 
ATOM     28  C   UNL     1      -3.742 -11.274  17.525  0.00  0.00    +0.022 C 
ATOM     29  C   UNL     1      -4.676 -12.715  15.122  0.00  0.00    +0.002 C 
ATOM     30  C   UNL     1      -3.218 -10.918  16.134  0.00  0.00    +0.002 C 
ATOM     31  C   UNL     1      -3.276 -12.112  15.188  0.00  0.00    +0.000 C 
ENDBRANCH   8  26
ENDBRANCH  23  24
ENDBRANCH  13  23
TORSDOF 7
ENDMDL
MODEL 4
REMARK VINA RESULT:      -6.2     27.153     30.143
REMARK  Name = 11883077
REMARK  9 active torsions:
REMARK  status: ('A' for Active; 'I' for Inactive)
REMARK    1  A    between atoms: O_2  and  C_15
REMARK    2  A    between atoms: O_3  and  C_20
REMARK    3  A    between atoms: N_8  and  C_26
REMARK    4  A    between atoms: C_10  and  C_18
REMARK    5  A    between atoms: C_12  and  C_20
REMARK    6  A    between atoms: C_12  and  C_21
REMARK    7  A    between atoms: C_13  and  C_23
REMARK    8  A    between atoms: C_23  and  C_24
REMARK    9  A    between atoms: C_32  and  C_33
REMARK                            x       y       z     vdW  Elec       q    Type
REMARK                         _______ _______ _______ _____ _____    ______ ____
ROOT
ATOM      1  S   UNL     1      -4.078  -9.599   9.606  0.00  0.00    -0.057 S 
ATOM      5  O   UNL     1      -8.562  -8.771   8.850  0.00  0.00    -0.266 OA
ATOM      7  N   UNL     1      -6.435  -9.591  10.670  0.00  0.00    -0.229 NA
ATOM      9  N   UNL     1      -6.286  -8.937   8.355  0.00  0.00    -0.258 N 
ATOM     10  C   UNL     1      -4.872 -11.148  13.832  0.00  0.00    -0.019 C 
ATOM     11  C   UNL     1      -3.476 -10.420  13.596  0.00  0.00    +0.011 C 
ATOM     12  C   UNL     1      -2.301 -10.786  14.583  0.00  0.00    +0.021 C 
ATOM     13  C   UNL     1      -5.994 -10.331  13.041  0.00  0.00    +0.054 C 
ATOM     14  C   UNL     1      -5.220 -11.119  15.343  0.00  0.00    +0.010 C 
ATOM     15  C   UNL     1      -2.831 -10.754  16.044  0.00  0.00    +0.123 C 
ATOM     16  C   UNL     1      -3.066 -10.448  12.094  0.00  0.00    +0.049 C 
ATOM     17  C   UNL     1      -4.089 -11.593  16.246  0.00  0.00    +0.032 C 
ATOM     18  C   UNL     1      -4.870 -12.620  13.350  0.00  0.00    +0.012 C 
ATOM     19  C   UNL     1      -5.543 -10.006  11.640  0.00  0.00    +0.058 A 
ATOM     21  C   UNL     1      -1.190  -9.704  14.471  0.00  0.00    +0.016 C 
ATOM     22  C   UNL     1      -4.222 -10.048  11.242  0.00  0.00    +0.015 A 
ATOM     25  C   UNL     1      -5.777  -9.355   9.556  0.00  0.00    +0.165 A 
ATOM     32  C   UNL     1      -7.637  -8.663   8.048  0.00  0.00    +0.285 C 
ATOM     40  H   UNL     1      -5.597  -8.821   7.615  0.00  0.00    +0.157 HD
ENDROOT
BRANCH  32  33
ATOM      6  O   UNL     1      -7.040  -8.726   5.696  0.00  0.00    -0.458 OA
ATOM     33  C   UNL     1      -7.892  -8.270   6.651  0.00  0.00    +0.189 A 
ATOM     34  C   UNL     1      -8.876  -7.491   6.088  0.00  0.00    +0.054 A 
ATOM     35  C   UNL     1      -8.611  -7.466   4.697  0.00  0.00    +0.042 A 
ATOM     36  C   UNL     1      -7.484  -8.232   4.510  0.00  0.00    +0.196 A 
ENDBRANCH  32  33
BRANCH  15   2
ATOM      2  O   UNL     1      -1.828 -11.207  16.952  0.00  0.00    -0.391 OA
ATOM     37  H   UNL     1      -2.273 -11.474  17.774  0.00  0.00    +0.210 HD
ENDBRANCH  15   2
BRANCH  12  20
ATOM     20  C   UNL     1      -1.604 -12.130  14.279  0.00  0.00    +0.165 C 
BRANCH  20   3
ATOM      3  O   UNL     1      -2.245 -13.130  15.039  0.00  0.00    -0.394 OA
ATOM     38  H   UNL     1      -3.178 -13.146  14.768  0.00  0.00    +0.209 HD
ENDBRANCH  20   3
ENDBRANCH  12  20
BRANCH  13  23
ATOM     23  C   UNL     1      -7.382 -10.987  13.045  0.00  0.00    +0.106 C 
BRANCH  23  24
ATOM      4  O   UNL     1      -8.989  -9.254  13.570  0.00  0.00    -0.276 OA
ATOM      8  N   UNL     1      -8.430 -10.829  15.186  0.00  0.00    -0.312 N 
ATOM     24  C   UNL     1      -8.356 -10.244  13.930  0.00  0.00    +0.214 C 
ATOM     39  H   UNL     1      -7.905 -11.681  15.357  0.00  0.00    +0.149 HD
BRANCH   8  26
ATOM     26  C   UNL     1      -9.281 -10.328  16.242  0.00  0.00    +0.073 C 
ATOM     27  C   UNL     1      -9.769 -11.467  17.143  0.00  0.00    +0.022 C 
ATOM     28  C   UNL     1      -8.570  -9.243  17.056  0.00  0.00    +0.022 C 
ATOM     29  C   UNL     1      -8.658 -12.030  18.029  0.00  0.00    +0.002 C 
ATOM     30  C   UNL     1      -7.459  -9.808  17.942  0.00  0.00    +0.002 C 
ATOM     31  C   UNL     1      -7.971 -10.932  18.837  0.00  0.00    +0.000 C 
ENDBRANCH   8  26
ENDBRANCH  23  24
ENDBRANCH  13  23
TORSDOF 7
ENDMDL
MODEL 5
REMARK VINA RESULT:      -6.2     16.294     20.339
REMARK  Name = 11883077
REMARK  9 active torsions:
REMARK  status: ('A' for Active; 'I' for Inactive)
REMARK    1  A    between atoms: O_2  and  C_15
REMARK    2  A    between atoms: O_3  and  C_20
REMARK    3  A    between atoms: N_8  and  C_26
REMARK    4  A    between atoms: C_10  and  C_18
REMARK    5  A    between atoms: C_12  and  C_20
REMARK    6  A    between atoms: C_12  and  C_21
REMARK    7  A    between atoms: C_13  and  C_23
REMARK    8  A    between atoms: C_23  and  C_24
REMARK    9  A    between atoms: C_32  and  C_33
REMARK                            x       y       z     vdW  Elec       q    Type
REMARK                         _______ _______ _______ _____ _____    ______ ____
ROOT
ATOM      1  S   UNL     1      18.091   6.758  20.560  0.00  0.00    -0.057 S 
ATOM      5  O   UNL     1      20.593   9.543  23.272  0.00  0.00    -0.266 OA
ATOM      7  N   UNL     1      18.088   8.979  21.888  0.00  0.00    -0.229 NA
ATOM      9  N   UNL     1      20.116   7.676  21.953  0.00  0.00    -0.258 N 
ATOM     10  C   UNL     1      14.617   9.722  20.385  0.00  0.00    -0.019 C 
ATOM     11  C   UNL     1      14.235   8.178  20.301  0.00  0.00    +0.011 C 
ATOM     12  C   UNL     1      12.866   7.815  19.607  0.00  0.00    +0.021 C 
ATOM     13  C   UNL     1      15.771   9.886  21.477  0.00  0.00    +0.054 C 
ATOM     14  C   UNL     1      13.381  10.533  20.853  0.00  0.00    +0.010 C 
ATOM     15  C   UNL     1      11.750   8.748  20.155  0.00  0.00    +0.123 C 
ATOM     16  C   UNL     1      15.437   7.321  19.804  0.00  0.00    +0.049 C 
ATOM     17  C   UNL     1      12.110  10.228  20.072  0.00  0.00    +0.032 C 
ATOM     18  C   UNL     1      15.103  10.294  19.031  0.00  0.00    +0.012 C 
ATOM     19  C   UNL     1      16.852   8.854  21.283  0.00  0.00    +0.058 A 
ATOM     21  C   UNL     1      12.477   6.358  19.986  0.00  0.00    +0.016 C 
ATOM     22  C   UNL     1      16.674   7.702  20.544  0.00  0.00    +0.015 A 
ATOM     25  C   UNL     1      18.827   7.936  21.571  0.00  0.00    +0.165 A 
ATOM     32  C   UNL     1      20.941   8.474  22.777  0.00  0.00    +0.285 C 
ATOM     40  H   UNL     1      20.504   6.810  21.588  0.00  0.00    +0.157 HD
ENDROOT
BRANCH  32  33
ATOM      6  O   UNL     1      23.068   7.726  21.879  0.00  0.00    -0.458 OA
ATOM     33  C   UNL     1      22.306   7.957  22.979  0.00  0.00    +0.189 A 
ATOM     34  C   UNL     1      23.002   7.646  24.124  0.00  0.00    +0.054 A 
ATOM     35  C   UNL     1      24.275   7.193  23.700  0.00  0.00    +0.042 A 
ATOM     36  C   UNL     1      24.265   7.260  22.325  0.00  0.00    +0.196 A 
ENDBRANCH  32  33
BRANCH  15   2
ATOM      2  O   UNL     1      10.526   8.534  19.455  0.00  0.00    -0.391 OA
ATOM     37  H   UNL     1       9.982   7.930  19.989  0.00  0.00    +0.210 HD
ENDBRANCH  15   2
BRANCH  12  20
ATOM     20  C   UNL     1      12.901   7.848  18.063  0.00  0.00    +0.165 C 
BRANCH  20   3
ATOM      3  O   UNL     1      11.937   6.935  17.589  0.00  0.00    -0.394 OA
ATOM     38  H   UNL     1      11.796   6.274  18.288  0.00  0.00    +0.209 HD
ENDBRANCH  20   3
ENDBRANCH  12  20
BRANCH  13  23
ATOM     23  C   UNL     1      16.357  11.301  21.577  0.00  0.00    +0.106 C 
BRANCH  23  24
ATOM      4  O   UNL     1      16.878  12.108  23.799  0.00  0.00    -0.276 OA
ATOM      8  N   UNL     1      14.715  12.330  22.974  0.00  0.00    -0.312 N 
ATOM     24  C   UNL     1      16.048  11.949  22.906  0.00  0.00    +0.214 C 
ATOM     39  H   UNL     1      14.131  12.202  22.154  0.00  0.00    +0.149 HD
BRANCH   8  26
ATOM     26  C   UNL     1      14.135  12.974  24.132  0.00  0.00    +0.073 C 
ATOM     27  C   UNL     1      13.255  14.158  23.719  0.00  0.00    +0.022 C 
ATOM     28  C   UNL     1      13.353  11.971  24.986  0.00  0.00    +0.022 C 
ATOM     29  C   UNL     1      11.950  13.716  23.059  0.00  0.00    +0.002 C 
ATOM     30  C   UNL     1      12.048  11.531  24.323  0.00  0.00    +0.002 C 
ATOM     31  C   UNL     1      11.184  12.726  23.932  0.00  0.00    +0.000 C 
ENDBRANCH   8  26
ENDBRANCH  23  24
ENDBRANCH  13  23
TORSDOF 7
ENDMDL
MODEL 6
REMARK VINA RESULT:      -6.2      1.774      2.279
REMARK  Name = 11883077
REMARK  9 active torsions:
REMARK  status: ('A' for Active; 'I' for Inactive)
REMARK    1  A    between atoms: O_2  and  C_15
REMARK    2  A    between atoms: O_3  and  C_20
REMARK    3  A    between atoms: N_8  and  C_26
REMARK    4  A    between atoms: C_10  and  C_18
REMARK    5  A    between atoms: C_12  and  C_20
REMARK    6  A    between atoms: C_12  and  C_21
REMARK    7  A    between atoms: C_13  and  C_23
REMARK    8  A    between atoms: C_23  and  C_24
REMARK    9  A    between atoms: C_32  and  C_33
REMARK                            x       y       z     vdW  Elec       q    Type
REMARK                         _______ _______ _______ _____ _____    ______ ____
ROOT
ATOM      1  S   UNL     1      15.372   8.087   6.265  0.00  0.00    -0.057 S 
ATOM      5  O   UNL     1      11.391   6.540   4.498  0.00  0.00    -0.266 OA
ATOM      7  N   UNL     1      14.179   7.302   4.108  0.00  0.00    -0.229 NA
ATOM      9  N   UNL     1      12.870   7.311   6.132  0.00  0.00    -0.258 N 
ATOM     10  C   UNL     1      17.348   8.295   2.150  0.00  0.00    -0.019 C 
ATOM     11  C   UNL     1      18.306   7.968   3.379  0.00  0.00    +0.011 C 
ATOM     12  C   UNL     1      19.836   8.311   3.207  0.00  0.00    +0.021 C 
ATOM     13  C   UNL     1      15.986   7.487   2.358  0.00  0.00    +0.054 C 
ATOM     14  C   UNL     1      18.011   7.805   0.836  0.00  0.00    +0.010 C 
ATOM     15  C   UNL     1      20.325   7.794   1.825  0.00  0.00    +0.123 C 
ATOM     16  C   UNL     1      17.699   8.467   4.723  0.00  0.00    +0.049 C 
ATOM     17  C   UNL     1      19.453   8.263   0.665  0.00  0.00    +0.032 C 
ATOM     18  C   UNL     1      17.037   9.806   2.017  0.00  0.00    +0.012 C 
ATOM     19  C   UNL     1      15.477   7.636   3.768  0.00  0.00    +0.058 A 
ATOM     21  C   UNL     1      20.651   7.558   4.297  0.00  0.00    +0.016 C 
ATOM     22  C   UNL     1      16.267   8.060   4.818  0.00  0.00    +0.015 A 
ATOM     25  C   UNL     1      14.009   7.507   5.397  0.00  0.00    +0.165 A 
ATOM     32  C   UNL     1      11.622   6.842   5.667  0.00  0.00    +0.285 C 
ATOM     40  H   UNL     1      12.954   7.539   7.120  0.00  0.00    +0.157 HD
ENDROOT
BRANCH  32  33
ATOM      6  O   UNL     1       9.487   7.594   6.543  0.00  0.00    -0.458 OA
ATOM     33  C   UNL     1      10.561   6.775   6.687  0.00  0.00    +0.189 A 
ATOM     34  C   UNL     1      10.433   6.005   7.820  0.00  0.00    +0.054 A 
ATOM     35  C   UNL     1       9.201   6.375   8.410  0.00  0.00    +0.042 A 
ATOM     36  C   UNL     1       8.663   7.345   7.596  0.00  0.00    +0.196 A 
ENDBRANCH  32  33
BRANCH  15   2
ATOM      2  O   UNL     1      21.670   8.202   1.582  0.00  0.00    -0.391 OA
ATOM     37  H   UNL     1      21.965   7.774   0.761  0.00  0.00    +0.210 HD
ENDBRANCH  15   2
BRANCH  12  20
ATOM     20  C   UNL     1      20.181   9.806   3.389  0.00  0.00    +0.165 C 
BRANCH  20   3
ATOM      3  O   UNL     1      21.455   9.885   3.988  0.00  0.00    -0.394 OA
ATOM     38  H   UNL     1      21.546  10.780   4.357  0.00  0.00    +0.209 HD
ENDBRANCH  20   3
ENDBRANCH  12  20
BRANCH  13  23
ATOM     23  C   UNL     1      14.892   7.806   1.329  0.00  0.00    +0.106 C 
BRANCH  23  24
ATOM      4  O   UNL     1      15.114   6.373  -0.608  0.00  0.00    -0.276 OA
ATOM      8  N   UNL     1      13.566   5.840   1.042  0.00  0.00    -0.312 N 
ATOM     24  C   UNL     1      14.563   6.612   0.464  0.00  0.00    +0.214 C 
ATOM     39  H   UNL     1      13.222   6.100   1.961  0.00  0.00    +0.149 HD
BRANCH   8  26
ATOM     26  C   UNL     1      13.048   4.634   0.435  0.00  0.00    +0.073 C 
ATOM     27  C   UNL     1      12.843   3.534   1.481  0.00  0.00    +0.022 C 
ATOM     28  C   UNL     1      11.753   4.918  -0.333  0.00  0.00    +0.022 C 
ATOM     29  C   UNL     1      11.661   3.819   2.407  0.00  0.00    +0.002 C 
ATOM     30  C   UNL     1      10.572   5.201   0.595  0.00  0.00    +0.002 C 
ATOM     31  C   UNL     1      10.381   4.088   1.620  0.00  0.00    +0.000 C 
ENDBRANCH   8  26
ENDBRANCH  23  24
ENDBRANCH  13  23
TORSDOF 7
ENDMDL
MODEL 7
REMARK VINA RESULT:      -6.1     27.546     31.539
REMARK  Name = 11883077
REMARK  9 active torsions:
REMARK  status: ('A' for Active; 'I' for Inactive)
REMARK    1  A    between atoms: O_2  and  C_15
REMARK    2  A    between atoms: O_3  and  C_20
REMARK    3  A    between atoms: N_8  and  C_26
REMARK    4  A    between atoms: C_10  and  C_18
REMARK    5  A    between atoms: C_12  and  C_20
REMARK    6  A    between atoms: C_12  and  C_21
REMARK    7  A    between atoms: C_13  and  C_23
REMARK    8  A    between atoms: C_23  and  C_24
REMARK    9  A    between atoms: C_32  and  C_33
REMARK                            x       y       z     vdW  Elec       q    Type
REMARK                         _______ _______ _______ _____ _____    ______ ____
ROOT
ATOM      1  S   UNL     1      -9.673 -10.173  13.493  0.00  0.00    -0.057 S 
ATOM      5  O   UNL     1      -6.024  -9.110  10.862  0.00  0.00    -0.266 OA
ATOM      7  N   UNL     1      -7.090 -10.068  13.403  0.00  0.00    -0.229 NA
ATOM      9  N   UNL     1      -8.275  -9.375  11.422  0.00  0.00    -0.258 N 
ATOM     10  C   UNL     1      -7.051 -11.006  17.142  0.00  0.00    -0.019 C 
ATOM     11  C   UNL     1      -8.390 -11.860  17.023  0.00  0.00    +0.011 C 
ATOM     12  C   UNL     1      -8.987 -12.447  18.360  0.00  0.00    +0.021 C 
ATOM     13  C   UNL     1      -6.406 -10.896  15.685  0.00  0.00    +0.054 C 
ATOM     14  C   UNL     1      -6.049 -11.746  18.066  0.00  0.00    +0.010 C 
ATOM     15  C   UNL     1      -7.846 -13.109  19.183  0.00  0.00    +0.123 C 
ATOM     16  C   UNL     1      -9.443 -11.144  16.127  0.00  0.00    +0.049 C 
ATOM     17  C   UNL     1      -6.647 -12.190  19.394  0.00  0.00    +0.032 C 
ATOM     18  C   UNL     1      -7.293  -9.585  17.707  0.00  0.00    +0.012 C 
ATOM     19  C   UNL     1      -7.444 -10.526  14.658  0.00  0.00    +0.058 A 
ATOM     21  C   UNL     1     -10.011 -13.564  18.010  0.00  0.00    +0.016 C 
ATOM     22  C   UNL     1      -8.801 -10.662  14.871  0.00  0.00    +0.015 A 
ATOM     25  C   UNL     1      -8.183  -9.842  12.705  0.00  0.00    +0.165 A 
ATOM     32  C   UNL     1      -7.211  -9.031  10.558  0.00  0.00    +0.285 C 
ATOM     40  H   UNL     1      -9.225  -9.266  11.073  0.00  0.00    +0.157 HD
ENDROOT
BRANCH  32  33
ATOM      6  O   UNL     1      -8.582  -7.552   9.207  0.00  0.00    -0.458 OA
ATOM     33  C   UNL     1      -7.620  -8.510   9.242  0.00  0.00    +0.189 A 
ATOM     34  C   UNL     1      -7.198  -8.817   7.969  0.00  0.00    +0.054 A 
ATOM     35  C   UNL     1      -7.950  -7.995   7.096  0.00  0.00    +0.042 A 
ATOM     36  C   UNL     1      -8.778  -7.244   7.898  0.00  0.00    +0.196 A 
ENDBRANCH  32  33
BRANCH  15   2
ATOM      2  O   UNL     1      -8.327 -13.536  20.456  0.00  0.00    -0.391 OA
ATOM     37  H   UNL     1      -8.222 -12.793  21.075  0.00  0.00    +0.210 HD
ENDBRANCH  15   2
BRANCH  12  20
ATOM     20  C   UNL     1      -9.763 -11.425  19.218  0.00  0.00    +0.165 C 
BRANCH  20   3
ATOM      3  O   UNL     1     -10.709 -12.136  19.986  0.00  0.00    -0.394 OA
ATOM     38  H   UNL     1     -11.572 -11.712  19.847  0.00  0.00    +0.209 HD
ENDBRANCH  20   3
ENDBRANCH  12  20
BRANCH  13  23
ATOM     23  C   UNL     1      -5.179  -9.977  15.599  0.00  0.00    +0.106 C 
BRANCH  23  24
ATOM      4  O   UNL     1      -3.217 -11.347  15.962  0.00  0.00    -0.276 OA
ATOM      8  N   UNL     1      -3.727 -10.621  13.814  0.00  0.00    -0.312 N 
ATOM     24  C   UNL     1      -3.936 -10.729  15.181  0.00  0.00    +0.214 C 
ATOM     39  H   UNL     1      -4.419 -10.132  13.254  0.00  0.00    +0.149 HD
BRANCH   8  26
ATOM     26  C   UNL     1      -2.611 -11.238  13.133  0.00  0.00    +0.073 C 
ATOM     27  C   UNL     1      -2.971 -12.648  12.652  0.00  0.00    +0.022 C 
ATOM     28  C   UNL     1      -2.120 -10.365  11.975  0.00  0.00    +0.022 C 
ATOM     29  C   UNL     1      -3.943 -12.634  11.473  0.00  0.00    +0.002 C 
ATOM     30  C   UNL     1      -3.094 -10.353  10.797  0.00  0.00    +0.002 C 
ATOM     31  C   UNL     1      -3.428 -11.765  10.329  0.00  0.00    +0.000 C 
ENDBRANCH   8  26
ENDBRANCH  23  24
ENDBRANCH  13  23
TORSDOF 7
ENDMDL
MODEL 8
REMARK VINA RESULT:      -6.1     16.211     19.861
REMARK  Name = 11883077
REMARK  9 active torsions:
REMARK  status: ('A' for Active; 'I' for Inactive)
REMARK    1  A    between atoms: O_2  and  C_15
REMARK    2  A    between atoms: O_3  and  C_20
REMARK    3  A    between atoms: N_8  and  C_26
REMARK    4  A    between atoms: C_10  and  C_18
REMARK    5  A    between atoms: C_12  and  C_20
REMARK    6  A    between atoms: C_12  and  C_21
REMARK    7  A    between atoms: C_13  and  C_23
REMARK    8  A    between atoms: C_23  and  C_24
REMARK    9  A    between atoms: C_32  and  C_33
REMARK                            x       y       z     vdW  Elec       q    Type
REMARK                         _______ _______ _______ _____ _____    ______ ____
ROOT
ATOM      1  S   UNL     1      17.600   5.948  19.604  0.00  0.00    -0.057 S 
ATOM      5  O   UNL     1      21.228   8.148  21.439  0.00  0.00    -0.266 OA
ATOM      7  N   UNL     1      18.372   8.080  20.847  0.00  0.00    -0.229 NA
ATOM      9  N   UNL     1      20.069   6.446  20.338  0.00  0.00    -0.258 N 
ATOM     10  C   UNL     1      14.804   9.472  20.407  0.00  0.00    -0.019 C 
ATOM     11  C   UNL     1      14.148   8.022  20.457  0.00  0.00    +0.011 C 
ATOM     12  C   UNL     1      12.595   7.929  20.195  0.00  0.00    +0.021 C 
ATOM     13  C   UNL     1      16.233   9.390  21.115  0.00  0.00    +0.054 C 
ATOM     14  C   UNL     1      13.919  10.465  21.204  0.00  0.00    +0.010 C 
ATOM     15  C   UNL     1      11.868   9.018  21.032  0.00  0.00    +0.123 C 
ATOM     16  C   UNL     1      14.984   6.991  19.644  0.00  0.00    +0.049 C 
ATOM     17  C   UNL     1      12.444  10.416  20.830  0.00  0.00    +0.032 C 
ATOM     18  C   UNL     1      14.974  10.005  18.963  0.00  0.00    +0.012 C 
ATOM     19  C   UNL     1      17.012   8.195  20.630  0.00  0.00    +0.058 A 
ATOM     21  C   UNL     1      12.080   6.547  20.688  0.00  0.00    +0.016 C 
ATOM     22  C   UNL     1      16.429   7.122  19.987  0.00  0.00    +0.015 A 
ATOM     25  C   UNL     1      18.792   6.940  20.343  0.00  0.00    +0.165 A 
ATOM     32  C   UNL     1      21.224   7.055  20.877  0.00  0.00    +0.285 C 
ATOM     40  H   UNL     1      20.176   5.540  19.887  0.00  0.00    +0.157 HD
ENDROOT
BRANCH  32  33
ATOM      6  O   UNL     1      22.387   4.963  20.476  0.00  0.00    -0.458 OA
ATOM     33  C   UNL     1      22.475   6.303  20.681  0.00  0.00    +0.189 A 
ATOM     34  C   UNL     1      23.789   6.709  20.661  0.00  0.00    +0.054 A 
ATOM     35  C   UNL     1      24.558   5.543  20.430  0.00  0.00    +0.042 A 
ATOM     36  C   UNL     1      23.659   4.507  20.325  0.00  0.00    +0.196 A 
ENDBRANCH  32  33
BRANCH  15   2
ATOM      2  O   UNL     1      10.476   9.047  20.719  0.00  0.00    -0.391 OA
ATOM     37  H   UNL     1       9.987   8.813  21.527  0.00  0.00    +0.210 HD
ENDBRANCH  15   2
BRANCH  12  20
ATOM     20  C   UNL     1      12.190   8.016  18.707  0.00  0.00    +0.165 C 
BRANCH  20   3
ATOM      3  O   UNL     1      12.026   6.701  18.225  0.00  0.00    -0.394 OA
ATOM     38  H   UNL     1      11.493   6.754  17.415  0.00  0.00    +0.209 HD
ENDBRANCH  20   3
ENDBRANCH  12  20
BRANCH  13  23
ATOM     23  C   UNL     1      17.065  10.677  21.024  0.00  0.00    +0.106 C 
BRANCH  23  24
ATOM      4  O   UNL     1      16.644  11.724  23.165  0.00  0.00    -0.276 OA
ATOM      8  N   UNL     1      18.797  11.028  22.631  0.00  0.00    -0.312 N 
ATOM     24  C   UNL     1      17.443  11.206  22.388  0.00  0.00    +0.214 C 
ATOM     39  H   UNL     1      19.354  10.534  21.941  0.00  0.00    +0.149 HD
BRANCH   8  26
ATOM     26  C   UNL     1      19.440  11.441  23.858  0.00  0.00    +0.073 C 
ATOM     27  C   UNL     1      20.750  10.676  24.078  0.00  0.00    +0.022 C 
ATOM     28  C   UNL     1      19.672  12.955  23.876  0.00  0.00    +0.022 C 
ATOM     29  C   UNL     1      21.852  11.113  23.115  0.00  0.00    +0.002 C 
ATOM     30  C   UNL     1      20.776  13.389  22.911  0.00  0.00    +0.002 C 
ATOM     31  C   UNL     1      22.072  12.623  23.157  0.00  0.00    +0.000 C 
ENDBRANCH   8  26
ENDBRANCH  23  24
ENDBRANCH  13  23
TORSDOF 7
ENDMDL
MODEL 9
REMARK VINA RESULT:      -6.1     27.570     31.142
REMARK  Name = 11883077
REMARK  9 active torsions:
REMARK  status: ('A' for Active; 'I' for Inactive)
REMARK    1  A    between atoms: O_2  and  C_15
REMARK    2  A    between atoms: O_3  and  C_20
REMARK    3  A    between atoms: N_8  and  C_26
REMARK    4  A    between atoms: C_10  and  C_18
REMARK    5  A    between atoms: C_12  and  C_20
REMARK    6  A    between atoms: C_12  and  C_21
REMARK    7  A    between atoms: C_13  and  C_23
REMARK    8  A    between atoms: C_23  and  C_24
REMARK    9  A    between atoms: C_32  and  C_33
REMARK                            x       y       z     vdW  Elec       q    Type
REMARK                         _______ _______ _______ _____ _____    ______ ____
ROOT
ATOM      1  S   UNL     1      -6.505 -10.395  10.681  0.00  0.00    -0.057 S 
ATOM      5  O   UNL     1     -10.716  -8.956  11.930  0.00  0.00    -0.266 OA
ATOM      7  N   UNL     1      -8.025  -9.790  12.685  0.00  0.00    -0.229 NA
ATOM      9  N   UNL     1      -8.996  -9.598  10.487  0.00  0.00    -0.258 N 
ATOM     10  C   UNL     1      -5.207 -11.001  15.021  0.00  0.00    -0.019 C 
ATOM     11  C   UNL     1      -4.066 -10.578  13.994  0.00  0.00    +0.011 C 
ATOM     12  C   UNL     1      -2.583 -10.959  14.374  0.00  0.00    +0.021 C 
ATOM     13  C   UNL     1      -6.519 -10.158  14.675  0.00  0.00    +0.054 C 
ATOM     14  C   UNL     1      -4.761 -10.642  16.463  0.00  0.00    +0.010 C 
ATOM     15  C   UNL     1      -2.320 -10.575  15.857  0.00  0.00    +0.123 C 
ATOM     16  C   UNL     1      -4.453 -10.946  12.531  0.00  0.00    +0.049 C 
ATOM     17  C   UNL     1      -3.365 -11.134  16.817  0.00  0.00    +0.032 C 
ATOM     18  C   UNL     1      -5.536 -12.513  14.965  0.00  0.00    +0.012 C 
ATOM     19  C   UNL     1      -6.798 -10.172  13.194  0.00  0.00    +0.058 A 
ATOM     21  C   UNL     1      -1.606 -10.122  13.500  0.00  0.00    +0.016 C 
ATOM     22  C   UNL     1      -5.851 -10.512  12.249  0.00  0.00    +0.015 A 
ATOM     25  C   UNL     1      -7.989  -9.875  11.372  0.00  0.00    +0.165 A 
ATOM     32  C   UNL     1     -10.303  -9.154  10.790  0.00  0.00    +0.285 C 
ATOM     40  H   UNL     1      -8.756  -9.737   9.508  0.00  0.00    +0.157 HD
ENDROOT
BRANCH  32  33
ATOM      6  O   UNL     1     -11.877  -7.815   9.517  0.00  0.00    -0.458 OA
ATOM     33  C   UNL     1     -11.188  -8.981   9.625  0.00  0.00    +0.189 A 
ATOM     34  C   UNL     1     -11.472  -9.809   8.564  0.00  0.00    +0.054 A 
ATOM     35  C   UNL     1     -12.395  -9.108   7.753  0.00  0.00    +0.042 A 
ATOM     36  C   UNL     1     -12.609  -7.900   8.375  0.00  0.00    +0.196 A 
ENDBRANCH  32  33
BRANCH  15   2
ATOM      2  O   UNL     1      -1.030 -11.023  16.271  0.00  0.00    -0.391 OA
ATOM     37  H   UNL     1      -0.418 -10.885  15.529  0.00  0.00    +0.210 HD
ENDBRANCH  15   2
BRANCH  12  20
ATOM     20  C   UNL     1      -2.213 -12.436  14.113  0.00  0.00    +0.165 C 
BRANCH  20   3
ATOM      3  O   UNL     1      -1.422 -12.484  12.947  0.00  0.00    -0.394 OA
ATOM     38  H   UNL     1      -0.507 -12.657  13.225  0.00  0.00    +0.209 HD
ENDBRANCH  20   3
ENDBRANCH  12  20
BRANCH  13  23
ATOM     23  C   UNL     1      -7.763 -10.553  15.484  0.00  0.00    +0.106 C 
BRANCH  23  24
ATOM      4  O   UNL     1      -7.752  -9.256  17.527  0.00  0.00    -0.276 OA
ATOM      8  N   UNL     1      -9.212  -8.682  15.811  0.00  0.00    -0.312 N 
ATOM     24  C   UNL     1      -8.215  -9.443  16.404  0.00  0.00    +0.214 C 
ATOM     39  H   UNL     1      -9.478  -8.892  14.854  0.00  0.00    +0.149 HD
BRANCH   8  26
ATOM     26  C   UNL     1      -9.836  -7.552  16.462  0.00  0.00    +0.073 C 
ATOM     27  C   UNL     1     -10.411  -6.573  15.434  0.00  0.00    +0.022 C 
ATOM     28  C   UNL     1     -10.911  -8.011  17.452  0.00  0.00    +0.022 C 
ATOM     29  C   UNL     1     -11.657  -7.118  14.737  0.00  0.00    +0.002 C 
ATOM     30  C   UNL     1     -12.157  -8.557  16.753  0.00  0.00    +0.002 C 
ATOM     31  C   UNL     1     -12.716  -7.560  15.743  0.00  0.00    +0.000 C 
ENDBRANCH   8  26
ENDBRANCH  23  24
ENDBRANCH  13  23
TORSDOF 7
ENDMDL
MODEL 10
REMARK VINA RESULT:      -5.9     14.473     17.392
REMARK  Name = 11883077
REMARK  9 active torsions:
REMARK  status: ('A' for Active; 'I' for Inactive)
REMARK    1  A    between atoms: O_2  and  C_15
REMARK    2  A    between atoms: O_3  and  C_20
REMARK    3  A    between atoms: N_8  and  C_26
REMARK    4  A    between atoms: C_10  and  C_18
REMARK    5  A    between atoms: C_12  and  C_20
REMARK    6  A    between atoms: C_12  and  C_21
REMARK    7  A    between atoms: C_13  and  C_23
REMARK    8  A    between atoms: C_23  and  C_24
REMARK    9  A    between atoms: C_32  and  C_33
REMARK                            x       y       z     vdW  Elec       q    Type
REMARK                         _______ _______ _______ _____ _____    ______ ____
ROOT
ATOM      1  S   UNL     1      13.458  14.619  17.748  0.00  0.00    -0.057 S 
ATOM      5  O   UNL     1      15.752  11.308  15.481  0.00  0.00    -0.266 OA
ATOM      7  N   UNL     1      14.332  12.187  17.872  0.00  0.00    -0.229 NA
ATOM      9  N   UNL     1      14.789  13.404  15.842  0.00  0.00    -0.258 N 
ATOM     10  C   UNL     1      13.168  12.095  21.546  0.00  0.00    -0.019 C 
ATOM     11  C   UNL     1      11.967  13.104  21.274  0.00  0.00    +0.011 C 
ATOM     12  C   UNL     1      11.129  13.575  22.525  0.00  0.00    +0.021 C 
ATOM     13  C   UNL     1      13.574  11.425  20.154  0.00  0.00    +0.054 C 
ATOM     14  C   UNL     1      12.691  10.974  22.507  0.00  0.00    +0.010 C 
ATOM     15  C   UNL     1      10.777  12.340  23.400  0.00  0.00    +0.123 C 
ATOM     16  C   UNL     1      12.403  14.267  20.337  0.00  0.00    +0.049 C 
ATOM     17  C   UNL     1      11.991  11.489  23.757  0.00  0.00    +0.032 C 
ATOM     18  C   UNL     1      14.406  12.788  22.166  0.00  0.00    +0.012 C 
ATOM     19  C   UNL     1      13.696  12.463  19.068  0.00  0.00    +0.058 A 
ATOM     21  C   UNL     1       9.789  14.192  22.034  0.00  0.00    +0.016 C 
ATOM     22  C   UNL     1      13.147  13.726  19.163  0.00  0.00    +0.015 A 
ATOM     25  C   UNL     1      14.274  13.253  17.102  0.00  0.00    +0.165 A 
ATOM     32  C   UNL     1      15.497  12.443  15.087  0.00  0.00    +0.285 C 
ATOM     40  H   UNL     1      14.637  14.319  15.424  0.00  0.00    +0.157 HD
ENDROOT
BRANCH  32  33
ATOM      6  O   UNL     1      15.959  12.025  12.741  0.00  0.00    -0.458 OA
ATOM     33  C   UNL     1      15.971  12.910  13.772  0.00  0.00    +0.189 A 
ATOM     34  C   UNL     1      16.448  14.131  13.355  0.00  0.00    +0.054 A 
ATOM     35  C   UNL     1      16.750  13.987  11.979  0.00  0.00    +0.042 A 
ATOM     36  C   UNL     1      16.435  12.688  11.653  0.00  0.00    +0.196 A 
ENDBRANCH  32  33
BRANCH  15   2
ATOM      2  O   UNL     1      10.131  12.746  24.606  0.00  0.00    -0.391 OA
ATOM     37  H   UNL     1       9.844  13.668  24.491  0.00  0.00    +0.210 HD
ENDBRANCH  15   2
BRANCH  12  20
ATOM     20  C   UNL     1      11.807  14.675  23.372  0.00  0.00    +0.165 C 
BRANCH  20   3
ATOM      3  O   UNL     1      10.792  15.491  23.912  0.00  0.00    -0.394 OA
ATOM     38  H   UNL     1      11.227  16.217  24.390  0.00  0.00    +0.209 HD
ENDBRANCH  20   3
ENDBRANCH  12  20
BRANCH  13  23
ATOM     23  C   UNL     1      14.820  10.530  20.217  0.00  0.00    +0.106 C 
BRANCH  23  24
ATOM      4  O   UNL     1      14.892   8.115  20.077  0.00  0.00    -0.276 OA
ATOM      8  N   UNL     1      13.989   9.339  18.320  0.00  0.00    -0.312 N 
ATOM     24  C   UNL     1      14.586   9.188  19.563  0.00  0.00    +0.214 C 
ATOM     39  H   UNL     1      13.726  10.272  18.018  0.00  0.00    +0.149 HD
BRANCH   8  26
ATOM     26  C   UNL     1      13.649   8.223  17.465  0.00  0.00    +0.073 C 
ATOM     27  C   UNL     1      12.276   7.650  17.828  0.00  0.00    +0.022 C 
ATOM     28  C   UNL     1      13.712   8.623  15.987  0.00  0.00    +0.022 C 
ATOM     29  C   UNL     1      11.129   8.573  17.419  0.00  0.00    +0.002 C 
ATOM     30  C   UNL     1      12.563   9.546  15.581  0.00  0.00    +0.002 C 
ATOM     31  C   UNL     1      11.207   8.949  15.942  0.00  0.00    +0.000 C 
ENDBRANCH   8  26
ENDBRANCH  23  24
ENDBRANCH  13  23
TORSDOF 7
ENDMDL
