MODEL 1
REMARK VINA RESULT:      -7.6      0.000      0.000
REMARK  Name = 7142800
REMARK  6 active torsions:
REMARK  status: ('A' for Active; 'I' for Inactive)
REMARK    1  A    between atoms: N_3  and  C_13
REMARK    2  A    between atoms: N_5  and  C_17
REMARK    3  A    between atoms: C_13  and  C_16
REMARK    4  A    between atoms: C_16  and  C_22
REMARK    5  A    between atoms: C_19  and  C_26
REMARK    6  A    between atoms: C_22  and  C_27
REMARK                            x       y       z     vdW  Elec       q    Type
REMARK                         _______ _______ _______ _____ _____    ______ ____
ROOT
ATOM      1  O   UNL     1     -12.762   4.743  22.725  0.00  0.00    -0.266 OA
ATOM      3  N   UNL     1     -13.286   9.540  21.363  0.00  0.00    -0.301 NA
ATOM      4  N   UNL     1     -13.440   6.358  21.176  0.00  0.00    -0.310 N 
ATOM      6  C   UNL     1     -11.808   7.988  20.062  0.00  0.00    +0.024 C 
ATOM      7  C   UNL     1     -14.195   8.106  19.530  0.00  0.00    +0.050 C 
ATOM      8  C   UNL     1     -12.805   7.969  18.912  0.00  0.00    +0.017 C 
ATOM      9  C   UNL     1     -11.930   9.311  20.847  0.00  0.00    +0.089 C 
ATOM     10  C   UNL     1     -14.291   9.446  20.293  0.00  0.00    +0.094 C 
ATOM     11  C   UNL     1     -12.044   6.755  20.945  0.00  0.00    +0.130 C 
ATOM     12  C   UNL     1     -14.488   6.942  20.459  0.00  0.00    +0.026 A 
ATOM     14  C   UNL     1     -15.744   6.490  20.607  0.00  0.00    +0.024 A 
ATOM     15  C   UNL     1     -13.655   5.300  22.082  0.00  0.00    +0.273 A 
ATOM     17  C   UNL     1     -15.072   4.840  22.236  0.00  0.00    +0.099 A 
ATOM     18  C   UNL     1     -16.038   5.418  21.516  0.00  0.00    +0.030 A 
ENDROOT
BRANCH  17   5
ATOM      2  O   UNL     1     -16.282   5.082  24.827  0.00  0.00    -0.275 OA
ATOM      5  N   UNL     1     -15.324   3.825  23.112  0.00  0.00    -0.281 N 
ATOM     26  C   UNL     1     -15.924   4.009  24.347  0.00  0.00    +0.220 C 
ATOM     33  H   UNL     1     -14.852   2.941  22.935  0.00  0.00    +0.155 HD
BRANCH  26  19
ATOM     19  C   UNL     1     -16.079   2.722  25.104  0.00  0.00    +0.075 C 
ATOM     20  C   UNL     1     -17.281   1.943  24.566  0.00  0.00    +0.013 C 
ATOM     21  C   UNL     1     -16.222   3.012  26.600  0.00  0.00    +0.013 C 
ATOM     23  C   UNL     1     -17.533   0.670  25.370  0.00  0.00    +0.001 C 
ATOM     24  C   UNL     1     -16.476   1.736  27.398  0.00  0.00    +0.001 C 
ATOM     25  C   UNL     1     -17.678   0.964  26.859  0.00  0.00    +0.000 C 
ENDBRANCH  26  19
ENDBRANCH  17   5
BRANCH   3  13
ATOM     13  C   UNL     1     -13.374  10.824  22.054  0.00  0.00    +0.085 C 
BRANCH  13  16
ATOM     16  C   UNL     1     -12.217  10.977  23.040  0.00  0.00    +0.020 C 
BRANCH  16  22
ATOM     22  C   UNL     1     -12.648  11.778  24.272  0.00  0.00    +0.036 C 
BRANCH  22  27
ATOM     27  C   UNL     1     -12.170  11.135  25.549  0.00  0.00    -0.047 A 
ATOM     28  C   UNL     1     -10.847  10.707  25.661  0.00  0.00    +0.003 A 
ATOM     29  C   UNL     1     -13.050  10.968  26.619  0.00  0.00    +0.003 A 
ATOM     30  C   UNL     1     -10.405  10.112  26.843  0.00  0.00    +0.000 A 
ATOM     31  C   UNL     1     -12.608  10.374  27.800  0.00  0.00    +0.000 A 
ATOM     32  C   UNL     1     -11.285   9.946  27.912  0.00  0.00    +0.000 A 
ENDBRANCH  22  27
ENDBRANCH  16  22
ENDBRANCH  13  16
ENDBRANCH   3  13
TORSDOF 6
ENDMDL
MODEL 2
REMARK VINA RESULT:      -7.5     16.175     18.940
REMARK  Name = 7142800
REMARK  6 active torsions:
REMARK  status: ('A' for Active; 'I' for Inactive)
REMARK    1  A    between atoms: N_3  and  C_13
REMARK    2  A    between atoms: N_5  and  C_17
REMARK    3  A    between atoms: C_13  and  C_16
REMARK    4  A    between atoms: C_16  and  C_22
REMARK    5  A    between atoms: C_19  and  C_26
REMARK    6  A    between atoms: C_22  and  C_27
REMARK                            x       y       z     vdW  Elec       q    Type
REMARK                         _______ _______ _______ _____ _____    ______ ____
ROOT
ATOM      1  O   UNL     1      -9.351  -9.112  14.165  0.00  0.00    -0.266 OA
ATOM      3  N   UNL     1     -12.339  -5.320  12.815  0.00  0.00    -0.301 NA
ATOM      4  N   UNL     1     -11.338  -7.904  14.398  0.00  0.00    -0.310 N 
ATOM      6  C   UNL     1     -13.071  -7.700  12.521  0.00  0.00    +0.024 C 
ATOM      7  C   UNL     1     -13.461  -6.576  14.661  0.00  0.00    +0.050 C 
ATOM      8  C   UNL     1     -14.070  -7.555  13.660  0.00  0.00    +0.017 C 
ATOM      9  C   UNL     1     -12.819  -6.328  11.861  0.00  0.00    +0.089 C 
ATOM     10  C   UNL     1     -13.237  -5.209  13.976  0.00  0.00    +0.094 C 
ATOM     11  C   UNL     1     -11.785  -8.337  13.066  0.00  0.00    +0.130 C 
ATOM     12  C   UNL     1     -12.154  -7.115  15.214  0.00  0.00    +0.026 A 
ATOM     14  C   UNL     1     -11.773  -6.820  16.468  0.00  0.00    +0.024 A 
ATOM     15  C   UNL     1     -10.097  -8.401  14.842  0.00  0.00    +0.273 A 
ATOM     17  C   UNL     1      -9.698  -8.031  16.238  0.00  0.00    +0.099 A 
ATOM     18  C   UNL     1     -10.519  -7.288  16.986  0.00  0.00    +0.030 A 
ENDROOT
BRANCH  17   5
ATOM      2  O   UNL     1      -9.265 -10.348  17.876  0.00  0.00    -0.275 OA
ATOM      5  N   UNL     1      -8.498  -8.484  16.701  0.00  0.00    -0.281 N 
ATOM     26  C   UNL     1      -8.356  -9.621  17.482  0.00  0.00    +0.220 C 
ATOM     33  H   UNL     1      -7.715  -7.837  16.652  0.00  0.00    +0.155 HD
BRANCH  26  19
ATOM     19  C   UNL     1      -6.926  -9.885  17.851  0.00  0.00    +0.075 C 
ATOM     20  C   UNL     1      -6.055  -9.888  16.593  0.00  0.00    +0.013 C 
ATOM     21  C   UNL     1      -6.820 -11.209  18.610  0.00  0.00    +0.013 C 
ATOM     23  C   UNL     1      -4.606 -10.246  16.911  0.00  0.00    +0.001 C 
ATOM     24  C   UNL     1      -5.368 -11.564  18.923  0.00  0.00    +0.001 C 
ATOM     25  C   UNL     1      -4.505 -11.569  17.664  0.00  0.00    +0.000 C 
ENDBRANCH  26  19
ENDBRANCH  17   5
BRANCH   3  13
ATOM     13  C   UNL     1     -12.163  -4.024  12.164  0.00  0.00    +0.085 C 
BRANCH  13  16
ATOM     16  C   UNL     1     -12.587  -4.104  10.699  0.00  0.00    +0.020 C 
BRANCH  16  22
ATOM     22  C   UNL     1     -11.467  -3.615   9.775  0.00  0.00    +0.036 C 
BRANCH  22  27
ATOM     27  C   UNL     1     -10.912  -4.735   8.933  0.00  0.00    -0.047 A 
ATOM     28  C   UNL     1      -9.534  -4.856   8.753  0.00  0.00    +0.003 A 
ATOM     29  C   UNL     1     -11.777  -5.652   8.332  0.00  0.00    +0.003 A 
ATOM     30  C   UNL     1      -9.021  -5.893   7.973  0.00  0.00    +0.000 A 
ATOM     31  C   UNL     1     -11.263  -6.688   7.552  0.00  0.00    +0.000 A 
ATOM     32  C   UNL     1      -9.885  -6.808   7.373  0.00  0.00    +0.000 A 
ENDBRANCH  22  27
ENDBRANCH  16  22
ENDBRANCH  13  16
ENDBRANCH   3  13
TORSDOF 6
ENDMDL
MODEL 3
REMARK VINA RESULT:      -7.4     29.675     33.568
REMARK  Name = 7142800
REMARK  6 active torsions:
REMARK  status: ('A' for Active; 'I' for Inactive)
REMARK    1  A    between atoms: N_3  and  C_13
REMARK    2  A    between atoms: N_5  and  C_17
REMARK    3  A    between atoms: C_13  and  C_16
REMARK    4  A    between atoms: C_16  and  C_22
REMARK    5  A    between atoms: C_19  and  C_26
REMARK    6  A    between atoms: C_22  and  C_27
REMARK                            x       y       z     vdW  Elec       q    Type
REMARK                         _______ _______ _______ _____ _____    ______ ____
ROOT
ATOM      1  O   UNL     1      10.622   3.948   2.555  0.00  0.00    -0.266 OA
ATOM      3  N   UNL     1       9.051   7.761   5.406  0.00  0.00    -0.301 NA
ATOM      4  N   UNL     1      10.965   5.456   4.307  0.00  0.00    -0.310 N 
ATOM      6  C   UNL     1       9.498   5.507   6.408  0.00  0.00    +0.024 C 
ATOM      7  C   UNL     1      11.338   7.106   6.173  0.00  0.00    +0.050 C 
ATOM      8  C   UNL     1      10.752   6.036   7.091  0.00  0.00    +0.017 C 
ATOM      9  C   UNL     1       8.489   6.654   6.191  0.00  0.00    +0.089 C 
ATOM     10  C   UNL     1      10.311   8.247   5.989  0.00  0.00    +0.094 C 
ATOM     11  C   UNL     1       9.900   4.819   5.095  0.00  0.00    +0.130 C 
ATOM     12  C   UNL     1      11.719   6.512   4.829  0.00  0.00    +0.026 A 
ATOM     14  C   UNL     1      12.757   7.008   4.136  0.00  0.00    +0.024 A 
ATOM     15  C   UNL     1      11.248   4.889   3.049  0.00  0.00    +0.273 A 
ATOM     17  C   UNL     1      12.398   5.485   2.298  0.00  0.00    +0.099 A 
ATOM     18  C   UNL     1      13.100   6.483   2.845  0.00  0.00    +0.030 A 
ENDROOT
BRANCH  17   5
ATOM      2  O   UNL     1      14.054   3.203   1.760  0.00  0.00    -0.275 OA
ATOM      5  N   UNL     1      12.697   4.971   1.071  0.00  0.00    -0.281 N 
ATOM     26  C   UNL     1      13.496   3.855   0.880  0.00  0.00    +0.220 C 
ATOM     33  H   UNL     1      12.502   5.564   0.268  0.00  0.00    +0.155 HD
BRANCH  26  19
ATOM     19  C   UNL     1      13.659   3.510  -0.571  0.00  0.00    +0.075 C 
ATOM     20  C   UNL     1      14.217   4.714  -1.333  0.00  0.00    +0.013 C 
ATOM     21  C   UNL     1      12.320   3.052  -1.151  0.00  0.00    +0.013 C 
ATOM     23  C   UNL     1      14.311   4.440  -2.832  0.00  0.00    +0.001 C 
ATOM     24  C   UNL     1      12.418   2.781  -2.650  0.00  0.00    +0.001 C 
ATOM     25  C   UNL     1      12.972   3.986  -3.405  0.00  0.00    +0.000 C 
ENDBRANCH  26  19
ENDBRANCH  17   5
BRANCH   3  13
ATOM     13  C   UNL     1       8.085   8.848   5.267  0.00  0.00    +0.085 C 
BRANCH  13  16
ATOM     16  C   UNL     1       7.950   9.255   3.801  0.00  0.00    +0.020 C 
BRANCH  16  22
ATOM     22  C   UNL     1       8.304   8.090   2.872  0.00  0.00    +0.036 C 
BRANCH  22  27
ATOM     27  C   UNL     1       9.511   8.400   2.025  0.00  0.00    -0.047 A 
ATOM     28  C   UNL     1      10.409   9.389   2.425  0.00  0.00    +0.003 A 
ATOM     29  C   UNL     1       9.730   7.698   0.838  0.00  0.00    +0.003 A 
ATOM     30  C   UNL     1      11.527   9.676   1.640  0.00  0.00    +0.000 A 
ATOM     31  C   UNL     1      10.847   7.985   0.054  0.00  0.00    +0.000 A 
ATOM     32  C   UNL     1      11.745   8.974   0.455  0.00  0.00    +0.000 A 
ENDBRANCH  22  27
ENDBRANCH  16  22
ENDBRANCH  13  16
ENDBRANCH   3  13
TORSDOF 6
ENDMDL
MODEL 4
REMARK VINA RESULT:      -7.4     27.598     30.930
REMARK  Name = 7142800
REMARK  6 active torsions:
REMARK  status: ('A' for Active; 'I' for Inactive)
REMARK    1  A    between atoms: N_3  and  C_13
REMARK    2  A    between atoms: N_5  and  C_17
REMARK    3  A    between atoms: C_13  and  C_16
REMARK    4  A    between atoms: C_16  and  C_22
REMARK    5  A    between atoms: C_19  and  C_26
REMARK    6  A    between atoms: C_22  and  C_27
REMARK                            x       y       z     vdW  Elec       q    Type
REMARK                         _______ _______ _______ _____ _____    ______ ____
ROOT
ATOM      1  O   UNL     1      13.962  11.971  17.967  0.00  0.00    -0.266 OA
ATOM      3  N   UNL     1      13.841   8.095  21.143  0.00  0.00    -0.301 NA
ATOM      4  N   UNL     1      13.073   9.917  18.638  0.00  0.00    -0.310 N 
ATOM      6  C   UNL     1      11.849   9.592  20.866  0.00  0.00    +0.024 C 
ATOM      7  C   UNL     1      12.144   7.689  19.354  0.00  0.00    +0.050 C 
ATOM      8  C   UNL     1      11.100   8.493  20.125  0.00  0.00    +0.017 C 
ATOM      9  C   UNL     1      12.883   8.971  21.829  0.00  0.00    +0.089 C 
ATOM     10  C   UNL     1      13.153   7.067  20.346  0.00  0.00    +0.094 C 
ATOM     11  C   UNL     1      12.492  10.534  19.839  0.00  0.00    +0.130 C 
ATOM     12  C   UNL     1      12.862   8.566  18.345  0.00  0.00    +0.026 A 
ATOM     14  C   UNL     1      13.310   8.047  17.190  0.00  0.00    +0.024 A 
ATOM     15  C   UNL     1      13.765  10.772  17.758  0.00  0.00    +0.273 A 
ATOM     17  C   UNL     1      14.268  10.150  16.492  0.00  0.00    +0.099 A 
ATOM     18  C   UNL     1      14.028   8.858  16.248  0.00  0.00    +0.030 A 
ENDROOT
BRANCH  17   5
ATOM      2  O   UNL     1      13.208  11.418  14.146  0.00  0.00    -0.275 OA
ATOM      5  N   UNL     1      14.954  10.942  15.619  0.00  0.00    -0.281 N 
ATOM     26  C   UNL     1      14.377  11.536  14.507  0.00  0.00    +0.220 C 
ATOM     33  H   UNL     1      15.969  10.910  15.672  0.00  0.00    +0.155 HD
BRANCH  26  19
ATOM     19  C   UNL     1      15.361  12.353  13.721  0.00  0.00    +0.075 C 
ATOM     20  C   UNL     1      15.120  12.158  12.223  0.00  0.00    +0.013 C 
ATOM     21  C   UNL     1      16.788  11.969  14.115  0.00  0.00    +0.013 C 
ATOM     23  C   UNL     1      16.159  12.898  11.384  0.00  0.00    +0.001 C 
ATOM     24  C   UNL     1      17.823  12.709  13.272  0.00  0.00    +0.001 C 
ATOM     25  C   UNL     1      17.581  12.509  11.778  0.00  0.00    +0.000 C 
ENDBRANCH  26  19
ENDBRANCH  17   5
BRANCH   3  13
ATOM     13  C   UNL     1      14.768   7.486  22.094  0.00  0.00    +0.085 C 
BRANCH  13  16
ATOM     16  C   UNL     1      15.874   6.737  21.352  0.00  0.00    +0.020 C 
BRANCH  16  22
ATOM     22  C   UNL     1      17.047   7.667  21.030  0.00  0.00    +0.036 C 
BRANCH  22  27
ATOM     27  C   UNL     1      18.367   6.942  21.096  0.00  0.00    -0.047 A 
ATOM     28  C   UNL     1      18.629   5.889  20.219  0.00  0.00    +0.003 A 
ATOM     29  C   UNL     1      19.327   7.323  22.034  0.00  0.00    +0.003 A 
ATOM     30  C   UNL     1      19.850   5.218  20.280  0.00  0.00    +0.000 A 
ATOM     31  C   UNL     1      20.548   6.651  22.095  0.00  0.00    +0.000 A 
ATOM     32  C   UNL     1      20.809   5.599  21.217  0.00  0.00    +0.000 A 
ENDBRANCH  22  27
ENDBRANCH  16  22
ENDBRANCH  13  16
ENDBRANCH   3  13
TORSDOF 6
ENDMDL
MODEL 5
REMARK VINA RESULT:      -7.3     31.605     35.598
REMARK  Name = 7142800
REMARK  6 active torsions:
REMARK  status: ('A' for Active; 'I' for Inactive)
REMARK    1  A    between atoms: N_3  and  C_13
REMARK    2  A    between atoms: N_5  and  C_17
REMARK    3  A    between atoms: C_13  and  C_16
REMARK    4  A    between atoms: C_16  and  C_22
REMARK    5  A    between atoms: C_19  and  C_26
REMARK    6  A    between atoms: C_22  and  C_27
REMARK                            x       y       z     vdW  Elec       q    Type
REMARK                         _______ _______ _______ _____ _____    ______ ____
ROOT
ATOM      1  O   UNL     1      15.112   7.279   6.637  0.00  0.00    -0.266 OA
ATOM      3  N   UNL     1      11.037   5.606   4.244  0.00  0.00    -0.301 NA
ATOM      4  N   UNL     1      13.168   7.679   5.403  0.00  0.00    -0.310 N 
ATOM      6  C   UNL     1      10.828   7.081   6.260  0.00  0.00    +0.024 C 
ATOM      7  C   UNL     1      11.089   8.096   4.046  0.00  0.00    +0.050 C 
ATOM      8  C   UNL     1      10.373   8.244   5.387  0.00  0.00    +0.017 C 
ATOM      9  C   UNL     1      10.462   5.741   5.588  0.00  0.00    +0.089 C 
ATOM     10  C   UNL     1      10.688   6.754   3.393  0.00  0.00    +0.094 C 
ATOM     11  C   UNL     1      12.334   7.217   6.522  0.00  0.00    +0.130 C 
ATOM     12  C   UNL     1      12.593   8.172   4.228  0.00  0.00    +0.026 A 
ATOM     14  C   UNL     1      13.370   8.689   3.261  0.00  0.00    +0.024 A 
ATOM     15  C   UNL     1      14.561   7.688   5.613  0.00  0.00    +0.273 A 
ATOM     17  C   UNL     1      15.393   8.251   4.502  0.00  0.00    +0.099 A 
ATOM     18  C   UNL     1      14.797   8.726   3.403  0.00  0.00    +0.030 A 
ENDROOT
BRANCH  17   5
ATOM      2  O   UNL     1      16.944  10.339   5.715  0.00  0.00    -0.275 OA
ATOM      5  N   UNL     1      16.748   8.267   4.661  0.00  0.00    -0.281 N 
ATOM     26  C   UNL     1      17.436   9.305   5.269  0.00  0.00    +0.220 C 
ATOM     33  H   UNL     1      17.280   7.593   4.117  0.00  0.00    +0.155 HD
BRANCH  26  19
ATOM     19  C   UNL     1      18.917   9.062   5.309  0.00  0.00    +0.075 C 
ATOM     20  C   UNL     1      19.316   8.098   4.191  0.00  0.00    +0.013 C 
ATOM     21  C   UNL     1      19.319   8.525   6.684  0.00  0.00    +0.013 C 
ATOM     23  C   UNL     1      20.801   7.748   4.252  0.00  0.00    +0.001 C 
ATOM     24  C   UNL     1      20.804   8.174   6.739  0.00  0.00    +0.001 C 
ATOM     25  C   UNL     1      21.196   7.209   5.624  0.00  0.00    +0.000 C 
ENDBRANCH  26  19
ENDBRANCH  17   5
BRANCH   3  13
ATOM     13  C   UNL     1      10.625   4.349   3.622  0.00  0.00    +0.085 C 
BRANCH  13  16
ATOM     16  C   UNL     1      11.156   4.266   2.192  0.00  0.00    +0.020 C 
BRANCH  16  22
ATOM     22  C   UNL     1      12.151   3.111   2.041  0.00  0.00    +0.036 C 
BRANCH  22  27
ATOM     27  C   UNL     1      13.269   3.460   1.092  0.00  0.00    -0.047 A 
ATOM     28  C   UNL     1      13.000   3.646  -0.264  0.00  0.00    +0.003 A 
ATOM     29  C   UNL     1      14.573   3.596   1.569  0.00  0.00    +0.003 A 
ATOM     30  C   UNL     1      14.035   3.969  -1.142  0.00  0.00    +0.000 A 
ATOM     31  C   UNL     1      15.608   3.918   0.691  0.00  0.00    +0.000 A 
ATOM     32  C   UNL     1      15.338   4.105  -0.665  0.00  0.00    +0.000 A 
ENDBRANCH  22  27
ENDBRANCH  16  22
ENDBRANCH  13  16
ENDBRANCH   3  13
TORSDOF 6
ENDMDL
MODEL 6
REMARK VINA RESULT:      -7.3     29.748     32.956
REMARK  Name = 7142800
REMARK  6 active torsions:
REMARK  status: ('A' for Active; 'I' for Inactive)
REMARK    1  A    between atoms: N_3  and  C_13
REMARK    2  A    between atoms: N_5  and  C_17
REMARK    3  A    between atoms: C_13  and  C_16
REMARK    4  A    between atoms: C_16  and  C_22
REMARK    5  A    between atoms: C_19  and  C_26
REMARK    6  A    between atoms: C_22  and  C_27
REMARK                            x       y       z     vdW  Elec       q    Type
REMARK                         _______ _______ _______ _____ _____    ______ ____
ROOT
ATOM      1  O   UNL     1       0.780   3.667  -4.381  0.00  0.00    -0.266 OA
ATOM      3  N   UNL     1       3.088   7.918  -5.699  0.00  0.00    -0.301 NA
ATOM      4  N   UNL     1       2.593   4.785  -5.343  0.00  0.00    -0.310 N 
ATOM      6  C   UNL     1       4.114   6.367  -4.019  0.00  0.00    +0.024 C 
ATOM      7  C   UNL     1       4.526   6.000  -6.405  0.00  0.00    +0.050 C 
ATOM      8  C   UNL     1       5.178   5.947  -5.025  0.00  0.00    +0.017 C 
ATOM      9  C   UNL     1       3.619   7.793  -4.336  0.00  0.00    +0.089 C 
ATOM     10  C   UNL     1       4.057   7.443  -6.699  0.00  0.00    +0.094 C 
ATOM     11  C   UNL     1       2.980   5.332  -4.034  0.00  0.00    +0.130 C 
ATOM     12  C   UNL     1       3.358   5.034  -6.486  0.00  0.00    +0.026 A 
ATOM     14  C   UNL     1       3.049   4.438  -7.649  0.00  0.00    +0.024 A 
ATOM     15  C   UNL     1       1.475   3.928  -5.365  0.00  0.00    +0.273 A 
ATOM     17  C   UNL     1       1.150   3.302  -6.686  0.00  0.00    +0.099 A 
ATOM     18  C   UNL     1       1.920   3.556  -7.748  0.00  0.00    +0.030 A 
ENDROOT
BRANCH  17   5
ATOM      2  O   UNL     1       1.075   0.529  -5.950  0.00  0.00    -0.275 OA
ATOM      5  N   UNL     1       0.068   2.474  -6.752  0.00  0.00    -0.281 N 
ATOM     26  C   UNL     1       0.096   1.142  -6.368  0.00  0.00    +0.220 C 
ATOM     33  H   UNL     1      -0.720   2.795  -7.309  0.00  0.00    +0.155 HD
BRANCH  26  19
ATOM     19  C   UNL     1      -1.233   0.468  -6.547  0.00  0.00    +0.075 C 
ATOM     20  C   UNL     1      -1.065  -1.050  -6.450  0.00  0.00    +0.013 C 
ATOM     21  C   UNL     1      -1.850   0.879  -7.885  0.00  0.00    +0.013 C 
ATOM     23  C   UNL     1      -2.377  -1.781  -6.719  0.00  0.00    +0.001 C 
ATOM     24  C   UNL     1      -3.161   0.144  -8.151  0.00  0.00    +0.001 C 
ATOM     25  C   UNL     1      -2.986  -1.370  -8.056  0.00  0.00    +0.000 C 
ENDBRANCH  26  19
ENDBRANCH  17   5
BRANCH   3  13
ATOM     13  C   UNL     1       2.679   9.292  -5.979  0.00  0.00    +0.085 C 
BRANCH  13  16
ATOM     16  C   UNL     1       1.915   9.871  -4.789  0.00  0.00    +0.020 C 
BRANCH  16  22
ATOM     22  C   UNL     1       0.787  10.795  -5.258  0.00  0.00    +0.036 C 
BRANCH  22  27
ATOM     27  C   UNL     1      -0.428  10.684  -4.372  0.00  0.00    -0.047 A 
ATOM     28  C   UNL     1      -0.360   9.959  -3.182  0.00  0.00    +0.003 A 
ATOM     29  C   UNL     1      -1.621  11.306  -4.743  0.00  0.00    +0.003 A 
ATOM     30  C   UNL     1      -1.484   9.857  -2.363  0.00  0.00    +0.000 A 
ATOM     31  C   UNL     1      -2.745  11.202  -3.924  0.00  0.00    +0.000 A 
ATOM     32  C   UNL     1      -2.677  10.478  -2.734  0.00  0.00    +0.000 A 
ENDBRANCH  22  27
ENDBRANCH  16  22
ENDBRANCH  13  16
ENDBRANCH   3  13
TORSDOF 6
ENDMDL
MODEL 7
REMARK VINA RESULT:      -6.9     19.892     22.605
REMARK  Name = 7142800
REMARK  6 active torsions:
REMARK  status: ('A' for Active; 'I' for Inactive)
REMARK    1  A    between atoms: N_3  and  C_13
REMARK    2  A    between atoms: N_5  and  C_17
REMARK    3  A    between atoms: C_13  and  C_16
REMARK    4  A    between atoms: C_16  and  C_22
REMARK    5  A    between atoms: C_19  and  C_26
REMARK    6  A    between atoms: C_22  and  C_27
REMARK                            x       y       z     vdW  Elec       q    Type
REMARK                         _______ _______ _______ _____ _____    ______ ____
ROOT
ATOM      1  O   UNL     1      -7.085 -10.726  11.359  0.00  0.00    -0.266 OA
ATOM      3  N   UNL     1      -3.023 -10.895  14.293  0.00  0.00    -0.301 NA
ATOM      4  N   UNL     1      -4.785 -11.039  11.637  0.00  0.00    -0.310 N 
ATOM      6  C   UNL     1      -3.799 -12.932  13.055  0.00  0.00    +0.024 C 
ATOM      7  C   UNL     1      -2.305 -11.343  11.942  0.00  0.00    +0.050 C 
ATOM      8  C   UNL     1      -2.616 -12.829  12.102  0.00  0.00    +0.017 C 
ATOM      9  C   UNL     1      -3.441 -12.298  14.415  0.00  0.00    +0.089 C 
ATOM     10  C   UNL     1      -1.933 -10.742  13.317  0.00  0.00    +0.094 C 
ATOM     11  C   UNL     1      -5.022 -12.272  12.401  0.00  0.00    +0.130 C 
ATOM     12  C   UNL     1      -3.489 -10.607  11.342  0.00  0.00    +0.026 A 
ATOM     14  C   UNL     1      -3.295  -9.538  10.552  0.00  0.00    +0.024 A 
ATOM     15  C   UNL     1      -5.924 -10.374  11.140  0.00  0.00    +0.273 A 
ATOM     17  C   UNL     1      -5.666  -9.174  10.282  0.00  0.00    +0.099 A 
ATOM     18  C   UNL     1      -4.408  -8.809  10.014  0.00  0.00    +0.030 A 
ENDROOT
BRANCH  17   5
ATOM      2  O   UNL     1      -6.879  -9.534   7.706  0.00  0.00    -0.275 OA
ATOM      5  N   UNL     1      -6.742  -8.495   9.790  0.00  0.00    -0.281 N 
ATOM     26  C   UNL     1      -7.289  -8.727   8.537  0.00  0.00    +0.220 C 
ATOM     33  H   UNL     1      -7.007  -7.643  10.278  0.00  0.00    +0.155 HD
BRANCH  26  19
ATOM     19  C   UNL     1      -8.465  -7.839   8.255  0.00  0.00    +0.075 C 
ATOM     20  C   UNL     1      -8.055  -6.371   8.396  0.00  0.00    +0.013 C 
ATOM     21  C   UNL     1      -9.621  -8.192   9.192  0.00  0.00    +0.013 C 
ATOM     23  C   UNL     1      -9.245  -5.433   8.209  0.00  0.00    +0.001 C 
ATOM     24  C   UNL     1     -10.807  -7.249   9.002  0.00  0.00    +0.001 C 
ATOM     25  C   UNL     1     -10.394  -5.787   9.148  0.00  0.00    +0.000 C 
ENDBRANCH  26  19
ENDBRANCH  17   5
BRANCH   3  13
ATOM     13  C   UNL     1      -2.642 -10.347  15.593  0.00  0.00    +0.085 C 
BRANCH  13  16
ATOM     16  C   UNL     1      -3.622 -10.808  16.671  0.00  0.00    +0.020 C 
BRANCH  16  22
ATOM     22  C   UNL     1      -4.860  -9.907  16.710  0.00  0.00    +0.036 C 
BRANCH  22  27
ATOM     27  C   UNL     1      -5.885 -10.412  17.693  0.00  0.00    -0.047 A 
ATOM     28  C   UNL     1      -5.479 -11.132  18.817  0.00  0.00    +0.003 A 
ATOM     29  C   UNL     1      -7.241 -10.159  17.479  0.00  0.00    +0.003 A 
ATOM     30  C   UNL     1      -6.428 -11.598  19.727  0.00  0.00    +0.000 A 
ATOM     31  C   UNL     1      -8.189 -10.626  18.389  0.00  0.00    +0.000 A 
ATOM     32  C   UNL     1      -7.782 -11.345  19.513  0.00  0.00    +0.000 A 
ENDBRANCH  22  27
ENDBRANCH  16  22
ENDBRANCH  13  16
ENDBRANCH   3  13
TORSDOF 6
ENDMDL
MODEL 8
REMARK VINA RESULT:      -6.9      3.198      5.875
REMARK  Name = 7142800
REMARK  6 active torsions:
REMARK  status: ('A' for Active; 'I' for Inactive)
REMARK    1  A    between atoms: N_3  and  C_13
REMARK    2  A    between atoms: N_5  and  C_17
REMARK    3  A    between atoms: C_13  and  C_16
REMARK    4  A    between atoms: C_16  and  C_22
REMARK    5  A    between atoms: C_19  and  C_26
REMARK    6  A    between atoms: C_22  and  C_27
REMARK                            x       y       z     vdW  Elec       q    Type
REMARK                         _______ _______ _______ _____ _____    ______ ____
ROOT
ATOM      1  O   UNL     1     -15.207   8.161  22.313  0.00  0.00    -0.266 OA
ATOM      3  N   UNL     1     -12.904   8.871  17.917  0.00  0.00    -0.301 NA
ATOM      4  N   UNL     1     -13.252   8.370  21.049  0.00  0.00    -0.310 N 
ATOM      6  C   UNL     1     -12.630  10.514  19.791  0.00  0.00    +0.024 C 
ATOM      7  C   UNL     1     -11.153   8.564  19.673  0.00  0.00    +0.050 C 
ATOM      8  C   UNL     1     -11.196  10.052  20.014  0.00  0.00    +0.017 C 
ATOM      9  C   UNL     1     -13.041  10.276  18.323  0.00  0.00    +0.089 C 
ATOM     10  C   UNL     1     -11.552   8.361  18.194  0.00  0.00    +0.094 C 
ATOM     11  C   UNL     1     -13.546   9.785  20.784  0.00  0.00    +0.130 C 
ATOM     12  C   UNL     1     -12.074   7.776  20.585  0.00  0.00    +0.026 A 
ATOM     14  C   UNL     1     -11.773   6.513  20.929  0.00  0.00    +0.024 A 
ATOM     15  C   UNL     1     -14.165   7.676  21.868  0.00  0.00    +0.273 A 
ATOM     17  C   UNL     1     -13.804   6.263  22.210  0.00  0.00    +0.099 A 
ATOM     18  C   UNL     1     -12.659   5.743  21.757  0.00  0.00    +0.030 A 
ENDROOT
BRANCH  17   5
ATOM      2  O   UNL     1     -16.012   4.669  21.302  0.00  0.00    -0.275 OA
ATOM      5  N   UNL     1     -14.668   5.553  22.991  0.00  0.00    -0.281 N 
ATOM     26  C   UNL     1     -15.710   4.791  22.487  0.00  0.00    +0.220 C 
ATOM     33  H   UNL     1     -14.673   5.774  23.984  0.00  0.00    +0.155 HD
BRANCH  26  19
ATOM     19  C   UNL     1     -16.501   4.118  23.570  0.00  0.00    +0.075 C 
ATOM     20  C   UNL     1     -15.561   3.621  24.670  0.00  0.00    +0.013 C 
ATOM     21  C   UNL     1     -17.326   2.973  22.978  0.00  0.00    +0.013 C 
ATOM     23  C   UNL     1     -16.313   2.846  25.748  0.00  0.00    +0.001 C 
ATOM     24  C   UNL     1     -18.075   2.200  24.060  0.00  0.00    +0.001 C 
ATOM     25  C   UNL     1     -17.132   1.704  25.153  0.00  0.00    +0.000 C 
ENDBRANCH  26  19
ENDBRANCH  17   5
BRANCH   3  13
ATOM     13  C   UNL     1     -13.251   8.696  16.509  0.00  0.00    +0.085 C 
BRANCH  13  16
ATOM     16  C   UNL     1     -11.987   8.646  15.653  0.00  0.00    +0.020 C 
BRANCH  16  22
ATOM     22  C   UNL     1     -11.866   9.896  14.777  0.00  0.00    +0.036 C 
BRANCH  22  27
ATOM     27  C   UNL     1     -11.257  11.049  15.534  0.00  0.00    -0.047 A 
ATOM     28  C   UNL     1     -11.866  12.304  15.502  0.00  0.00    +0.003 A 
ATOM     29  C   UNL     1     -10.085  10.862  16.268  0.00  0.00    +0.003 A 
ATOM     30  C   UNL     1     -11.303  13.370  16.204  0.00  0.00    +0.000 A 
ATOM     31  C   UNL     1      -9.522  11.929  16.968  0.00  0.00    +0.000 A 
ATOM     32  C   UNL     1     -10.132  13.183  16.936  0.00  0.00    +0.000 A 
ENDBRANCH  22  27
ENDBRANCH  16  22
ENDBRANCH  13  16
ENDBRANCH   3  13
TORSDOF 6
ENDMDL
MODEL 9
REMARK VINA RESULT:      -6.9     21.830     24.526
REMARK  Name = 7142800
REMARK  6 active torsions:
REMARK  status: ('A' for Active; 'I' for Inactive)
REMARK    1  A    between atoms: N_3  and  C_13
REMARK    2  A    between atoms: N_5  and  C_17
REMARK    3  A    between atoms: C_13  and  C_16
REMARK    4  A    between atoms: C_16  and  C_22
REMARK    5  A    between atoms: C_19  and  C_26
REMARK    6  A    between atoms: C_22  and  C_27
REMARK                            x       y       z     vdW  Elec       q    Type
REMARK                         _______ _______ _______ _____ _____    ______ ____
ROOT
ATOM      1  O   UNL     1      -6.256  -9.663  13.914  0.00  0.00    -0.266 OA
ATOM      3  N   UNL     1      -5.857 -10.705   9.027  0.00  0.00    -0.301 NA
ATOM      4  N   UNL     1      -4.955  -9.955  11.995  0.00  0.00    -0.310 N 
ATOM      6  C   UNL     1      -5.178  -8.464   9.923  0.00  0.00    +0.024 C 
ATOM      7  C   UNL     1      -3.561 -10.302   9.928  0.00  0.00    +0.050 C 
ATOM      8  C   UNL     1      -3.709  -8.799   9.706  0.00  0.00    +0.017 C 
ATOM      9  C   UNL     1      -6.053  -9.253   8.927  0.00  0.00    +0.089 C 
ATOM     10  C   UNL     1      -4.435 -11.063   8.905  0.00  0.00    +0.094 C 
ATOM     11  C   UNL     1      -5.543  -8.753  11.386  0.00  0.00    +0.130 C 
ATOM     12  C   UNL     1      -3.950 -10.678  11.345  0.00  0.00    +0.026 A 
ATOM     14  C   UNL     1      -3.352 -11.709  11.965  0.00  0.00    +0.024 A 
ATOM     15  C   UNL     1      -5.386 -10.280  13.296  0.00  0.00    +0.273 A 
ATOM     17  C   UNL     1      -4.709 -11.449  13.943  0.00  0.00    +0.099 A 
ATOM     18  C   UNL     1      -3.742 -12.100  13.289  0.00  0.00    +0.030 A 
ENDROOT
BRANCH  17   5
ATOM      2  O   UNL     1      -3.639 -10.456  16.414  0.00  0.00    -0.275 OA
ATOM      5  N   UNL     1      -5.106 -11.803  15.200  0.00  0.00    -0.281 N 
ATOM     26  C   UNL     1      -4.553 -11.275  16.356  0.00  0.00    +0.220 C 
ATOM     33  H   UNL     1      -5.672 -12.644  15.280  0.00  0.00    +0.155 HD
BRANCH  26  19
ATOM     19  C   UNL     1      -5.177 -11.842  17.597  0.00  0.00    +0.075 C 
ATOM     20  C   UNL     1      -6.553 -12.426  17.268  0.00  0.00    +0.013 C 
ATOM     21  C   UNL     1      -5.271 -10.759  18.674  0.00  0.00    +0.013 C 
ATOM     23  C   UNL     1      -7.265 -12.931  18.521  0.00  0.00    +0.001 C 
ATOM     24  C   UNL     1      -5.986 -11.268  19.924  0.00  0.00    +0.001 C 
ATOM     25  C   UNL     1      -7.359 -11.847  19.590  0.00  0.00    +0.000 C 
ENDBRANCH  26  19
ENDBRANCH  17   5
BRANCH   3  13
ATOM     13  C   UNL     1      -6.662 -11.412   8.035  0.00  0.00    +0.085 C 
BRANCH  13  16
ATOM     16  C   UNL     1      -6.407 -10.843   6.640  0.00  0.00    +0.020 C 
BRANCH  16  22
ATOM     22  C   UNL     1      -6.594 -11.917   5.565  0.00  0.00    +0.036 C 
BRANCH  22  27
ATOM     27  C   UNL     1      -5.312 -12.188   4.820  0.00  0.00    -0.047 A 
ATOM     28  C   UNL     1      -5.336 -12.390   3.440  0.00  0.00    +0.003 A 
ATOM     29  C   UNL     1      -4.100 -12.239   5.511  0.00  0.00    +0.003 A 
ATOM     30  C   UNL     1      -4.150 -12.641   2.751  0.00  0.00    +0.000 A 
ATOM     31  C   UNL     1      -2.914 -12.491   4.822  0.00  0.00    +0.000 A 
ATOM     32  C   UNL     1      -2.939 -12.691   3.442  0.00  0.00    +0.000 A 
ENDBRANCH  22  27
ENDBRANCH  16  22
ENDBRANCH  13  16
ENDBRANCH   3  13
TORSDOF 6
ENDMDL
MODEL 10
REMARK VINA RESULT:      -6.9     28.699     32.273
REMARK  Name = 7142800
REMARK  6 active torsions:
REMARK  status: ('A' for Active; 'I' for Inactive)
REMARK    1  A    between atoms: N_3  and  C_13
REMARK    2  A    between atoms: N_5  and  C_17
REMARK    3  A    between atoms: C_13  and  C_16
REMARK    4  A    between atoms: C_16  and  C_22
REMARK    5  A    between atoms: C_19  and  C_26
REMARK    6  A    between atoms: C_22  and  C_27
REMARK                            x       y       z     vdW  Elec       q    Type
REMARK                         _______ _______ _______ _____ _____    ______ ____
ROOT
ATOM      1  O   UNL     1       9.841   4.833   3.234  0.00  0.00    -0.266 OA
ATOM      3  N   UNL     1       9.695   8.351   6.802  0.00  0.00    -0.301 NA
ATOM      4  N   UNL     1      10.815   5.926   5.056  0.00  0.00    -0.310 N 
ATOM      6  C   UNL     1       9.779   5.918   7.400  0.00  0.00    +0.024 C 
ATOM      7  C   UNL     1      11.868   7.132   6.999  0.00  0.00    +0.050 C 
ATOM      8  C   UNL     1      11.219   6.063   7.875  0.00  0.00    +0.017 C 
ATOM      9  C   UNL     1       9.038   7.263   7.539  0.00  0.00    +0.089 C 
ATOM     10  C   UNL     1      11.114   8.470   7.174  0.00  0.00    +0.094 C 
ATOM     11  C   UNL     1       9.783   5.393   5.957  0.00  0.00    +0.130 C 
ATOM     12  C   UNL     1      11.867   6.707   5.542  0.00  0.00    +0.026 A 
ATOM     14  C   UNL     1      12.857   7.094   4.721  0.00  0.00    +0.024 A 
ATOM     15  C   UNL     1      10.740   5.533   3.705  0.00  0.00    +0.273 A 
ATOM     17  C   UNL     1      11.851   6.003   2.817  0.00  0.00    +0.099 A 
ATOM     18  C   UNL     1      12.845   6.735   3.331  0.00  0.00    +0.030 A 
ENDROOT
BRANCH  17   5
ATOM      2  O   UNL     1      12.887   3.590   1.660  0.00  0.00    -0.275 OA
ATOM      5  N   UNL     1      11.809   5.653   1.500  0.00  0.00    -0.281 N 
ATOM     26  C   UNL     1      12.319   4.462   1.006  0.00  0.00    +0.220 C 
ATOM     33  H   UNL     1      11.594   6.393   0.836  0.00  0.00    +0.155 HD
BRANCH  26  19
ATOM     19  C   UNL     1      12.140   4.336  -0.479  0.00  0.00    +0.075 C 
ATOM     20  C   UNL     1      10.666   4.525  -0.843  0.00  0.00    +0.013 C 
ATOM     21  C   UNL     1      12.666   2.981  -0.954  0.00  0.00    +0.013 C 
ATOM     23  C   UNL     1      10.422   4.312  -2.335  0.00  0.00    +0.001 C 
ATOM     24  C   UNL     1      12.418   2.771  -2.445  0.00  0.00    +0.001 C 
ATOM     25  C   UNL     1      10.945   2.957  -2.803  0.00  0.00    +0.000 C 
ENDBRANCH  26  19
ENDBRANCH  17   5
BRANCH   3  13
ATOM     13  C   UNL     1       8.994   9.617   7.002  0.00  0.00    +0.085 C 
BRANCH  13  16
ATOM     16  C   UNL     1       8.533  10.185   5.660  0.00  0.00    +0.020 C 
BRANCH  16  22
ATOM     22  C   UNL     1       8.599   9.122   4.561  0.00  0.00    +0.036 C 
BRANCH  22  27
ATOM     27  C   UNL     1       7.607   9.397   3.459  0.00  0.00    -0.047 A 
ATOM     28  C   UNL     1       6.350   9.915   3.767  0.00  0.00    +0.003 A 
ATOM     29  C   UNL     1       7.947   9.132   2.132  0.00  0.00    +0.003 A 
ATOM     30  C   UNL     1       5.432  10.170   2.747  0.00  0.00    +0.000 A 
ATOM     31  C   UNL     1       7.029   9.387   1.113  0.00  0.00    +0.000 A 
ATOM     32  C   UNL     1       5.772   9.906   1.421  0.00  0.00    +0.000 A 
ENDBRANCH  22  27
ENDBRANCH  16  22
ENDBRANCH  13  16
ENDBRANCH   3  13
TORSDOF 6
ENDMDL
