MODEL 1
REMARK VINA RESULT:      -6.7      0.000      0.000
REMARK  Name = 75536543
REMARK  8 active torsions:
REMARK  status: ('A' for Active; 'I' for Inactive)
REMARK    1  A    between atoms: O_2  and  C_11
REMARK    2  A    between atoms: O_4  and  C_18
REMARK    3  A    between atoms: N_5  and  C_13
REMARK    4  A    between atoms: N_6  and  C_12
REMARK    5  A    between atoms: N_6  and  C_16
REMARK    6  A    between atoms: C_7  and  C_15
REMARK    7  A    between atoms: C_10  and  C_13
REMARK    8  A    between atoms: C_16  and  C_17
REMARK                            x       y       z     vdW  Elec       q    Type
REMARK                         _______ _______ _______ _____ _____    ______ ____
ROOT
ATOM      1  O   UNL     1      13.234   8.045  21.310  0.00  0.00    -0.371 OA
ATOM     10  C   UNL     1      12.138   7.138  21.101  0.00  0.00    +0.165 C 
ATOM     11  C   UNL     1      10.872   7.934  21.385  0.00  0.00    +0.164 C 
ATOM     12  C   UNL     1      11.342   8.840  22.507  0.00  0.00    +0.111 C 
ATOM     14  C   UNL     1      12.751   9.182  22.048  0.00  0.00    +0.181 C 
ENDROOT
BRANCH  11   2
ATOM      2  O   UNL     1       9.800   7.098  21.773  0.00  0.00    -0.388 OA
ATOM     25  H   UNL     1       9.669   7.192  22.732  0.00  0.00    +0.210 HD
ENDBRANCH  11   2
BRANCH  12   6
ATOM      6  N   UNL     1      10.507  10.016  22.696  0.00  0.00    -0.305 NA
ATOM     24  H   UNL     1      10.179  10.040  23.661  0.00  0.00    +0.123 HD
BRANCH   6  16
ATOM     16  C   UNL     1      11.252  11.238  22.420  0.00  0.00    +0.120 C 
BRANCH  16  17
ATOM     17  C   UNL     1      10.934  12.326  23.412  0.00  0.00    +0.008 A 
ATOM     18  C   UNL     1      11.042  12.093  24.783  0.00  0.00    +0.121 A 
ATOM     19  C   UNL     1      10.528  13.576  22.946  0.00  0.00    +0.008 A 
ATOM     20  C   UNL     1      10.744  13.112  25.688  0.00  0.00    +0.046 A 
ATOM     21  C   UNL     1      10.230  14.595  23.852  0.00  0.00    +0.001 A 
ATOM     22  C   UNL     1      10.337  14.362  25.223  0.00  0.00    +0.004 A 
BRANCH  18   4
ATOM      4  O   UNL     1      11.437  10.879  25.255  0.00  0.00    -0.506 OA
ATOM     26  H   UNL     1      12.337  10.955  25.616  0.00  0.00    +0.292 HD
ENDBRANCH  18   4
ENDBRANCH  16  17
ENDBRANCH   6  16
ENDBRANCH  12   6
BRANCH  10  13
ATOM     13  C   UNL     1      12.194   6.583  19.689  0.00  0.00    +0.138 C 
BRANCH  13   5
ATOM      3  O   UNL     1      10.755   8.279  17.816  0.00  0.00    -0.276 OA
ATOM      5  N   UNL     1      12.747   7.539  18.773  0.00  0.00    -0.313 N 
ATOM     15  C   UNL     1      11.977   8.308  17.912  0.00  0.00    +0.216 C 
ATOM     23  H   UNL     1      13.755   7.663  18.773  0.00  0.00    +0.149 HD
BRANCH  15   7
ATOM      7  C   UNL     1      12.762   9.239  17.050  0.00  0.00    +0.075 C 
ATOM      8  C   UNL     1      13.953   8.704  16.326  0.00  0.00    +0.013 C 
ATOM      9  C   UNL     1      14.133   9.632  17.490  0.00  0.00    +0.013 C 
ENDBRANCH  15   7
ENDBRANCH  13   5
ENDBRANCH  10  13
TORSDOF 8
ENDMDL
MODEL 2
REMARK VINA RESULT:      -6.6     14.242     19.788
REMARK  Name = 75536543
REMARK  8 active torsions:
REMARK  status: ('A' for Active; 'I' for Inactive)
REMARK    1  A    between atoms: O_2  and  C_11
REMARK    2  A    between atoms: O_4  and  C_18
REMARK    3  A    between atoms: N_5  and  C_13
REMARK    4  A    between atoms: N_6  and  C_12
REMARK    5  A    between atoms: N_6  and  C_16
REMARK    6  A    between atoms: C_7  and  C_15
REMARK    7  A    between atoms: C_10  and  C_13
REMARK    8  A    between atoms: C_16  and  C_17
REMARK                            x       y       z     vdW  Elec       q    Type
REMARK                         _______ _______ _______ _____ _____    ______ ____
ROOT
ATOM      1  O   UNL     1       9.435   6.782   3.236  0.00  0.00    -0.371 OA
ATOM     10  C   UNL     1       9.304   5.874   4.343  0.00  0.00    +0.165 C 
ATOM     11  C   UNL     1      10.618   5.110   4.420  0.00  0.00    +0.164 C 
ATOM     12  C   UNL     1      10.976   4.997   2.950  0.00  0.00    +0.111 C 
ATOM     14  C   UNL     1      10.550   6.361   2.430  0.00  0.00    +0.181 C 
ENDROOT
BRANCH  11   2
ATOM      2  O   UNL     1      10.460   3.850   5.041  0.00  0.00    -0.388 OA
ATOM     25  H   UNL     1       9.714   3.907   5.663  0.00  0.00    +0.210 HD
ENDBRANCH  11   2
BRANCH  12   6
ATOM      6  N   UNL     1      12.383   4.716   2.712  0.00  0.00    -0.305 NA
ATOM     24  H   UNL     1      12.842   4.535   3.605  0.00  0.00    +0.123 HD
BRANCH   6  16
ATOM     16  C   UNL     1      12.548   3.551   1.852  0.00  0.00    +0.120 C 
BRANCH  16  17
ATOM     17  C   UNL     1      13.609   3.770   0.807  0.00  0.00    +0.008 A 
ATOM     18  C   UNL     1      14.962   3.741   1.147  0.00  0.00    +0.121 A 
ATOM     19  C   UNL     1      13.227   4.005  -0.514  0.00  0.00    +0.008 A 
ATOM     20  C   UNL     1      15.932   3.945   0.166  0.00  0.00    +0.046 A 
ATOM     21  C   UNL     1      14.199   4.209  -1.495  0.00  0.00    +0.001 A 
ATOM     22  C   UNL     1      15.550   4.180  -1.155  0.00  0.00    +0.004 A 
BRANCH  18   4
ATOM      4  O   UNL     1      15.352   3.513   2.432  0.00  0.00    -0.506 OA
ATOM     26  H   UNL     1      15.739   4.328   2.796  0.00  0.00    +0.292 HD
ENDBRANCH  18   4
ENDBRANCH  16  17
ENDBRANCH   6  16
ENDBRANCH  12   6
BRANCH  10  13
ATOM     13  C   UNL     1       8.986   6.651   5.608  0.00  0.00    +0.138 C 
BRANCH  13   5
ATOM      3  O   UNL     1       8.592   7.406   8.389  0.00  0.00    -0.276 OA
ATOM      5  N   UNL     1       9.449   5.959   6.776  0.00  0.00    -0.313 N 
ATOM     15  C   UNL     1       9.211   6.397   8.071  0.00  0.00    +0.216 C 
ATOM     23  H   UNL     1       9.965   5.095   6.638  0.00  0.00    +0.149 HD
BRANCH  15   7
ATOM      7  C   UNL     1       9.784   5.520   9.133  0.00  0.00    +0.075 C 
ATOM      8  C   UNL     1       9.630   4.041   8.994  0.00  0.00    +0.013 C 
ATOM      9  C   UNL     1       8.846   4.786  10.034  0.00  0.00    +0.013 C 
ENDBRANCH  15   7
ENDBRANCH  13   5
ENDBRANCH  10  13
TORSDOF 8
ENDMDL
MODEL 3
REMARK VINA RESULT:      -6.4      4.047      6.012
REMARK  Name = 75536543
REMARK  8 active torsions:
REMARK  status: ('A' for Active; 'I' for Inactive)
REMARK    1  A    between atoms: O_2  and  C_11
REMARK    2  A    between atoms: O_4  and  C_18
REMARK    3  A    between atoms: N_5  and  C_13
REMARK    4  A    between atoms: N_6  and  C_12
REMARK    5  A    between atoms: N_6  and  C_16
REMARK    6  A    between atoms: C_7  and  C_15
REMARK    7  A    between atoms: C_10  and  C_13
REMARK    8  A    between atoms: C_16  and  C_17
REMARK                            x       y       z     vdW  Elec       q    Type
REMARK                         _______ _______ _______ _____ _____    ______ ____
ROOT
ATOM      1  O   UNL     1      10.926   7.156  20.706  0.00  0.00    -0.371 OA
ATOM     10  C   UNL     1      11.414   8.399  20.174  0.00  0.00    +0.165 C 
ATOM     11  C   UNL     1      12.926   8.369  20.354  0.00  0.00    +0.164 C 
ATOM     12  C   UNL     1      13.049   7.618  21.666  0.00  0.00    +0.111 C 
ATOM     14  C   UNL     1      11.960   6.568  21.515  0.00  0.00    +0.181 C 
ENDROOT
BRANCH  11   2
ATOM      2  O   UNL     1      13.474   9.672  20.417  0.00  0.00    -0.388 OA
ATOM     25  H   UNL     1      13.839   9.807  21.309  0.00  0.00    +0.210 HD
ENDBRANCH  11   2
BRANCH  12   6
ATOM      6  N   UNL     1      14.365   7.041  21.886  0.00  0.00    -0.305 NA
ATOM     24  H   UNL     1      14.258   6.118  22.306  0.00  0.00    +0.123 HD
BRANCH   6  16
ATOM     16  C   UNL     1      15.097   6.908  20.633  0.00  0.00    +0.120 C 
BRANCH  16  17
ATOM     17  C   UNL     1      16.572   7.146  20.816  0.00  0.00    +0.008 A 
ATOM     18  C   UNL     1      17.034   8.280  21.486  0.00  0.00    +0.121 A 
ATOM     19  C   UNL     1      17.481   6.218  20.307  0.00  0.00    +0.008 A 
ATOM     20  C   UNL     1      18.404   8.485  21.647  0.00  0.00    +0.046 A 
ATOM     21  C   UNL     1      18.852   6.424  20.469  0.00  0.00    +0.001 A 
ATOM     22  C   UNL     1      19.313   7.557  21.139  0.00  0.00    +0.004 A 
BRANCH  18   4
ATOM      4  O   UNL     1      16.160   9.195  21.988  0.00  0.00    -0.506 OA
ATOM     26  H   UNL     1      16.515   9.549  22.823  0.00  0.00    +0.292 HD
ENDBRANCH  18   4
ENDBRANCH  16  17
ENDBRANCH   6  16
ENDBRANCH  12   6
BRANCH  10  13
ATOM     13  C   UNL     1      10.985   8.540  18.724  0.00  0.00    +0.138 C 
BRANCH  13   5
ATOM      3  O   UNL     1      11.017   8.854  15.833  0.00  0.00    -0.276 OA
ATOM      5  N   UNL     1      12.049   9.056  17.912  0.00  0.00    -0.313 N 
ATOM     15  C   UNL     1      11.974   9.169  16.531  0.00  0.00    +0.216 C 
ATOM     23  H   UNL     1      12.894   9.366  18.384  0.00  0.00    +0.149 HD
BRANCH  15   7
ATOM      7  C   UNL     1      13.197   9.734  15.892  0.00  0.00    +0.075 C 
ATOM      8  C   UNL     1      14.357   8.826  15.649  0.00  0.00    +0.013 C 
ATOM      9  C   UNL     1      14.433   9.874  16.718  0.00  0.00    +0.013 C 
ENDBRANCH  15   7
ENDBRANCH  13   5
ENDBRANCH  10  13
TORSDOF 8
ENDMDL
MODEL 4
REMARK VINA RESULT:      -6.1     26.689     28.397
REMARK  Name = 75536543
REMARK  8 active torsions:
REMARK  status: ('A' for Active; 'I' for Inactive)
REMARK    1  A    between atoms: O_2  and  C_11
REMARK    2  A    between atoms: O_4  and  C_18
REMARK    3  A    between atoms: N_5  and  C_13
REMARK    4  A    between atoms: N_6  and  C_12
REMARK    5  A    between atoms: N_6  and  C_16
REMARK    6  A    between atoms: C_7  and  C_15
REMARK    7  A    between atoms: C_10  and  C_13
REMARK    8  A    between atoms: C_16  and  C_17
REMARK                            x       y       z     vdW  Elec       q    Type
REMARK                         _______ _______ _______ _____ _____    ______ ____
ROOT
ATOM      1  O   UNL     1     -17.872   3.952  25.997  0.00  0.00    -0.371 OA
ATOM     10  C   UNL     1     -17.265   2.906  25.219  0.00  0.00    +0.165 C 
ATOM     11  C   UNL     1     -16.079   3.544  24.508  0.00  0.00    +0.164 C 
ATOM     12  C   UNL     1     -16.615   4.937  24.238  0.00  0.00    +0.111 C 
ATOM     14  C   UNL     1     -17.384   5.218  25.520  0.00  0.00    +0.181 C 
ENDROOT
BRANCH  11   2
ATOM      2  O   UNL     1     -15.740   2.851  23.323  0.00  0.00    -0.388 OA
ATOM     25  H   UNL     1     -15.299   3.474  22.720  0.00  0.00    +0.210 HD
ENDBRANCH  11   2
BRANCH  12   6
ATOM      6  N   UNL     1     -15.577   5.921  23.973  0.00  0.00    -0.305 NA
ATOM     24  H   UNL     1     -14.665   5.475  24.067  0.00  0.00    +0.123 HD
BRANCH   6  16
ATOM     16  C   UNL     1     -15.701   6.465  22.627  0.00  0.00    +0.120 C 
BRANCH  16  17
ATOM     17  C   UNL     1     -14.359   6.795  22.029  0.00  0.00    +0.008 A 
ATOM     18  C   UNL     1     -13.447   5.784  21.723  0.00  0.00    +0.121 A 
ATOM     19  C   UNL     1     -14.031   8.128  21.783  0.00  0.00    +0.008 A 
ATOM     20  C   UNL     1     -12.208   6.107  21.169  0.00  0.00    +0.046 A 
ATOM     21  C   UNL     1     -12.791   8.450  21.229  0.00  0.00    +0.001 A 
ATOM     22  C   UNL     1     -11.880   7.440  20.922  0.00  0.00    +0.004 A 
BRANCH  18   4
ATOM      4  O   UNL     1     -13.751   4.477  21.957  0.00  0.00    -0.506 OA
ATOM     26  H   UNL     1     -12.984   4.040  22.365  0.00  0.00    +0.292 HD
ENDBRANCH  18   4
ENDBRANCH  16  17
ENDBRANCH   6  16
ENDBRANCH  12   6
BRANCH  10  13
ATOM     13  C   UNL     1     -16.872   1.754  26.126  0.00  0.00    +0.138 C 
BRANCH  13   5
ATOM      3  O   UNL     1     -16.819   0.336  28.665  0.00  0.00    -0.276 OA
ATOM      5  N   UNL     1     -16.364   2.227  27.382  0.00  0.00    -0.313 N 
ATOM     15  C   UNL     1     -16.382   1.475  28.548  0.00  0.00    +0.216 C 
ATOM     23  H   UNL     1     -15.959   3.159  27.405  0.00  0.00    +0.149 HD
BRANCH  15   7
ATOM      7  C   UNL     1     -15.799   2.166  29.735  0.00  0.00    +0.075 C 
ATOM      8  C   UNL     1     -14.879   3.320  29.506  0.00  0.00    +0.013 C 
ATOM      9  C   UNL     1     -14.338   2.013  30.003  0.00  0.00    +0.013 C 
ENDBRANCH  15   7
ENDBRANCH  13   5
ENDBRANCH  10  13
TORSDOF 8
ENDMDL
MODEL 5
REMARK VINA RESULT:      -6.0     26.941     28.825
REMARK  Name = 75536543
REMARK  8 active torsions:
REMARK  status: ('A' for Active; 'I' for Inactive)
REMARK    1  A    between atoms: O_2  and  C_11
REMARK    2  A    between atoms: O_4  and  C_18
REMARK    3  A    between atoms: N_5  and  C_13
REMARK    4  A    between atoms: N_6  and  C_12
REMARK    5  A    between atoms: N_6  and  C_16
REMARK    6  A    between atoms: C_7  and  C_15
REMARK    7  A    between atoms: C_10  and  C_13
REMARK    8  A    between atoms: C_16  and  C_17
REMARK                            x       y       z     vdW  Elec       q    Type
REMARK                         _______ _______ _______ _____ _____    ______ ____
ROOT
ATOM      1  O   UNL     1     -12.002  -8.088  17.002  0.00  0.00    -0.371 OA
ATOM     10  C   UNL     1     -11.757  -6.877  16.268  0.00  0.00    +0.165 C 
ATOM     11  C   UNL     1     -10.366  -7.023  15.667  0.00  0.00    +0.164 C 
ATOM     12  C   UNL     1      -9.656  -7.804  16.757  0.00  0.00    +0.111 C 
ATOM     14  C   UNL     1     -10.748  -8.766  17.198  0.00  0.00    +0.181 C 
ENDROOT
BRANCH  11   2
ATOM      2  O   UNL     1      -9.765  -5.768  15.416  0.00  0.00    -0.388 OA
ATOM     25  H   UNL     1      -9.243  -5.836  14.598  0.00  0.00    +0.210 HD
ENDBRANCH  11   2
BRANCH  12   6
ATOM      6  N   UNL     1      -8.454  -8.483  16.302  0.00  0.00    -0.305 NA
ATOM     24  H   UNL     1      -7.639  -7.933  16.572  0.00  0.00    +0.123 HD
BRANCH   6  16
ATOM     16  C   UNL     1      -8.345  -9.811  16.892  0.00  0.00    +0.120 C 
BRANCH  16  17
ATOM     17  C   UNL     1      -6.917 -10.169  17.209  0.00  0.00    +0.008 A 
ATOM     18  C   UNL     1      -5.916 -10.027  16.247  0.00  0.00    +0.121 A 
ATOM     19  C   UNL     1      -6.600 -10.647  18.480  0.00  0.00    +0.008 A 
ATOM     20  C   UNL     1      -4.599 -10.363  16.558  0.00  0.00    +0.046 A 
ATOM     21  C   UNL     1      -5.282 -10.982  18.791  0.00  0.00    +0.001 A 
ATOM     22  C   UNL     1      -4.282 -10.841  17.830  0.00  0.00    +0.004 A 
BRANCH  18   4
ATOM      4  O   UNL     1      -6.208  -9.562  15.001  0.00  0.00    -0.506 OA
ATOM     26  H   UNL     1      -6.061  -8.601  14.978  0.00  0.00    +0.292 HD
ENDBRANCH  18   4
ENDBRANCH  16  17
ENDBRANCH   6  16
ENDBRANCH  12   6
BRANCH  10  13
ATOM     13  C   UNL     1     -12.843  -6.679  15.226  0.00  0.00    +0.138 C 
BRANCH  13   5
ATOM      3  O   UNL     1     -12.435  -6.211  12.385  0.00  0.00    -0.276 OA
ATOM      5  N   UNL     1     -12.703  -5.416  14.560  0.00  0.00    -0.313 N 
ATOM     15  C   UNL     1     -12.510  -5.290  13.191  0.00  0.00    +0.216 C 
ATOM     23  H   UNL     1     -12.764  -4.575  15.126  0.00  0.00    +0.149 HD
BRANCH  15   7
ATOM      7  C   UNL     1     -12.393  -3.882  12.713  0.00  0.00    +0.075 C 
ATOM      8  C   UNL     1     -13.478  -3.331  11.847  0.00  0.00    +0.013 C 
ATOM      9  C   UNL     1     -12.132  -3.640  11.264  0.00  0.00    +0.013 C 
ENDBRANCH  15   7
ENDBRANCH  13   5
ENDBRANCH  10  13
TORSDOF 8
ENDMDL
MODEL 6
REMARK VINA RESULT:      -6.0      5.875      7.669
REMARK  Name = 75536543
REMARK  8 active torsions:
REMARK  status: ('A' for Active; 'I' for Inactive)
REMARK    1  A    between atoms: O_2  and  C_11
REMARK    2  A    between atoms: O_4  and  C_18
REMARK    3  A    between atoms: N_5  and  C_13
REMARK    4  A    between atoms: N_6  and  C_12
REMARK    5  A    between atoms: N_6  and  C_16
REMARK    6  A    between atoms: C_7  and  C_15
REMARK    7  A    between atoms: C_10  and  C_13
REMARK    8  A    between atoms: C_16  and  C_17
REMARK                            x       y       z     vdW  Elec       q    Type
REMARK                         _______ _______ _______ _____ _____    ______ ____
ROOT
ATOM      1  O   UNL     1      17.605   5.915  18.919  0.00  0.00    -0.371 OA
ATOM     10  C   UNL     1      18.497   6.280  19.985  0.00  0.00    +0.165 C 
ATOM     11  C   UNL     1      17.625   6.469  21.219  0.00  0.00    +0.164 C 
ATOM     12  C   UNL     1      16.366   7.047  20.601  0.00  0.00    +0.111 C 
ATOM     14  C   UNL     1      16.260   6.237  19.319  0.00  0.00    +0.181 C 
ENDROOT
BRANCH  11   2
ATOM      2  O   UNL     1      18.222   7.342  22.157  0.00  0.00    -0.388 OA
ATOM     25  H   UNL     1      17.935   8.250  21.958  0.00  0.00    +0.210 HD
ENDBRANCH  11   2
BRANCH  12   6
ATOM      6  N   UNL     1      15.190   6.923  21.447  0.00  0.00    -0.305 NA
ATOM     24  H   UNL     1      15.078   7.780  21.988  0.00  0.00    +0.123 HD
BRANCH   6  16
ATOM     16  C   UNL     1      13.990   6.707  20.650  0.00  0.00    +0.120 C 
BRANCH  16  17
ATOM     17  C   UNL     1      12.788   7.388  21.249  0.00  0.00    +0.008 A 
ATOM     18  C   UNL     1      11.555   6.737  21.308  0.00  0.00    +0.121 A 
ATOM     19  C   UNL     1      12.916   8.684  21.748  0.00  0.00    +0.008 A 
ATOM     20  C   UNL     1      10.452   7.383  21.867  0.00  0.00    +0.046 A 
ATOM     21  C   UNL     1      11.813   9.329  22.308  0.00  0.00    +0.001 A 
ATOM     22  C   UNL     1      10.581   8.678  22.366  0.00  0.00    +0.004 A 
BRANCH  18   4
ATOM      4  O   UNL     1      11.412   5.472  20.825  0.00  0.00    -0.506 OA
ATOM     26  H   UNL     1      12.246   4.988  20.949  0.00  0.00    +0.292 HD
ENDBRANCH  18   4
ENDBRANCH  16  17
ENDBRANCH   6  16
ENDBRANCH  12   6
BRANCH  10  13
ATOM     13  C   UNL     1      19.557   5.206  20.158  0.00  0.00    +0.138 C 
BRANCH  13   5
ATOM      3  O   UNL     1      20.729   5.636  22.784  0.00  0.00    -0.276 OA
ATOM      5  N   UNL     1      20.836   5.779  20.461  0.00  0.00    -0.313 N 
ATOM     15  C   UNL     1      21.315   5.946  21.753  0.00  0.00    +0.216 C 
ATOM     23  H   UNL     1      21.423   6.062  19.681  0.00  0.00    +0.149 HD
BRANCH  15   7
ATOM      7  C   UNL     1      22.672   6.560  21.832  0.00  0.00    +0.075 C 
ATOM      8  C   UNL     1      22.884   7.900  21.207  0.00  0.00    +0.013 C 
ATOM      9  C   UNL     1      23.477   6.673  20.581  0.00  0.00    +0.013 C 
ENDBRANCH  15   7
ENDBRANCH  13   5
ENDBRANCH  10  13
TORSDOF 8
ENDMDL
MODEL 7
REMARK VINA RESULT:      -6.0      2.329      3.563
REMARK  Name = 75536543
REMARK  8 active torsions:
REMARK  status: ('A' for Active; 'I' for Inactive)
REMARK    1  A    between atoms: O_2  and  C_11
REMARK    2  A    between atoms: O_4  and  C_18
REMARK    3  A    between atoms: N_5  and  C_13
REMARK    4  A    between atoms: N_6  and  C_12
REMARK    5  A    between atoms: N_6  and  C_16
REMARK    6  A    between atoms: C_7  and  C_15
REMARK    7  A    between atoms: C_10  and  C_13
REMARK    8  A    between atoms: C_16  and  C_17
REMARK                            x       y       z     vdW  Elec       q    Type
REMARK                         _______ _______ _______ _____ _____    ______ ____
ROOT
ATOM      1  O   UNL     1      15.372   9.476  19.747  0.00  0.00    -0.371 OA
ATOM     10  C   UNL     1      15.180   8.129  20.211  0.00  0.00    +0.165 C 
ATOM     11  C   UNL     1      14.768   8.241  21.672  0.00  0.00    +0.164 C 
ATOM     12  C   UNL     1      15.580   9.444  22.113  0.00  0.00    +0.111 C 
ATOM     14  C   UNL     1      15.476  10.342  20.891  0.00  0.00    +0.181 C 
ENDROOT
BRANCH  11   2
ATOM      2  O   UNL     1      15.086   7.072  22.401  0.00  0.00    -0.388 OA
ATOM     25  H   UNL     1      14.257   6.674  22.719  0.00  0.00    +0.210 HD
ENDBRANCH  11   2
BRANCH  12   6
ATOM      6  N   UNL     1      15.078  10.075  23.323  0.00  0.00    -0.305 NA
ATOM     24  H   UNL     1      15.808  10.057  24.035  0.00  0.00    +0.123 HD
BRANCH   6  16
ATOM     16  C   UNL     1      14.695  11.459  23.074  0.00  0.00    +0.120 C 
BRANCH  16  17
ATOM     17  C   UNL     1      13.248  11.710  23.406  0.00  0.00    +0.008 A 
ATOM     18  C   UNL     1      12.794  11.625  24.723  0.00  0.00    +0.121 A 
ATOM     19  C   UNL     1      12.359  12.031  22.381  0.00  0.00    +0.008 A 
ATOM     20  C   UNL     1      11.450  11.861  25.013  0.00  0.00    +0.046 A 
ATOM     21  C   UNL     1      11.015  12.268  22.672  0.00  0.00    +0.001 A 
ATOM     22  C   UNL     1      10.561  12.182  23.988  0.00  0.00    +0.004 A 
BRANCH  18   4
ATOM      4  O   UNL     1      13.649  11.313  25.736  0.00  0.00    -0.506 OA
ATOM     26  H   UNL     1      14.529  11.673  25.531  0.00  0.00    +0.292 HD
ENDBRANCH  18   4
ENDBRANCH  16  17
ENDBRANCH   6  16
ENDBRANCH  12   6
BRANCH  10  13
ATOM     13  C   UNL     1      14.144   7.431  19.347  0.00  0.00    +0.138 C 
BRANCH  13   5
ATOM      3  O   UNL     1      12.129   9.526  19.412  0.00  0.00    -0.276 OA
ATOM      5  N   UNL     1      12.865   7.393  19.994  0.00  0.00    -0.313 N 
ATOM     15  C   UNL     1      11.963   8.448  19.971  0.00  0.00    +0.216 C 
ATOM     23  H   UNL     1      12.607   6.539  20.480  0.00  0.00    +0.149 HD
BRANCH  15   7
ATOM      7  C   UNL     1      10.693   8.188  20.708  0.00  0.00    +0.075 C 
ATOM      8  C   UNL     1      10.612   8.578  22.147  0.00  0.00    +0.013 C 
ATOM      9  C   UNL     1      10.684   7.131  21.762  0.00  0.00    +0.013 C 
ENDBRANCH  15   7
ENDBRANCH  13   5
ENDBRANCH  10  13
TORSDOF 8
ENDMDL
MODEL 8
REMARK VINA RESULT:      -6.0     27.255     28.791
REMARK  Name = 75536543
REMARK  8 active torsions:
REMARK  status: ('A' for Active; 'I' for Inactive)
REMARK    1  A    between atoms: O_2  and  C_11
REMARK    2  A    between atoms: O_4  and  C_18
REMARK    3  A    between atoms: N_5  and  C_13
REMARK    4  A    between atoms: N_6  and  C_12
REMARK    5  A    between atoms: N_6  and  C_16
REMARK    6  A    between atoms: C_7  and  C_15
REMARK    7  A    between atoms: C_10  and  C_13
REMARK    8  A    between atoms: C_16  and  C_17
REMARK                            x       y       z     vdW  Elec       q    Type
REMARK                         _______ _______ _______ _____ _____    ______ ____
ROOT
ATOM      1  O   UNL     1     -11.887  -7.693  13.997  0.00  0.00    -0.371 OA
ATOM     10  C   UNL     1     -12.010  -6.683  15.013  0.00  0.00    +0.165 C 
ATOM     11  C   UNL     1     -10.684  -6.674  15.760  0.00  0.00    +0.164 C 
ATOM     12  C   UNL     1     -10.315  -8.144  15.719  0.00  0.00    +0.111 C 
ATOM     14  C   UNL     1     -10.760  -8.528  14.317  0.00  0.00    +0.181 C 
ENDROOT
BRANCH  11   2
ATOM      2  O   UNL     1     -10.826  -6.184  17.079  0.00  0.00    -0.388 OA
ATOM     25  H   UNL     1     -11.687  -6.478  17.424  0.00  0.00    +0.210 HD
ENDBRANCH  11   2
BRANCH  12   6
ATOM      6  N   UNL     1      -8.902  -8.398  15.954  0.00  0.00    -0.305 NA
ATOM     24  H   UNL     1      -8.393  -7.516  15.906  0.00  0.00    +0.123 HD
BRANCH   6  16
ATOM     16  C   UNL     1      -8.687  -8.998  17.265  0.00  0.00    +0.120 C 
BRANCH  16  17
ATOM     17  C   UNL     1      -7.311  -9.597  17.389  0.00  0.00    +0.008 A 
ATOM     18  C   UNL     1      -6.911 -10.225  18.569  0.00  0.00    +0.121 A 
ATOM     19  C   UNL     1      -6.434  -9.520  16.308  0.00  0.00    +0.008 A 
ATOM     20  C   UNL     1      -5.633 -10.775  18.667  0.00  0.00    +0.046 A 
ATOM     21  C   UNL     1      -5.155 -10.071  16.407  0.00  0.00    +0.001 A 
ATOM     22  C   UNL     1      -4.756 -10.698  17.586  0.00  0.00    +0.004 A 
BRANCH  18   4
ATOM      4  O   UNL     1      -7.756 -10.309  19.634  0.00  0.00    -0.506 OA
ATOM     26  H   UNL     1      -7.752  -9.461  20.112  0.00  0.00    +0.292 HD
ENDBRANCH  18   4
ENDBRANCH  16  17
ENDBRANCH   6  16
ENDBRANCH  12   6
BRANCH  10  13
ATOM     13  C   UNL     1     -12.349  -5.349  14.372  0.00  0.00    +0.138 C 
BRANCH  13   5
ATOM      3  O   UNL     1     -12.263  -3.113  12.514  0.00  0.00    -0.276 OA
ATOM      5  N   UNL     1     -12.203  -5.402  12.946  0.00  0.00    -0.313 N 
ATOM     15  C   UNL     1     -12.173  -4.276  12.136  0.00  0.00    +0.216 C 
ATOM     23  H   UNL     1     -12.103  -6.318  12.517  0.00  0.00    +0.149 HD
BRANCH  15   7
ATOM      7  C   UNL     1     -12.012  -4.568  10.682  0.00  0.00    +0.075 C 
ATOM      8  C   UNL     1     -11.389  -3.526   9.812  0.00  0.00    +0.013 C 
ATOM      9  C   UNL     1     -12.856  -3.817   9.707  0.00  0.00    +0.013 C 
ENDBRANCH  15   7
ENDBRANCH  13   5
ENDBRANCH  10  13
TORSDOF 8
ENDMDL
MODEL 9
REMARK VINA RESULT:      -5.9     25.957     28.274
REMARK  Name = 75536543
REMARK  8 active torsions:
REMARK  status: ('A' for Active; 'I' for Inactive)
REMARK    1  A    between atoms: O_2  and  C_11
REMARK    2  A    between atoms: O_4  and  C_18
REMARK    3  A    between atoms: N_5  and  C_13
REMARK    4  A    between atoms: N_6  and  C_12
REMARK    5  A    between atoms: N_6  and  C_16
REMARK    6  A    between atoms: C_7  and  C_15
REMARK    7  A    between atoms: C_10  and  C_13
REMARK    8  A    between atoms: C_16  and  C_17
REMARK                            x       y       z     vdW  Elec       q    Type
REMARK                         _______ _______ _______ _____ _____    ______ ____
ROOT
ATOM      1  O   UNL     1      -7.480 -13.121  18.175  0.00  0.00    -0.371 OA
ATOM     10  C   UNL     1      -7.457 -12.391  19.413  0.00  0.00    +0.165 C 
ATOM     11  C   UNL     1      -6.153 -11.605  19.416  0.00  0.00    +0.164 C 
ATOM     12  C   UNL     1      -5.228 -12.570  18.698  0.00  0.00    +0.111 C 
ATOM     14  C   UNL     1      -6.150 -13.128  17.625  0.00  0.00    +0.181 C 
ENDROOT
BRANCH  11   2
ATOM      2  O   UNL     1      -5.719 -11.309  20.728  0.00  0.00    -0.388 OA
ATOM     25  H   UNL     1      -4.815 -10.953  20.679  0.00  0.00    +0.210 HD
ENDBRANCH  11   2
BRANCH  12   6
ATOM      6  N   UNL     1      -4.038 -11.940  18.149  0.00  0.00    -0.305 NA
ATOM     24  H   UNL     1      -3.567 -12.600  17.531  0.00  0.00    +0.123 HD
BRANCH   6  16
ATOM     16  C   UNL     1      -4.380 -10.743  17.391  0.00  0.00    +0.120 C 
BRANCH  16  17
ATOM     17  C   UNL     1      -3.736 -10.738  16.030  0.00  0.00    +0.008 A 
ATOM     18  C   UNL     1      -2.354 -10.878  15.894  0.00  0.00    +0.121 A 
ATOM     19  C   UNL     1      -4.536 -10.592  14.897  0.00  0.00    +0.008 A 
ATOM     20  C   UNL     1      -1.774 -10.872  14.626  0.00  0.00    +0.046 A 
ATOM     21  C   UNL     1      -3.955 -10.586  13.628  0.00  0.00    +0.001 A 
ATOM     22  C   UNL     1      -2.575 -10.726  13.493  0.00  0.00    +0.004 A 
BRANCH  18   4
ATOM      4  O   UNL     1      -1.558 -11.023  16.990  0.00  0.00    -0.506 OA
ATOM     26  H   UNL     1      -1.981 -10.586  17.750  0.00  0.00    +0.292 HD
ENDBRANCH  18   4
ENDBRANCH  16  17
ENDBRANCH   6  16
ENDBRANCH  12   6
BRANCH  10  13
ATOM     13  C   UNL     1      -8.689 -11.511  19.513  0.00  0.00    +0.138 C 
BRANCH  13   5
ATOM      3  O   UNL     1     -10.753 -10.165  17.968  0.00  0.00    -0.276 OA
ATOM      5  N   UNL     1      -8.551 -10.327  18.715  0.00  0.00    -0.313 N 
ATOM     15  C   UNL     1      -9.599  -9.753  18.008  0.00  0.00    +0.216 C 
ATOM     23  H   UNL     1      -7.638  -9.884  18.683  0.00  0.00    +0.149 HD
BRANCH  15   7
ATOM      7  C   UNL     1      -9.228  -8.525  17.247  0.00  0.00    +0.075 C 
ATOM      8  C   UNL     1     -10.301  -7.538  16.921  0.00  0.00    +0.013 C 
ATOM      9  C   UNL     1      -9.704  -8.388  15.839  0.00  0.00    +0.013 C 
ENDBRANCH  15   7
ENDBRANCH  13   5
ENDBRANCH  10  13
TORSDOF 8
ENDMDL
MODEL 10
REMARK VINA RESULT:      -5.9      4.942      6.914
REMARK  Name = 75536543
REMARK  8 active torsions:
REMARK  status: ('A' for Active; 'I' for Inactive)
REMARK    1  A    between atoms: O_2  and  C_11
REMARK    2  A    between atoms: O_4  and  C_18
REMARK    3  A    between atoms: N_5  and  C_13
REMARK    4  A    between atoms: N_6  and  C_12
REMARK    5  A    between atoms: N_6  and  C_16
REMARK    6  A    between atoms: C_7  and  C_15
REMARK    7  A    between atoms: C_10  and  C_13
REMARK    8  A    between atoms: C_16  and  C_17
REMARK                            x       y       z     vdW  Elec       q    Type
REMARK                         _______ _______ _______ _____ _____    ______ ____
ROOT
ATOM      1  O   UNL     1      11.726   7.475  18.459  0.00  0.00    -0.371 OA
ATOM     10  C   UNL     1      12.450   8.716  18.418  0.00  0.00    +0.165 C 
ATOM     11  C   UNL     1      13.839   8.411  18.961  0.00  0.00    +0.164 C 
ATOM     12  C   UNL     1      13.520   7.366  20.013  0.00  0.00    +0.111 C 
ATOM     14  C   UNL     1      12.432   6.562  19.318  0.00  0.00    +0.181 C 
ENDROOT
BRANCH  11   2
ATOM      2  O   UNL     1      14.457   9.561  19.505  0.00  0.00    -0.388 OA
ATOM     25  H   UNL     1      15.361   9.620  19.150  0.00  0.00    +0.210 HD
ENDBRANCH  11   2
BRANCH  12   6
ATOM      6  N   UNL     1      14.664   6.556  20.398  0.00  0.00    -0.305 NA
ATOM     24  H   UNL     1      14.376   5.580  20.459  0.00  0.00    +0.123 HD
BRANCH   6  16
ATOM     16  C   UNL     1      15.741   6.671  19.422  0.00  0.00    +0.120 C 
BRANCH  16  17
ATOM     17  C   UNL     1      17.092   6.746  20.083  0.00  0.00    +0.008 A 
ATOM     18  C   UNL     1      17.365   7.727  21.037  0.00  0.00    +0.121 A 
ATOM     19  C   UNL     1      18.075   5.820  19.733  0.00  0.00    +0.008 A 
ATOM     20  C   UNL     1      18.622   7.781  21.640  0.00  0.00    +0.046 A 
ATOM     21  C   UNL     1      19.331   5.876  20.336  0.00  0.00    +0.001 A 
ATOM     22  C   UNL     1      19.605   6.856  21.289  0.00  0.00    +0.004 A 
BRANCH  18   4
ATOM      4  O   UNL     1      16.417   8.638  21.391  0.00  0.00    -0.506 OA
ATOM     26  H   UNL     1      16.816   9.299  21.983  0.00  0.00    +0.292 HD
ENDBRANCH  18   4
ENDBRANCH  16  17
ENDBRANCH   6  16
ENDBRANCH  12   6
BRANCH  10  13
ATOM     13  C   UNL     1      12.464   9.255  16.999  0.00  0.00    +0.138 C 
BRANCH  13   5
ATOM      3  O   UNL     1      13.105  10.763  14.596  0.00  0.00    -0.276 OA
ATOM      5  N   UNL     1      13.610  10.087  16.768  0.00  0.00    -0.313 N 
ATOM     15  C   UNL     1      13.833  10.772  15.582  0.00  0.00    +0.216 C 
ATOM     23  H   UNL     1      14.281  10.186  17.524  0.00  0.00    +0.149 HD
BRANCH  15   7
ATOM      7  C   UNL     1      15.087  11.579  15.563  0.00  0.00    +0.075 C 
ATOM      8  C   UNL     1      15.401  12.379  14.342  0.00  0.00    +0.013 C 
ATOM      9  C   UNL     1      16.198  11.150  14.664  0.00  0.00    +0.013 C 
ENDBRANCH  15   7
ENDBRANCH  13   5
ENDBRANCH  10  13
TORSDOF 8
ENDMDL
