MODEL 1
REMARK VINA RESULT:      -5.7      0.000      0.000
REMARK  Name = 56775465
REMARK  9 active torsions:
REMARK  status: ('A' for Active; 'I' for Inactive)
REMARK    1  A    between atoms: N_4  and  C_6
REMARK    2  A    between atoms: N_4  and  C_11
REMARK    3  A    between atoms: C_6  and  C_9
REMARK    4  A    between atoms: C_9  and  C_10
REMARK    5  A    between atoms: C_11  and  C_15
REMARK    6  A    between atoms: C_12  and  C_14
REMARK    7  A    between atoms: C_12  and  C_16
REMARK    8  A    between atoms: C_12  and  C_17
REMARK    9  A    between atoms: C_12  and  C_18
REMARK                            x       y       z     vdW  Elec       q    Type
REMARK                         _______ _______ _______ _____ _____    ______ ____
ROOT
ATOM      2  O   UNL     1      -1.852 -14.153  14.135  0.00  0.00    -0.376 OA
ATOM      6  C   UNL     1      -2.663 -12.180  14.059  0.00  0.00    +0.072 C 
ATOM      7  C   UNL     1      -1.378 -12.882  13.634  0.00  0.00    +0.184 C 
ATOM      8  C   UNL     1      -3.130 -13.571  14.477  0.00  0.00    +0.184 C 
ENDROOT
BRANCH   6   4
ATOM      4  N   UNL     1      -3.397 -11.778  12.866  0.00  0.00    -0.302 NA
ATOM     24  H   UNL     1      -3.463 -12.491  12.140  0.00  0.00    +0.123 HD
BRANCH   4  11
ATOM     11  C   UNL     1      -2.811 -10.560  12.312  0.00  0.00    +0.117 C 
BRANCH  11  15
ATOM      1  F   UNL     1      -6.360  -7.931   8.814  0.00  0.00    -0.205 F 
ATOM     15  C   UNL     1      -3.759  -9.858  11.377  0.00  0.00    -0.033 A 
ATOM     19  C   UNL     1      -5.077  -9.621  11.769  0.00  0.00    +0.008 A 
ATOM     20  C   UNL     1      -3.320  -9.444  10.120  0.00  0.00    +0.008 A 
ATOM     21  C   UNL     1      -5.956  -8.970  10.903  0.00  0.00    +0.038 A 
ATOM     22  C   UNL     1      -4.199  -8.792   9.254  0.00  0.00    +0.038 A 
ATOM     23  C   UNL     1      -5.517  -8.556   9.646  0.00  0.00    +0.123 A 
ENDBRANCH  11  15
ENDBRANCH   4  11
ENDBRANCH   6   4
BRANCH   6   9
ATOM      9  C   UNL     1      -2.591 -11.072  15.119  0.00  0.00    +0.085 C 
BRANCH   9  10
ATOM      3  O   UNL     1      -5.957 -10.322  16.048  0.00  0.00    -0.359 OA
ATOM      5  N   UNL     1      -4.905 -10.328  15.140  0.00  0.00    -0.083 NA
ATOM     10  C   UNL     1      -3.888 -10.898  15.792  0.00  0.00    +0.086 A 
ATOM     13  C   UNL     1      -4.236 -11.269  17.103  0.00  0.00    +0.071 A 
ATOM     14  C   UNL     1      -5.546 -10.884  17.214  0.00  0.00    +0.143 A 
BRANCH  14  12
ATOM     12  C   UNL     1      -6.587 -10.963  18.342  0.00  0.00    +0.023 C 
ATOM     16  C   UNL     1      -7.799 -10.073  17.995  0.00  0.00    +0.019 C 
ATOM     17  C   UNL     1      -7.061 -12.423  18.511  0.00  0.00    +0.019 C 
ATOM     18  C   UNL     1      -6.055 -10.495  19.716  0.00  0.00    +0.019 C 
ENDBRANCH  14  12
ENDBRANCH   9  10
ENDBRANCH   6   9
TORSDOF 6
ENDMDL
MODEL 2
REMARK VINA RESULT:      -5.6     23.032     25.831
REMARK  Name = 56775465
REMARK  9 active torsions:
REMARK  status: ('A' for Active; 'I' for Inactive)
REMARK    1  A    between atoms: N_4  and  C_6
REMARK    2  A    between atoms: N_4  and  C_11
REMARK    3  A    between atoms: C_6  and  C_9
REMARK    4  A    between atoms: C_9  and  C_10
REMARK    5  A    between atoms: C_11  and  C_15
REMARK    6  A    between atoms: C_12  and  C_14
REMARK    7  A    between atoms: C_12  and  C_16
REMARK    8  A    between atoms: C_12  and  C_17
REMARK    9  A    between atoms: C_12  and  C_18
REMARK                            x       y       z     vdW  Elec       q    Type
REMARK                         _______ _______ _______ _____ _____    ______ ____
ROOT
ATOM      2  O   UNL     1       9.371   5.094   9.275  0.00  0.00    -0.376 OA
ATOM      6  C   UNL     1       9.908   5.607   7.274  0.00  0.00    +0.072 C 
ATOM      7  C   UNL     1       9.609   6.338   8.577  0.00  0.00    +0.184 C 
ATOM      8  C   UNL     1       9.735   4.336   8.099  0.00  0.00    +0.184 C 
ENDROOT
BRANCH   6   4
ATOM      4  N   UNL     1      11.320   5.770   6.956  0.00  0.00    -0.302 NA
ATOM     24  H   UNL     1      11.965   5.443   7.675  0.00  0.00    +0.123 HD
BRANCH   4  11
ATOM     11  C   UNL     1      11.598   7.170   6.641  0.00  0.00    +0.117 C 
BRANCH  11  15
ATOM      1  F   UNL     1      16.622   7.804   4.170  0.00  0.00    -0.205 F 
ATOM     15  C   UNL     1      12.940   7.339   5.980  0.00  0.00    -0.033 A 
ATOM     19  C   UNL     1      14.081   7.532   6.760  0.00  0.00    +0.008 A 
ATOM     20  C   UNL     1      13.043   7.303   4.590  0.00  0.00    +0.008 A 
ATOM     21  C   UNL     1      15.325   7.690   6.148  0.00  0.00    +0.038 A 
ATOM     22  C   UNL     1      14.287   7.460   3.978  0.00  0.00    +0.038 A 
ATOM     23  C   UNL     1      15.427   7.654   4.758  0.00  0.00    +0.123 A 
ENDBRANCH  11  15
ENDBRANCH   4  11
ENDBRANCH   6   4
BRANCH   6   9
ATOM      9  C   UNL     1       8.992   5.837   6.064  0.00  0.00    +0.085 C 
BRANCH   9  10
ATOM      3  O   UNL     1      10.799   4.276   3.409  0.00  0.00    -0.359 OA
ATOM      5  N   UNL     1      10.271   4.289   4.694  0.00  0.00    -0.083 NA
ATOM     10  C   UNL     1       9.671   5.477   4.808  0.00  0.00    +0.086 A 
ATOM     13  C   UNL     1       9.787   6.249   3.639  0.00  0.00    +0.071 A 
ATOM     14  C   UNL     1      10.505   5.448   2.790  0.00  0.00    +0.143 A 
BRANCH  14  12
ATOM     12  C   UNL     1      11.014   5.612   1.350  0.00  0.00    +0.023 C 
ATOM     16  C   UNL     1      10.990   7.104   0.956  0.00  0.00    +0.019 C 
ATOM     17  C   UNL     1      12.462   5.083   1.247  0.00  0.00    +0.019 C 
ATOM     18  C   UNL     1      10.175   4.848   0.299  0.00  0.00    +0.019 C 
ENDBRANCH  14  12
ENDBRANCH   9  10
ENDBRANCH   6   9
TORSDOF 6
ENDMDL
MODEL 3
REMARK VINA RESULT:      -5.6      2.698      6.366
REMARK  Name = 56775465
REMARK  9 active torsions:
REMARK  status: ('A' for Active; 'I' for Inactive)
REMARK    1  A    between atoms: N_4  and  C_6
REMARK    2  A    between atoms: N_4  and  C_11
REMARK    3  A    between atoms: C_6  and  C_9
REMARK    4  A    between atoms: C_9  and  C_10
REMARK    5  A    between atoms: C_11  and  C_15
REMARK    6  A    between atoms: C_12  and  C_14
REMARK    7  A    between atoms: C_12  and  C_16
REMARK    8  A    between atoms: C_12  and  C_17
REMARK    9  A    between atoms: C_12  and  C_18
REMARK                            x       y       z     vdW  Elec       q    Type
REMARK                         _______ _______ _______ _____ _____    ______ ____
ROOT
ATOM      2  O   UNL     1      -2.217 -13.811  12.964  0.00  0.00    -0.376 OA
ATOM      6  C   UNL     1      -2.446 -12.066  14.172  0.00  0.00    +0.072 C 
ATOM      7  C   UNL     1      -3.318 -12.921  13.260  0.00  0.00    +0.184 C 
ATOM      8  C   UNL     1      -1.361 -13.100  13.888  0.00  0.00    +0.184 C 
ENDROOT
BRANCH   6   4
ATOM      4  N   UNL     1      -2.900 -12.229  15.546  0.00  0.00    -0.302 NA
ATOM     24  H   UNL     1      -3.796 -12.705  15.651  0.00  0.00    +0.123 HD
BRANCH   4  11
ATOM     11  C   UNL     1      -2.950 -10.928  16.208  0.00  0.00    +0.117 C 
BRANCH  11  15
ATOM      1  F   UNL     1      -8.097  -9.782  18.194  0.00  0.00    -0.205 F 
ATOM     15  C   UNL     1      -4.326 -10.621  16.738  0.00  0.00    -0.033 A 
ATOM     19  C   UNL     1      -4.671 -10.997  18.037  0.00  0.00    +0.008 A 
ATOM     20  C   UNL     1      -5.253  -9.963  15.932  0.00  0.00    +0.008 A 
ATOM     21  C   UNL     1      -5.946 -10.713  18.528  0.00  0.00    +0.038 A 
ATOM     22  C   UNL     1      -6.528  -9.679  16.424  0.00  0.00    +0.038 A 
ATOM     23  C   UNL     1      -6.873 -10.054  17.722  0.00  0.00    +0.123 A 
ENDBRANCH  11  15
ENDBRANCH   4  11
ENDBRANCH   6   4
BRANCH   6   9
ATOM      9  C   UNL     1      -2.189 -10.600  13.796  0.00  0.00    +0.085 C 
BRANCH   9  10
ATOM      3  O   UNL     1      -2.855  -9.810  10.378  0.00  0.00    -0.359 OA
ATOM      5  N   UNL     1      -1.989 -10.091  11.428  0.00  0.00    -0.083 NA
ATOM     10  C   UNL     1      -2.781 -10.276  12.488  0.00  0.00    +0.086 A 
ATOM     13  C   UNL     1      -4.142 -10.126  12.170  0.00  0.00    +0.071 A 
ATOM     14  C   UNL     1      -4.134  -9.833  10.832  0.00  0.00    +0.143 A 
BRANCH  14  12
ATOM     12  C   UNL     1      -5.235  -9.542   9.800  0.00  0.00    +0.023 C 
ATOM     16  C   UNL     1      -5.487  -8.021   9.724  0.00  0.00    +0.019 C 
ATOM     17  C   UNL     1      -4.794 -10.052   8.411  0.00  0.00    +0.019 C 
ATOM     18  C   UNL     1      -6.589 -10.214  10.124  0.00  0.00    +0.019 C 
ENDBRANCH  14  12
ENDBRANCH   9  10
ENDBRANCH   6   9
TORSDOF 6
ENDMDL
MODEL 4
REMARK VINA RESULT:      -5.4      3.400      5.703
REMARK  Name = 56775465
REMARK  9 active torsions:
REMARK  status: ('A' for Active; 'I' for Inactive)
REMARK    1  A    between atoms: N_4  and  C_6
REMARK    2  A    between atoms: N_4  and  C_11
REMARK    3  A    between atoms: C_6  and  C_9
REMARK    4  A    between atoms: C_9  and  C_10
REMARK    5  A    between atoms: C_11  and  C_15
REMARK    6  A    between atoms: C_12  and  C_14
REMARK    7  A    between atoms: C_12  and  C_16
REMARK    8  A    between atoms: C_12  and  C_17
REMARK    9  A    between atoms: C_12  and  C_18
REMARK                            x       y       z     vdW  Elec       q    Type
REMARK                         _______ _______ _______ _____ _____    ______ ____
ROOT
ATOM      2  O   UNL     1      -7.982 -13.003  19.022  0.00  0.00    -0.376 OA
ATOM      6  C   UNL     1      -6.858 -11.466  18.058  0.00  0.00    +0.072 C 
ATOM      7  C   UNL     1      -6.743 -12.318  19.316  0.00  0.00    +0.184 C 
ATOM      8  C   UNL     1      -8.104 -12.297  17.766  0.00  0.00    +0.184 C 
ENDROOT
BRANCH   6   4
ATOM      4  N   UNL     1      -5.807 -11.856  17.128  0.00  0.00    -0.302 NA
ATOM     24  H   UNL     1      -5.558 -12.845  17.148  0.00  0.00    +0.123 HD
BRANCH   4  11
ATOM     11  C   UNL     1      -4.617 -11.040  17.355  0.00  0.00    +0.117 C 
BRANCH  11  15
ATOM      1  F   UNL     1      -1.653 -10.289  12.623  0.00  0.00    -0.205 F 
ATOM     15  C   UNL     1      -3.824 -10.840  16.091  0.00  0.00    -0.033 A 
ATOM     19  C   UNL     1      -4.469 -10.862  14.854  0.00  0.00    +0.008 A 
ATOM     20  C   UNL     1      -2.447 -10.632  16.156  0.00  0.00    +0.008 A 
ATOM     21  C   UNL     1      -3.735 -10.676  13.682  0.00  0.00    +0.038 A 
ATOM     22  C   UNL     1      -1.713 -10.445  14.984  0.00  0.00    +0.038 A 
ATOM     23  C   UNL     1      -2.358 -10.468  13.748  0.00  0.00    +0.123 A 
ENDBRANCH  11  15
ENDBRANCH   4  11
ENDBRANCH   6   4
BRANCH   6   9
ATOM      9  C   UNL     1      -6.998  -9.944  18.198  0.00  0.00    +0.085 C 
BRANCH   9  10
ATOM      3  O   UNL     1      -8.846  -8.977  15.300  0.00  0.00    -0.359 OA
ATOM      5  N   UNL     1      -7.767  -9.596  15.919  0.00  0.00    -0.083 NA
ATOM     10  C   UNL     1      -7.965  -9.408  17.226  0.00  0.00    +0.086 A 
ATOM     13  C   UNL     1      -9.141  -8.685  17.490  0.00  0.00    +0.071 A 
ATOM     14  C   UNL     1      -9.657  -8.438  16.245  0.00  0.00    +0.143 A 
BRANCH  14  12
ATOM     12  C   UNL     1     -10.911  -7.707  15.739  0.00  0.00    +0.023 C 
ATOM     16  C   UNL     1     -11.255  -8.190  14.314  0.00  0.00    +0.019 C 
ATOM     17  C   UNL     1     -12.101  -8.007  16.676  0.00  0.00    +0.019 C 
ATOM     18  C   UNL     1     -10.756  -6.170  15.676  0.00  0.00    +0.019 C 
ENDBRANCH  14  12
ENDBRANCH   9  10
ENDBRANCH   6   9
TORSDOF 6
ENDMDL
MODEL 5
REMARK VINA RESULT:      -5.4      2.404      3.836
REMARK  Name = 56775465
REMARK  9 active torsions:
REMARK  status: ('A' for Active; 'I' for Inactive)
REMARK    1  A    between atoms: N_4  and  C_6
REMARK    2  A    between atoms: N_4  and  C_11
REMARK    3  A    between atoms: C_6  and  C_9
REMARK    4  A    between atoms: C_9  and  C_10
REMARK    5  A    between atoms: C_11  and  C_15
REMARK    6  A    between atoms: C_12  and  C_14
REMARK    7  A    between atoms: C_12  and  C_16
REMARK    8  A    between atoms: C_12  and  C_17
REMARK    9  A    between atoms: C_12  and  C_18
REMARK                            x       y       z     vdW  Elec       q    Type
REMARK                         _______ _______ _______ _____ _____    ______ ____
ROOT
ATOM      2  O   UNL     1      -5.995 -13.800  17.316  0.00  0.00    -0.376 OA
ATOM      6  C   UNL     1      -4.798 -12.051  17.066  0.00  0.00    +0.072 C 
ATOM      7  C   UNL     1      -4.847 -13.252  18.003  0.00  0.00    +0.184 C 
ATOM      8  C   UNL     1      -5.947 -12.738  16.336  0.00  0.00    +0.184 C 
ENDROOT
BRANCH   6   4
ATOM      4  N   UNL     1      -3.599 -12.144  16.244  0.00  0.00    -0.302 NA
ATOM     24  H   UNL     1      -2.825 -12.657  16.666  0.00  0.00    +0.123 HD
BRANCH   4  11
ATOM     11  C   UNL     1      -3.156 -10.806  15.860  0.00  0.00    +0.117 C 
BRANCH  11  15
ATOM      1  F   UNL     1      -3.018 -10.167  10.264  0.00  0.00    -0.205 F 
ATOM     15  C   UNL     1      -3.119 -10.636  14.364  0.00  0.00    -0.033 A 
ATOM     19  C   UNL     1      -4.307 -10.632  13.634  0.00  0.00    +0.008 A 
ATOM     20  C   UNL     1      -1.897 -10.480  13.711  0.00  0.00    +0.008 A 
ATOM     21  C   UNL     1      -4.273 -10.474  12.248  0.00  0.00    +0.038 A 
ATOM     22  C   UNL     1      -1.863 -10.322  12.325  0.00  0.00    +0.038 A 
ATOM     23  C   UNL     1      -3.051 -10.319  11.594  0.00  0.00    +0.123 A 
ENDBRANCH  11  15
ENDBRANCH   4  11
ENDBRANCH   6   4
BRANCH   6   9
ATOM      9  C   UNL     1      -5.020 -10.646  17.642  0.00  0.00    +0.085 C 
BRANCH   9  10
ATOM      3  O   UNL     1      -7.924  -9.153  16.197  0.00  0.00    -0.359 OA
ATOM      5  N   UNL     1      -6.570  -9.466  16.189  0.00  0.00    -0.083 NA
ATOM     10  C   UNL     1      -6.367 -10.147  17.320  0.00  0.00    +0.086 A 
ATOM     13  C   UNL     1      -7.544 -10.295  18.073  0.00  0.00    +0.071 A 
ATOM     14  C   UNL     1      -8.493  -9.651  17.324  0.00  0.00    +0.143 A 
BRANCH  14  12
ATOM     12  C   UNL     1      -9.999  -9.399  17.503  0.00  0.00    +0.023 C 
ATOM     16  C   UNL     1     -10.441  -9.863  18.907  0.00  0.00    +0.019 C 
ATOM     17  C   UNL     1     -10.295  -7.891  17.350  0.00  0.00    +0.019 C 
ATOM     18  C   UNL     1     -10.884 -10.143  16.476  0.00  0.00    +0.019 C 
ENDBRANCH  14  12
ENDBRANCH   9  10
ENDBRANCH   6   9
TORSDOF 6
ENDMDL
MODEL 6
REMARK VINA RESULT:      -5.3      2.945      6.398
REMARK  Name = 56775465
REMARK  9 active torsions:
REMARK  status: ('A' for Active; 'I' for Inactive)
REMARK    1  A    between atoms: N_4  and  C_6
REMARK    2  A    between atoms: N_4  and  C_11
REMARK    3  A    between atoms: C_6  and  C_9
REMARK    4  A    between atoms: C_9  and  C_10
REMARK    5  A    between atoms: C_11  and  C_15
REMARK    6  A    between atoms: C_12  and  C_14
REMARK    7  A    between atoms: C_12  and  C_16
REMARK    8  A    between atoms: C_12  and  C_17
REMARK    9  A    between atoms: C_12  and  C_18
REMARK                            x       y       z     vdW  Elec       q    Type
REMARK                         _______ _______ _______ _____ _____    ______ ____
ROOT
ATOM      2  O   UNL     1      -5.445 -13.149  17.992  0.00  0.00    -0.376 OA
ATOM      6  C   UNL     1      -5.949 -11.261  17.133  0.00  0.00    +0.072 C 
ATOM      7  C   UNL     1      -5.742 -12.693  16.652  0.00  0.00    +0.184 C 
ATOM      8  C   UNL     1      -5.719 -11.835  18.527  0.00  0.00    +0.184 C 
ENDROOT
BRANCH   6   4
ATOM      4  N   UNL     1      -7.358 -10.918  16.994  0.00  0.00    -0.302 NA
ATOM     24  H   UNL     1      -7.753 -11.082  16.068  0.00  0.00    +0.123 HD
BRANCH   4  11
ATOM     11  C   UNL     1      -7.568  -9.525  17.381  0.00  0.00    +0.117 C 
BRANCH  11  15
ATOM      1  F   UNL     1     -12.092  -7.304  14.862  0.00  0.00    -0.205 F 
ATOM     15  C   UNL     1      -8.777  -8.932  16.708  0.00  0.00    -0.033 A 
ATOM     19  C   UNL     1      -9.583  -8.025  17.396  0.00  0.00    +0.008 A 
ATOM     20  C   UNL     1      -9.089  -9.288  15.396  0.00  0.00    +0.008 A 
ATOM     21  C   UNL     1     -10.704  -7.476  16.773  0.00  0.00    +0.038 A 
ATOM     22  C   UNL     1     -10.210  -8.738  14.772  0.00  0.00    +0.038 A 
ATOM     23  C   UNL     1     -11.016  -7.832  15.461  0.00  0.00    +0.123 A 
ENDBRANCH  11  15
ENDBRANCH   4  11
ENDBRANCH   6   4
BRANCH   6   9
ATOM      9  C   UNL     1      -5.011 -10.160  16.619  0.00  0.00    +0.085 C 
BRANCH   9  10
ATOM      3  O   UNL     1      -5.307 -10.172  13.061  0.00  0.00    -0.359 OA
ATOM      5  N   UNL     1      -5.822  -9.973  14.336  0.00  0.00    -0.083 NA
ATOM     10  C   UNL     1      -4.816 -10.266  15.164  0.00  0.00    +0.086 A 
ATOM     13  C   UNL     1      -3.652 -10.651  14.476  0.00  0.00    +0.071 A 
ATOM     14  C   UNL     1      -4.014 -10.576  13.157  0.00  0.00    +0.143 A 
BRANCH  14  12
ATOM     12  C   UNL     1      -3.278 -10.846  11.835  0.00  0.00    +0.023 C 
ATOM     16  C   UNL     1      -3.651  -9.762  10.801  0.00  0.00    +0.019 C 
ATOM     17  C   UNL     1      -1.753 -10.815  12.074  0.00  0.00    +0.019 C 
ATOM     18  C   UNL     1      -3.613 -12.216  11.201  0.00  0.00    +0.019 C 
ENDBRANCH  14  12
ENDBRANCH   9  10
ENDBRANCH   6   9
TORSDOF 6
ENDMDL
MODEL 7
REMARK VINA RESULT:      -5.2     23.917     25.791
REMARK  Name = 56775465
REMARK  9 active torsions:
REMARK  status: ('A' for Active; 'I' for Inactive)
REMARK    1  A    between atoms: N_4  and  C_6
REMARK    2  A    between atoms: N_4  and  C_11
REMARK    3  A    between atoms: C_6  and  C_9
REMARK    4  A    between atoms: C_9  and  C_10
REMARK    5  A    between atoms: C_11  and  C_15
REMARK    6  A    between atoms: C_12  and  C_14
REMARK    7  A    between atoms: C_12  and  C_16
REMARK    8  A    between atoms: C_12  and  C_17
REMARK    9  A    between atoms: C_12  and  C_18
REMARK                            x       y       z     vdW  Elec       q    Type
REMARK                         _______ _______ _______ _____ _____    ______ ____
ROOT
ATOM      2  O   UNL     1       9.024   8.012   8.118  0.00  0.00    -0.376 OA
ATOM      6  C   UNL     1       9.557   7.103   6.262  0.00  0.00    +0.072 C 
ATOM      7  C   UNL     1       8.286   7.352   7.065  0.00  0.00    +0.184 C 
ATOM      8  C   UNL     1      10.253   7.893   7.365  0.00  0.00    +0.184 C 
ENDROOT
BRANCH   6   4
ATOM      4  N   UNL     1       9.518   7.919   5.055  0.00  0.00    -0.302 NA
ATOM     24  H   UNL     1       9.550   8.925   5.214  0.00  0.00    +0.123 HD
BRANCH   4  11
ATOM     11  C   UNL     1       8.337   7.579   4.266  0.00  0.00    +0.117 C 
BRANCH  11  15
ATOM      1  F   UNL     1       8.646   9.644  -0.967  0.00  0.00    -0.205 F 
ATOM     15  C   UNL     1       8.420   8.131   2.867  0.00  0.00    -0.033 A 
ATOM     19  C   UNL     1       9.378   7.641   1.980  0.00  0.00    +0.008 A 
ATOM     20  C   UNL     1       7.538   9.131   2.460  0.00  0.00    +0.008 A 
ATOM     21  C   UNL     1       9.455   8.153   0.685  0.00  0.00    +0.038 A 
ATOM     22  C   UNL     1       7.614   9.643   1.164  0.00  0.00    +0.038 A 
ATOM     23  C   UNL     1       8.573   9.153   0.277  0.00  0.00    +0.123 A 
ENDBRANCH  11  15
ENDBRANCH   4  11
ENDBRANCH   6   4
BRANCH   6   9
ATOM      9  C   UNL     1       9.998   5.658   5.993  0.00  0.00    +0.085 C 
BRANCH   9  10
ATOM      3  O   UNL     1      12.355   6.051   3.338  0.00  0.00    -0.359 OA
ATOM      5  N   UNL     1      11.826   6.402   4.575  0.00  0.00    -0.083 NA
ATOM     10  C   UNL     1      10.800   5.569   4.761  0.00  0.00    +0.086 A 
ATOM     13  C   UNL     1      10.634   4.677   3.687  0.00  0.00    +0.071 A 
ATOM     14  C   UNL     1      11.636   5.022   2.819  0.00  0.00    +0.143 A 
BRANCH  14  12
ATOM     12  C   UNL     1      12.080   4.498   1.445  0.00  0.00    +0.023 C 
ATOM     16  C   UNL     1      10.840   4.195   0.577  0.00  0.00    +0.019 C 
ATOM     17  C   UNL     1      12.946   5.563   0.737  0.00  0.00    +0.019 C 
ATOM     18  C   UNL     1      12.919   3.200   1.512  0.00  0.00    +0.019 C 
ENDBRANCH  14  12
ENDBRANCH   9  10
ENDBRANCH   6   9
TORSDOF 6
ENDMDL
MODEL 8
REMARK VINA RESULT:      -5.2     23.602     26.348
REMARK  Name = 56775465
REMARK  9 active torsions:
REMARK  status: ('A' for Active; 'I' for Inactive)
REMARK    1  A    between atoms: N_4  and  C_6
REMARK    2  A    between atoms: N_4  and  C_11
REMARK    3  A    between atoms: C_6  and  C_9
REMARK    4  A    between atoms: C_9  and  C_10
REMARK    5  A    between atoms: C_11  and  C_15
REMARK    6  A    between atoms: C_12  and  C_14
REMARK    7  A    between atoms: C_12  and  C_16
REMARK    8  A    between atoms: C_12  and  C_17
REMARK    9  A    between atoms: C_12  and  C_18
REMARK                            x       y       z     vdW  Elec       q    Type
REMARK                         _______ _______ _______ _____ _____    ______ ____
ROOT
ATOM      2  O   UNL     1      12.915   7.854   1.964  0.00  0.00    -0.376 OA
ATOM      6  C   UNL     1      11.656   6.140   2.143  0.00  0.00    +0.072 C 
ATOM      7  C   UNL     1      12.648   6.899   3.016  0.00  0.00    +0.184 C 
ATOM      8  C   UNL     1      11.917   7.239   1.118  0.00  0.00    +0.184 C 
ENDROOT
BRANCH   6   4
ATOM      4  N   UNL     1      10.317   6.318   2.689  0.00  0.00    -0.302 NA
ATOM     24  H   UNL     1      10.142   7.227   3.116  0.00  0.00    +0.123 HD
BRANCH   4  11
ATOM     11  C   UNL     1      10.029   5.256   3.650  0.00  0.00    +0.117 C 
BRANCH  11  15
ATOM      1  F   UNL     1       8.497   7.322   8.663  0.00  0.00    -0.205 F 
ATOM     15  C   UNL     1       9.620   5.808   4.990  0.00  0.00    -0.033 A 
ATOM     19  C   UNL     1       8.793   6.929   5.058  0.00  0.00    +0.008 A 
ATOM     20  C   UNL     1      10.067   5.198   6.161  0.00  0.00    +0.008 A 
ATOM     21  C   UNL     1       8.414   7.441   6.299  0.00  0.00    +0.038 A 
ATOM     22  C   UNL     1       9.688   5.710   7.403  0.00  0.00    +0.038 A 
ATOM     23  C   UNL     1       8.861   6.831   7.471  0.00  0.00    +0.123 A 
ENDBRANCH  11  15
ENDBRANCH   4  11
ENDBRANCH   6   4
BRANCH   6   9
ATOM      9  C   UNL     1      11.958   4.684   1.763  0.00  0.00    +0.085 C 
BRANCH   9  10
ATOM      3  O   UNL     1      10.038   4.088  -1.188  0.00  0.00    -0.359 OA
ATOM      5  N   UNL     1      10.154   4.426   0.155  0.00  0.00    -0.083 NA
ATOM     10  C   UNL     1      11.464   4.375   0.411  0.00  0.00    +0.086 A 
ATOM     13  C   UNL     1      12.216   4.014  -0.720  0.00  0.00    +0.071 A 
ATOM     14  C   UNL     1      11.273   3.844  -1.698  0.00  0.00    +0.143 A 
BRANCH  14  12
ATOM     12  C   UNL     1      11.338   3.453  -3.183  0.00  0.00    +0.023 C 
ATOM     16  C   UNL     1      10.063   2.673  -3.571  0.00  0.00    +0.019 C 
ATOM     17  C   UNL     1      11.439   4.725  -4.052  0.00  0.00    +0.019 C 
ATOM     18  C   UNL     1      12.547   2.558  -3.541  0.00  0.00    +0.019 C 
ENDBRANCH  14  12
ENDBRANCH   9  10
ENDBRANCH   6   9
TORSDOF 6
ENDMDL
MODEL 9
REMARK VINA RESULT:      -5.2     23.384     27.077
REMARK  Name = 56775465
REMARK  9 active torsions:
REMARK  status: ('A' for Active; 'I' for Inactive)
REMARK    1  A    between atoms: N_4  and  C_6
REMARK    2  A    between atoms: N_4  and  C_11
REMARK    3  A    between atoms: C_6  and  C_9
REMARK    4  A    between atoms: C_9  and  C_10
REMARK    5  A    between atoms: C_11  and  C_15
REMARK    6  A    between atoms: C_12  and  C_14
REMARK    7  A    between atoms: C_12  and  C_16
REMARK    8  A    between atoms: C_12  and  C_17
REMARK    9  A    between atoms: C_12  and  C_18
REMARK                            x       y       z     vdW  Elec       q    Type
REMARK                         _______ _______ _______ _____ _____    ______ ____
ROOT
ATOM      2  O   UNL     1     -17.374   6.415  33.400  0.00  0.00    -0.376 OA
ATOM      6  C   UNL     1     -15.326   5.821  33.337  0.00  0.00    +0.072 C 
ATOM      7  C   UNL     1     -16.655   5.220  33.778  0.00  0.00    +0.184 C 
ATOM      8  C   UNL     1     -16.164   7.008  32.876  0.00  0.00    +0.184 C 
ENDROOT
BRANCH   6   4
ATOM      4  N   UNL     1     -14.849   5.100  32.164  0.00  0.00    -0.302 NA
ATOM     24  H   UNL     1     -15.573   4.621  31.628  0.00  0.00    +0.123 HD
BRANCH   4  11
ATOM     11  C   UNL     1     -13.811   4.150  32.554  0.00  0.00    +0.117 C 
BRANCH  11  15
ATOM      1  F   UNL     1     -14.554  -0.881  30.129  0.00  0.00    -0.205 F 
ATOM     15  C   UNL     1     -14.009   2.806  31.906  0.00  0.00    -0.033 A 
ATOM     19  C   UNL     1     -14.683   1.794  32.591  0.00  0.00    +0.008 A 
ATOM     20  C   UNL     1     -13.520   2.572  30.621  0.00  0.00    +0.008 A 
ATOM     21  C   UNL     1     -14.866   0.548  31.991  0.00  0.00    +0.038 A 
ATOM     22  C   UNL     1     -13.705   1.326  30.020  0.00  0.00    +0.038 A 
ATOM     23  C   UNL     1     -14.377   0.315  30.706  0.00  0.00    +0.123 A 
ENDBRANCH  11  15
ENDBRANCH   4  11
ENDBRANCH   6   4
BRANCH   6   9
ATOM      9  C   UNL     1     -14.228   6.050  34.385  0.00  0.00    +0.085 C 
BRANCH   9  10
ATOM      3  O   UNL     1     -12.638   9.247  34.456  0.00  0.00    -0.359 OA
ATOM      5  N   UNL     1     -13.404   8.242  35.035  0.00  0.00    -0.083 NA
ATOM     10  C   UNL     1     -13.479   7.286  34.105  0.00  0.00    +0.086 A 
ATOM     13  C   UNL     1     -12.786   7.628  32.931  0.00  0.00    +0.071 A 
ATOM     14  C   UNL     1     -12.276   8.870  33.203  0.00  0.00    +0.143 A 
BRANCH  14  12
ATOM     12  C   UNL     1     -11.418   9.866  32.407  0.00  0.00    +0.023 C 
ATOM     16  C   UNL     1     -11.448   9.496  30.908  0.00  0.00    +0.019 C 
ATOM     17  C   UNL     1     -11.977  11.294  32.588  0.00  0.00    +0.019 C 
ATOM     18  C   UNL     1      -9.934   9.899  32.840  0.00  0.00    +0.019 C 
ENDBRANCH  14  12
ENDBRANCH   9  10
ENDBRANCH   6   9
TORSDOF 6
ENDMDL
MODEL 10
REMARK VINA RESULT:      -5.1     30.403     31.930
REMARK  Name = 56775465
REMARK  9 active torsions:
REMARK  status: ('A' for Active; 'I' for Inactive)
REMARK    1  A    between atoms: N_4  and  C_6
REMARK    2  A    between atoms: N_4  and  C_11
REMARK    3  A    between atoms: C_6  and  C_9
REMARK    4  A    between atoms: C_9  and  C_10
REMARK    5  A    between atoms: C_11  and  C_15
REMARK    6  A    between atoms: C_12  and  C_14
REMARK    7  A    between atoms: C_12  and  C_16
REMARK    8  A    between atoms: C_12  and  C_17
REMARK    9  A    between atoms: C_12  and  C_18
REMARK                            x       y       z     vdW  Elec       q    Type
REMARK                         _______ _______ _______ _____ _____    ______ ____
ROOT
ATOM      2  O   UNL     1      -3.291  11.332  37.405  0.00  0.00    -0.376 OA
ATOM      6  C   UNL     1      -1.760   9.880  37.084  0.00  0.00    +0.072 C 
ATOM      7  C   UNL     1      -2.440  10.551  38.273  0.00  0.00    +0.184 C 
ATOM      8  C   UNL     1      -2.757  10.666  36.238  0.00  0.00    +0.184 C 
ENDROOT
BRANCH   6   4
ATOM      4  N   UNL     1      -2.135   8.472  37.061  0.00  0.00    -0.302 NA
ATOM     24  H   UNL     1      -2.918   8.224  37.665  0.00  0.00    +0.123 HD
BRANCH   4  11
ATOM     11  C   UNL     1      -0.975   7.647  37.390  0.00  0.00    +0.117 C 
BRANCH  11  15
ATOM      1  F   UNL     1      -1.837   4.579  42.037  0.00  0.00    -0.205 F 
ATOM     15  C   UNL     1      -1.205   6.827  38.632  0.00  0.00    -0.033 A 
ATOM     19  C   UNL     1      -2.377   6.994  39.370  0.00  0.00    +0.008 A 
ATOM     20  C   UNL     1      -0.248   5.900  39.043  0.00  0.00    +0.008 A 
ATOM     21  C   UNL     1      -2.590   6.235  40.521  0.00  0.00    +0.038 A 
ATOM     22  C   UNL     1      -0.461   5.140  40.193  0.00  0.00    +0.038 A 
ATOM     23  C   UNL     1      -1.632   5.309  40.932  0.00  0.00    +0.123 A 
ENDBRANCH  11  15
ENDBRANCH   4  11
ENDBRANCH   6   4
BRANCH   6   9
ATOM      9  C   UNL     1      -0.259  10.103  36.861  0.00  0.00    +0.085 C 
BRANCH   9  10
ATOM      3  O   UNL     1       0.342  13.444  35.752  0.00  0.00    -0.359 OA
ATOM      5  N   UNL     1       0.126  12.501  36.749  0.00  0.00    -0.083 NA
ATOM     10  C   UNL     1      -0.014  11.341  36.102  0.00  0.00    +0.086 A 
ATOM     13  C   UNL     1       0.103  11.489  34.709  0.00  0.00    +0.071 A 
ATOM     14  C   UNL     1       0.326  12.830  34.541  0.00  0.00    +0.143 A 
BRANCH  14  12
ATOM     12  C   UNL     1       0.549  13.726  33.312  0.00  0.00    +0.023 C 
ATOM     16  C   UNL     1      -0.809  14.244  32.793  0.00  0.00    +0.019 C 
ATOM     17  C   UNL     1       1.436  14.928  33.701  0.00  0.00    +0.019 C 
ATOM     18  C   UNL     1       1.246  13.008  32.133  0.00  0.00    +0.019 C 
ENDBRANCH  14  12
ENDBRANCH   9  10
ENDBRANCH   6   9
TORSDOF 6
ENDMDL
