MODEL 1
REMARK VINA RESULT:      -7.4      0.000      0.000
REMARK  Name = 51136916
REMARK  6 active torsions:
REMARK  status: ('A' for Active; 'I' for Inactive)
REMARK    1  A    between atoms: N_2  and  C_12
REMARK    2  A    between atoms: C_8  and  C_13
REMARK    3  A    between atoms: C_12  and  C_14
REMARK    4  A    between atoms: C_12  and  C_15
REMARK    5  A    between atoms: C_16  and  C_17
REMARK    6  A    between atoms: C_21  and  C_22
REMARK                            x       y       z     vdW  Elec       q    Type
REMARK                         _______ _______ _______ _____ _____    ______ ____
ROOT
ATOM      1  O   UNL     1      14.916   8.593  20.256  0.00  0.00    -0.336 OA
ATOM      3  N   UNL     1      15.415   6.431  19.947  0.00  0.00    -0.190 NA
ATOM      4  N   UNL     1      16.288   8.470  20.510  0.00  0.00    -0.056 NA
ATOM     13  C   UNL     1      14.480   7.348  19.932  0.00  0.00    +0.245 A 
ATOM     16  C   UNL     1      16.507   7.167  20.307  0.00  0.00    +0.204 A 
ENDROOT
BRANCH  16  17
ATOM      5  N   UNL     1      19.412   4.921  19.727  0.00  0.00    -0.254 NA
ATOM     17  C   UNL     1      17.802   6.570  20.456  0.00  0.00    +0.041 A 
ATOM     18  C   UNL     1      18.690   7.020  21.427  0.00  0.00    +0.015 A 
ATOM     19  C   UNL     1      18.207   5.527  19.638  0.00  0.00    +0.123 A 
ATOM     20  C   UNL     1      19.940   6.420  21.548  0.00  0.00    +0.029 A 
ATOM     21  C   UNL     1      20.250   5.385  20.682  0.00  0.00    +0.074 A 
BRANCH  21  22
ATOM      6  N   UNL     1      23.907   4.730  20.382  0.00  0.00    -0.243 NA
ATOM      7  N   UNL     1      22.839   2.776  21.304  0.00  0.00    -0.243 NA
ATOM     22  C   UNL     1      21.528   4.717  20.750  0.00  0.00    +0.037 A 
ATOM     23  C   UNL     1      22.696   5.324  20.336  0.00  0.00    +0.124 A 
ATOM     24  C   UNL     1      21.660   3.430  21.230  0.00  0.00    +0.124 A 
ATOM     25  C   UNL     1      23.905   3.475  20.870  0.00  0.00    +0.221 A 
ENDBRANCH  21  22
ENDBRANCH  16  17
BRANCH  13   8
ATOM      2  N   UNL     1      12.156   8.066  20.460  0.00  0.00    -0.289 NA
ATOM      8  C   UNL     1      13.007   7.211  19.608  0.00  0.00    +0.146 C 
ATOM      9  C   UNL     1      12.673   7.638  18.167  0.00  0.00    +0.030 C 
ATOM     10  C   UNL     1      10.975   8.397  19.664  0.00  0.00    +0.085 C 
ATOM     11  C   UNL     1      11.583   8.691  18.307  0.00  0.00    +0.017 C 
BRANCH   2  12
ATOM     12  C   UNL     1      11.805   7.444  21.730  0.00  0.00    +0.051 C 
ATOM     14  C   UNL     1      10.792   8.319  22.461  0.00  0.00    +0.024 C 
ATOM     15  C   UNL     1      11.252   6.041  21.497  0.00  0.00    +0.024 C 
ENDBRANCH   2  12
ENDBRANCH  13   8
TORSDOF 4
ENDMDL
MODEL 2
REMARK VINA RESULT:      -7.3      2.262      9.634
REMARK  Name = 51136916
REMARK  6 active torsions:
REMARK  status: ('A' for Active; 'I' for Inactive)
REMARK    1  A    between atoms: N_2  and  C_12
REMARK    2  A    between atoms: C_8  and  C_13
REMARK    3  A    between atoms: C_12  and  C_14
REMARK    4  A    between atoms: C_12  and  C_15
REMARK    5  A    between atoms: C_16  and  C_17
REMARK    6  A    between atoms: C_21  and  C_22
REMARK                            x       y       z     vdW  Elec       q    Type
REMARK                         _______ _______ _______ _____ _____    ______ ____
ROOT
ATOM      1  O   UNL     1      21.791   6.073  21.300  0.00  0.00    -0.336 OA
ATOM      3  N   UNL     1      20.235   4.644  20.557  0.00  0.00    -0.190 NA
ATOM      4  N   UNL     1      20.657   6.845  21.017  0.00  0.00    -0.056 NA
ATOM     13  C   UNL     1      21.458   4.790  21.002  0.00  0.00    +0.245 A 
ATOM     16  C   UNL     1      19.783   5.931  20.584  0.00  0.00    +0.204 A 
ENDROOT
BRANCH  16  17
ATOM      5  N   UNL     1      16.572   5.848  18.711  0.00  0.00    -0.254 NA
ATOM     17  C   UNL     1      18.452   6.271  20.170  0.00  0.00    +0.041 A 
ATOM     18  C   UNL     1      17.755   7.306  20.782  0.00  0.00    +0.015 A 
ATOM     19  C   UNL     1      17.822   5.578  19.149  0.00  0.00    +0.123 A 
ATOM     20  C   UNL     1      16.465   7.613  20.359  0.00  0.00    +0.029 A 
ATOM     21  C   UNL     1      15.924   6.861  19.329  0.00  0.00    +0.074 A 
BRANCH  21  22
ATOM      6  N   UNL     1      12.214   7.194  19.206  0.00  0.00    -0.243 NA
ATOM      7  N   UNL     1      13.121   7.798  17.057  0.00  0.00    -0.243 NA
ATOM     22  C   UNL     1      14.592   7.123  18.839  0.00  0.00    +0.037 A 
ATOM     23  C   UNL     1      13.473   6.962  19.631  0.00  0.00    +0.124 A 
ATOM     24  C   UNL     1      14.354   7.547  17.548  0.00  0.00    +0.124 A 
ATOM     25  C   UNL     1      12.113   7.604  17.927  0.00  0.00    +0.221 A 
ENDBRANCH  21  22
ENDBRANCH  16  17
BRANCH  13   8
ATOM      2  N   UNL     1      23.892   4.317  21.215  0.00  0.00    -0.289 NA
ATOM      8  C   UNL     1      22.530   3.745  21.225  0.00  0.00    +0.146 C 
ATOM      9  C   UNL     1      22.408   3.050  22.593  0.00  0.00    +0.030 C 
ATOM     10  C   UNL     1      24.703   3.467  22.087  0.00  0.00    +0.085 C 
ATOM     11  C   UNL     1      23.766   3.231  23.254  0.00  0.00    +0.017 C 
BRANCH   2  12
ATOM     12  C   UNL     1      24.458   4.430  19.878  0.00  0.00    +0.051 C 
ATOM     14  C   UNL     1      25.560   5.485  19.880  0.00  0.00    +0.024 C 
ATOM     15  C   UNL     1      24.994   3.079  19.413  0.00  0.00    +0.024 C 
ENDBRANCH   2  12
ENDBRANCH  13   8
TORSDOF 4
ENDMDL
MODEL 3
REMARK VINA RESULT:      -7.0      2.185      9.362
REMARK  Name = 51136916
REMARK  6 active torsions:
REMARK  status: ('A' for Active; 'I' for Inactive)
REMARK    1  A    between atoms: N_2  and  C_12
REMARK    2  A    between atoms: C_8  and  C_13
REMARK    3  A    between atoms: C_12  and  C_14
REMARK    4  A    between atoms: C_12  and  C_15
REMARK    5  A    between atoms: C_16  and  C_17
REMARK    6  A    between atoms: C_21  and  C_22
REMARK                            x       y       z     vdW  Elec       q    Type
REMARK                         _______ _______ _______ _____ _____    ______ ____
ROOT
ATOM      1  O   UNL     1      21.148   6.342  22.978  0.00  0.00    -0.336 OA
ATOM      3  N   UNL     1      20.699   5.765  20.861  0.00  0.00    -0.190 NA
ATOM      4  N   UNL     1      19.811   6.693  22.754  0.00  0.00    -0.056 NA
ATOM     13  C   UNL     1      21.596   5.803  21.814  0.00  0.00    +0.245 A 
ATOM     16  C   UNL     1      19.620   6.321  21.484  0.00  0.00    +0.204 A 
ENDROOT
BRANCH  16  17
ATOM      5  N   UNL     1      16.185   7.532  20.740  0.00  0.00    -0.254 NA
ATOM     17  C   UNL     1      18.366   6.493  20.810  0.00  0.00    +0.041 A 
ATOM     18  C   UNL     1      18.096   5.827  19.620  0.00  0.00    +0.015 A 
ATOM     19  C   UNL     1      17.386   7.326  21.325  0.00  0.00    +0.123 A 
ATOM     20  C   UNL     1      16.870   6.013  18.989  0.00  0.00    +0.029 A 
ATOM     21  C   UNL     1      15.957   6.868  19.584  0.00  0.00    +0.074 A 
BRANCH  21  22
ATOM      6  N   UNL     1      12.266   7.169  19.162  0.00  0.00    -0.243 NA
ATOM      7  N   UNL     1      13.336   7.731  17.078  0.00  0.00    -0.243 NA
ATOM     22  C   UNL     1      14.666   7.109  18.986  0.00  0.00    +0.037 A 
ATOM     23  C   UNL     1      13.490   6.957  19.691  0.00  0.00    +0.124 A 
ATOM     24  C   UNL     1      14.528   7.501  17.670  0.00  0.00    +0.124 A 
ATOM     25  C   UNL     1      12.263   7.550  17.871  0.00  0.00    +0.221 A 
ENDBRANCH  21  22
ENDBRANCH  16  17
BRANCH  13   8
ATOM      2  N   UNL     1      23.258   4.211  20.866  0.00  0.00    -0.289 NA
ATOM      8  C   UNL     1      23.037   5.337  21.795  0.00  0.00    +0.146 C 
ATOM      9  C   UNL     1      24.010   6.432  21.323  0.00  0.00    +0.030 C 
ATOM     10  C   UNL     1      24.643   4.320  20.407  0.00  0.00    +0.085 C 
ATOM     11  C   UNL     1      24.776   5.810  20.165  0.00  0.00    +0.017 C 
BRANCH   2  12
ATOM     12  C   UNL     1      22.977   2.911  21.460  0.00  0.00    +0.051 C 
ATOM     14  C   UNL     1      23.845   1.849  20.793  0.00  0.00    +0.024 C 
ATOM     15  C   UNL     1      23.223   2.953  22.966  0.00  0.00    +0.024 C 
ENDBRANCH   2  12
ENDBRANCH  13   8
TORSDOF 4
ENDMDL
MODEL 4
REMARK VINA RESULT:      -6.7      1.358      1.877
REMARK  Name = 51136916
REMARK  6 active torsions:
REMARK  status: ('A' for Active; 'I' for Inactive)
REMARK    1  A    between atoms: N_2  and  C_12
REMARK    2  A    between atoms: C_8  and  C_13
REMARK    3  A    between atoms: C_12  and  C_14
REMARK    4  A    between atoms: C_12  and  C_15
REMARK    5  A    between atoms: C_16  and  C_17
REMARK    6  A    between atoms: C_21  and  C_22
REMARK                            x       y       z     vdW  Elec       q    Type
REMARK                         _______ _______ _______ _____ _____    ______ ____
ROOT
ATOM      1  O   UNL     1      14.335   7.587  19.091  0.00  0.00    -0.336 OA
ATOM      3  N   UNL     1      15.724   8.156  20.754  0.00  0.00    -0.190 NA
ATOM      4  N   UNL     1      15.478   6.793  18.932  0.00  0.00    -0.056 NA
ATOM     13  C   UNL     1      14.562   8.360  20.185  0.00  0.00    +0.245 A 
ATOM     16  C   UNL     1      16.250   7.187  19.950  0.00  0.00    +0.204 A 
ENDROOT
BRANCH  16  17
ATOM      5  N   UNL     1      19.187   4.920  19.710  0.00  0.00    -0.254 NA
ATOM     17  C   UNL     1      17.551   6.633  20.191  0.00  0.00    +0.041 A 
ATOM     18  C   UNL     1      18.425   7.225  21.096  0.00  0.00    +0.015 A 
ATOM     19  C   UNL     1      17.976   5.492  19.529  0.00  0.00    +0.123 A 
ATOM     20  C   UNL     1      19.680   6.664  21.309  0.00  0.00    +0.029 A 
ATOM     21  C   UNL     1      20.010   5.522  20.597  0.00  0.00    +0.074 A 
BRANCH  21  22
ATOM      6  N   UNL     1      23.699   5.000  20.705  0.00  0.00    -0.243 NA
ATOM      7  N   UNL     1      22.603   2.940  21.308  0.00  0.00    -0.243 NA
ATOM     22  C   UNL     1      21.296   4.887  20.767  0.00  0.00    +0.037 A 
ATOM     23  C   UNL     1      22.481   5.562  20.559  0.00  0.00    +0.124 A 
ATOM     24  C   UNL     1      21.418   3.565  21.144  0.00  0.00    +0.124 A 
ATOM     25  C   UNL     1      23.686   3.705  21.076  0.00  0.00    +0.221 A 
ENDBRANCH  21  22
ENDBRANCH  16  17
BRANCH  13   8
ATOM      2  N   UNL     1      12.631   8.815  21.688  0.00  0.00    -0.289 NA
ATOM      8  C   UNL     1      13.458   9.321  20.574  0.00  0.00    +0.146 C 
ATOM      9  C   UNL     1      13.996  10.676  21.068  0.00  0.00    +0.030 C 
ATOM     10  C   UNL     1      12.139   9.992  22.404  0.00  0.00    +0.085 C 
ATOM     11  C   UNL     1      13.370  10.874  22.441  0.00  0.00    +0.017 C 
BRANCH   2  12
ATOM     12  C   UNL     1      11.548   7.945  21.252  0.00  0.00    +0.051 C 
ATOM     14  C   UNL     1      10.482   7.875  22.341  0.00  0.00    +0.024 C 
ATOM     15  C   UNL     1      10.957   8.452  19.939  0.00  0.00    +0.024 C 
ENDBRANCH   2  12
ENDBRANCH  13   8
TORSDOF 4
ENDMDL
MODEL 5
REMARK VINA RESULT:      -6.4      1.836      2.961
REMARK  Name = 51136916
REMARK  6 active torsions:
REMARK  status: ('A' for Active; 'I' for Inactive)
REMARK    1  A    between atoms: N_2  and  C_12
REMARK    2  A    between atoms: C_8  and  C_13
REMARK    3  A    between atoms: C_12  and  C_14
REMARK    4  A    between atoms: C_12  and  C_15
REMARK    5  A    between atoms: C_16  and  C_17
REMARK    6  A    between atoms: C_21  and  C_22
REMARK                            x       y       z     vdW  Elec       q    Type
REMARK                         _______ _______ _______ _____ _____    ______ ____
ROOT
ATOM      1  O   UNL     1      14.467   8.833  21.121  0.00  0.00    -0.336 OA
ATOM      3  N   UNL     1      15.566   8.060  19.329  0.00  0.00    -0.190 NA
ATOM      4  N   UNL     1      15.618   8.204  21.612  0.00  0.00    -0.056 NA
ATOM     13  C   UNL     1      14.514   8.703  19.770  0.00  0.00    +0.245 A 
ATOM     16  C   UNL     1      16.215   7.774  20.496  0.00  0.00    +0.204 A 
ENDROOT
BRANCH  16  17
ATOM      5  N   UNL     1      19.655   6.754  21.469  0.00  0.00    -0.254 NA
ATOM     17  C   UNL     1      17.456   7.056  20.512  0.00  0.00    +0.041 A 
ATOM     18  C   UNL     1      17.685   6.003  19.633  0.00  0.00    +0.015 A 
ATOM     19  C   UNL     1      18.463   7.390  21.402  0.00  0.00    +0.123 A 
ATOM     20  C   UNL     1      18.899   5.325  19.672  0.00  0.00    +0.029 A 
ATOM     21  C   UNL     1      19.842   5.736  20.600  0.00  0.00    +0.074 A 
BRANCH  21  22
ATOM      6  N   UNL     1      23.523   5.155  20.528  0.00  0.00    -0.243 NA
ATOM      7  N   UNL     1      22.423   3.099  21.134  0.00  0.00    -0.243 NA
ATOM     22  C   UNL     1      21.124   5.078  20.697  0.00  0.00    +0.037 A 
ATOM     23  C   UNL     1      22.309   5.739  20.450  0.00  0.00    +0.124 A 
ATOM     24  C   UNL     1      21.242   3.746  21.038  0.00  0.00    +0.124 A 
ATOM     25  C   UNL     1      23.507   3.853  20.870  0.00  0.00    +0.221 A 
ENDBRANCH  21  22
ENDBRANCH  16  17
BRANCH  13   8
ATOM      2  N   UNL     1      13.636   9.384  17.543  0.00  0.00    -0.289 NA
ATOM      8  C   UNL     1      13.364   9.309  18.992  0.00  0.00    +0.146 C 
ATOM      9  C   UNL     1      12.069   8.485  19.106  0.00  0.00    +0.030 C 
ATOM     10  C   UNL     1      12.339   9.288  16.873  0.00  0.00    +0.085 C 
ATOM     11  C   UNL     1      11.656   8.194  17.670  0.00  0.00    +0.017 C 
BRANCH   2  12
ATOM     12  C   UNL     1      14.365  10.585  17.156  0.00  0.00    +0.051 C 
ATOM     14  C   UNL     1      14.199  10.819  15.657  0.00  0.00    +0.024 C 
ATOM     15  C   UNL     1      13.871  11.786  17.957  0.00  0.00    +0.024 C 
ENDBRANCH   2  12
ENDBRANCH  13   8
TORSDOF 4
ENDMDL
MODEL 6
REMARK VINA RESULT:      -6.3      1.484      2.615
REMARK  Name = 51136916
REMARK  6 active torsions:
REMARK  status: ('A' for Active; 'I' for Inactive)
REMARK    1  A    between atoms: N_2  and  C_12
REMARK    2  A    between atoms: C_8  and  C_13
REMARK    3  A    between atoms: C_12  and  C_14
REMARK    4  A    between atoms: C_12  and  C_15
REMARK    5  A    between atoms: C_16  and  C_17
REMARK    6  A    between atoms: C_21  and  C_22
REMARK                            x       y       z     vdW  Elec       q    Type
REMARK                         _______ _______ _______ _____ _____    ______ ____
ROOT
ATOM      1  O   UNL     1      15.049   6.684  18.970  0.00  0.00    -0.336 OA
ATOM      3  N   UNL     1      16.147   7.655  20.664  0.00  0.00    -0.190 NA
ATOM      4  N   UNL     1      16.283   6.029  19.061  0.00  0.00    -0.056 NA
ATOM     13  C   UNL     1      15.050   7.627  19.949  0.00  0.00    +0.245 A 
ATOM     16  C   UNL     1      16.873   6.658  20.083  0.00  0.00    +0.204 A 
ENDROOT
BRANCH  16  17
ATOM      5  N   UNL     1      20.187   4.983  20.279  0.00  0.00    -0.254 NA
ATOM     17  C   UNL     1      18.187   6.314  20.545  0.00  0.00    +0.041 A 
ATOM     18  C   UNL     1      18.738   6.935  21.660  0.00  0.00    +0.015 A 
ATOM     19  C   UNL     1      18.944   5.353  19.895  0.00  0.00    +0.123 A 
ATOM     20  C   UNL     1      20.015   6.581  22.085  0.00  0.00    +0.029 A 
ATOM     21  C   UNL     1      20.691   5.608  21.367  0.00  0.00    +0.074 A 
BRANCH  21  22
ATOM      6  N   UNL     1      23.735   3.504  21.818  0.00  0.00    -0.243 NA
ATOM      7  N   UNL     1      24.132   5.668  22.800  0.00  0.00    -0.243 NA
ATOM     22  C   UNL     1      22.019   5.191  21.750  0.00  0.00    +0.037 A 
ATOM     23  C   UNL     1      22.501   3.929  21.471  0.00  0.00    +0.124 A 
ATOM     24  C   UNL     1      22.886   6.027  22.424  0.00  0.00    +0.124 A 
ATOM     25  C   UNL     1      24.486   4.412  22.469  0.00  0.00    +0.221 A 
ENDBRANCH  21  22
ENDBRANCH  16  17
BRANCH  13   8
ATOM      2  N   UNL     1      12.962   8.423  18.853  0.00  0.00    -0.289 NA
ATOM      8  C   UNL     1      13.807   8.484  20.063  0.00  0.00    +0.146 C 
ATOM      9  C   UNL     1      12.881   8.040  21.210  0.00  0.00    +0.030 C 
ATOM     10  C   UNL     1      11.587   8.648  19.297  0.00  0.00    +0.085 C 
ATOM     11  C   UNL     1      11.525   7.810  20.559  0.00  0.00    +0.017 C 
BRANCH   2  12
ATOM     12  C   UNL     1      13.367   9.369  17.821  0.00  0.00    +0.051 C 
ATOM     14  C   UNL     1      12.388   9.296  16.653  0.00  0.00    +0.024 C 
ATOM     15  C   UNL     1      13.434  10.782  18.394  0.00  0.00    +0.024 C 
ENDBRANCH   2  12
ENDBRANCH  13   8
TORSDOF 4
ENDMDL
MODEL 7
REMARK VINA RESULT:      -6.3     32.981     34.050
REMARK  Name = 51136916
REMARK  6 active torsions:
REMARK  status: ('A' for Active; 'I' for Inactive)
REMARK    1  A    between atoms: N_2  and  C_12
REMARK    2  A    between atoms: C_8  and  C_13
REMARK    3  A    between atoms: C_12  and  C_14
REMARK    4  A    between atoms: C_12  and  C_15
REMARK    5  A    between atoms: C_16  and  C_17
REMARK    6  A    between atoms: C_21  and  C_22
REMARK                            x       y       z     vdW  Elec       q    Type
REMARK                         _______ _______ _______ _____ _____    ______ ____
ROOT
ATOM      1  O   UNL     1     -16.266   3.816  31.538  0.00  0.00    -0.336 OA
ATOM      3  N   UNL     1     -14.072   4.244  31.684  0.00  0.00    -0.190 NA
ATOM      4  N   UNL     1     -16.111   4.691  32.621  0.00  0.00    -0.056 NA
ATOM     13  C   UNL     1     -15.018   3.604  31.044  0.00  0.00    +0.245 A 
ATOM     16  C   UNL     1     -14.790   4.897  32.643  0.00  0.00    +0.204 A 
ENDROOT
BRANCH  16  17
ATOM      5  N   UNL     1     -13.421   6.095  35.885  0.00  0.00    -0.254 NA
ATOM     17  C   UNL     1     -14.158   5.747  33.610  0.00  0.00    +0.041 A 
ATOM     18  C   UNL     1     -13.678   7.003  33.253  0.00  0.00    +0.015 A 
ATOM     19  C   UNL     1     -14.007   5.344  34.926  0.00  0.00    +0.123 A 
ATOM     20  C   UNL     1     -13.069   7.805  34.213  0.00  0.00    +0.029 A 
ATOM     21  C   UNL     1     -12.967   7.310  35.503  0.00  0.00    +0.074 A 
BRANCH  21  22
ATOM      6  N   UNL     1     -12.309  10.051  37.942  0.00  0.00    -0.243 NA
ATOM      7  N   UNL     1     -10.590   8.377  38.170  0.00  0.00    -0.243 NA
ATOM     22  C   UNL     1     -12.347   8.088  36.549  0.00  0.00    +0.037 A 
ATOM     23  C   UNL     1     -12.863   9.296  36.970  0.00  0.00    +0.124 A 
ATOM     24  C   UNL     1     -11.197   7.673  37.190  0.00  0.00    +0.124 A 
ATOM     25  C   UNL     1     -11.191   9.538  38.491  0.00  0.00    +0.221 A 
ENDBRANCH  21  22
ENDBRANCH  16  17
BRANCH  13   8
ATOM      2  N   UNL     1     -15.552   1.369  30.089  0.00  0.00    -0.289 NA
ATOM      8  C   UNL     1     -14.913   2.679  29.850  0.00  0.00    +0.146 C 
ATOM      9  C   UNL     1     -15.620   3.237  28.601  0.00  0.00    +0.030 C 
ATOM     10  C   UNL     1     -16.010   0.888  28.785  0.00  0.00    +0.085 C 
ATOM     11  C   UNL     1     -16.593   2.147  28.175  0.00  0.00    +0.017 C 
BRANCH   2  12
ATOM     12  C   UNL     1     -14.673   0.412  30.747  0.00  0.00    +0.051 C 
ATOM     14  C   UNL     1     -15.490  -0.785  31.223  0.00  0.00    +0.024 C 
ATOM     15  C   UNL     1     -13.560  -0.024  29.799  0.00  0.00    +0.024 C 
ENDBRANCH   2  12
ENDBRANCH  13   8
TORSDOF 4
ENDMDL
MODEL 8
REMARK VINA RESULT:      -6.2     29.902     32.045
REMARK  Name = 51136916
REMARK  6 active torsions:
REMARK  status: ('A' for Active; 'I' for Inactive)
REMARK    1  A    between atoms: N_2  and  C_12
REMARK    2  A    between atoms: C_8  and  C_13
REMARK    3  A    between atoms: C_12  and  C_14
REMARK    4  A    between atoms: C_12  and  C_15
REMARK    5  A    between atoms: C_16  and  C_17
REMARK    6  A    between atoms: C_21  and  C_22
REMARK                            x       y       z     vdW  Elec       q    Type
REMARK                         _______ _______ _______ _____ _____    ______ ____
ROOT
ATOM      1  O   UNL     1     -14.191  -5.625  14.342  0.00  0.00    -0.336 OA
ATOM      3  N   UNL     1     -11.953  -5.659  14.251  0.00  0.00    -0.190 NA
ATOM      4  N   UNL     1     -13.779  -6.600  15.259  0.00  0.00    -0.056 NA
ATOM     13  C   UNL     1     -13.055  -5.120  13.792  0.00  0.00    +0.245 A 
ATOM     16  C   UNL     1     -12.447  -6.561  15.148  0.00  0.00    +0.204 A 
ENDROOT
BRANCH  16  17
ATOM      5  N   UNL     1      -9.339  -8.127  16.456  0.00  0.00    -0.254 NA
ATOM     17  C   UNL     1     -11.584  -7.409  15.917  0.00  0.00    +0.041 A 
ATOM     18  C   UNL     1     -12.103  -8.311  16.839  0.00  0.00    +0.015 A 
ATOM     19  C   UNL     1     -10.208  -7.356  15.764  0.00  0.00    +0.123 A 
ATOM     20  C   UNL     1     -11.240  -9.121  17.571  0.00  0.00    +0.029 A 
ATOM     21  C   UNL     1      -9.880  -8.992  17.344  0.00  0.00    +0.074 A 
BRANCH  21  22
ATOM      6  N   UNL     1      -8.443 -11.408  19.791  0.00  0.00    -0.243 NA
ATOM      7  N   UNL     1      -6.658 -10.516  18.439  0.00  0.00    -0.243 NA
ATOM     22  C   UNL     1      -8.926  -9.800  18.067  0.00  0.00    +0.037 A 
ATOM     23  C   UNL     1      -9.306 -10.642  19.092  0.00  0.00    +0.124 A 
ATOM     24  C   UNL     1      -7.577  -9.777  17.781  0.00  0.00    +0.124 A 
ATOM     25  C   UNL     1      -7.154 -11.298  19.417  0.00  0.00    +0.221 A 
ENDBRANCH  21  22
ENDBRANCH  16  17
BRANCH  13   8
ATOM      2  N   UNL     1     -13.229  -4.559  11.374  0.00  0.00    -0.289 NA
ATOM      8  C   UNL     1     -13.232  -4.032  12.754  0.00  0.00    +0.146 C 
ATOM      9  C   UNL     1     -14.576  -3.294  12.889  0.00  0.00    +0.030 C 
ATOM     10  C   UNL     1     -14.064  -3.653  10.584  0.00  0.00    +0.085 C 
ATOM     11  C   UNL     1     -15.231  -3.408  11.519  0.00  0.00    +0.017 C 
BRANCH   2  12
ATOM     12  C   UNL     1     -11.892  -4.699  10.815  0.00  0.00    +0.051 C 
ATOM     14  C   UNL     1     -11.804  -6.003  10.028  0.00  0.00    +0.024 C 
ATOM     15  C   UNL     1     -11.558  -3.501   9.930  0.00  0.00    +0.024 C 
ENDBRANCH   2  12
ENDBRANCH  13   8
TORSDOF 4
ENDMDL
MODEL 9
REMARK VINA RESULT:      -6.1     32.241     34.231
REMARK  Name = 51136916
REMARK  6 active torsions:
REMARK  status: ('A' for Active; 'I' for Inactive)
REMARK    1  A    between atoms: N_2  and  C_12
REMARK    2  A    between atoms: C_8  and  C_13
REMARK    3  A    between atoms: C_12  and  C_14
REMARK    4  A    between atoms: C_12  and  C_15
REMARK    5  A    between atoms: C_16  and  C_17
REMARK    6  A    between atoms: C_21  and  C_22
REMARK                            x       y       z     vdW  Elec       q    Type
REMARK                         _______ _______ _______ _____ _____    ______ ____
ROOT
ATOM      1  O   UNL     1     -17.350   2.403  22.443  0.00  0.00    -0.336 OA
ATOM      3  N   UNL     1     -16.957   3.938  24.026  0.00  0.00    -0.190 NA
ATOM      4  N   UNL     1     -17.093   1.690  23.621  0.00  0.00    -0.056 NA
ATOM     13  C   UNL     1     -17.250   3.718  22.769  0.00  0.00    +0.245 A 
ATOM     16  C   UNL     1     -16.871   2.665  24.509  0.00  0.00    +0.204 A 
ENDROOT
BRANCH  16  17
ATOM      5  N   UNL     1     -15.771   3.217  28.017  0.00  0.00    -0.254 NA
ATOM     17  C   UNL     1     -16.560   2.399  25.883  0.00  0.00    +0.041 A 
ATOM     18  C   UNL     1     -16.728   1.129  26.423  0.00  0.00    +0.015 A 
ATOM     19  C   UNL     1     -16.083   3.400  26.714  0.00  0.00    +0.123 A 
ATOM     20  C   UNL     1     -16.417   0.901  27.760  0.00  0.00    +0.029 A 
ATOM     21  C   UNL     1     -15.946   1.969  28.507  0.00  0.00    +0.074 A 
BRANCH  21  22
ATOM      6  N   UNL     1     -15.325   2.742  32.100  0.00  0.00    -0.243 NA
ATOM      7  N   UNL     1     -14.887   0.403  31.720  0.00  0.00    -0.243 NA
ATOM     22  C   UNL     1     -15.605   1.806  29.900  0.00  0.00    +0.037 A 
ATOM     23  C   UNL     1     -15.641   2.857  30.793  0.00  0.00    +0.124 A 
ATOM     24  C   UNL     1     -15.217   0.590  30.425  0.00  0.00    +0.124 A 
ATOM     25  C   UNL     1     -14.963   1.505  32.490  0.00  0.00    +0.221 A 
ENDBRANCH  21  22
ENDBRANCH  16  17
BRANCH  13   8
ATOM      2  N   UNL     1     -16.323   4.845  20.752  0.00  0.00    -0.289 NA
ATOM      8  C   UNL     1     -17.488   4.712  21.651  0.00  0.00    +0.146 C 
ATOM      9  C   UNL     1     -18.649   4.301  20.728  0.00  0.00    +0.030 C 
ATOM     10  C   UNL     1     -16.854   5.204  19.437  0.00  0.00    +0.085 C 
ATOM     11  C   UNL     1     -18.057   4.289  19.326  0.00  0.00    +0.017 C 
BRANCH   2  12
ATOM     12  C   UNL     1     -15.338   5.807  21.227  0.00  0.00    +0.051 C 
ATOM     14  C   UNL     1     -16.034   6.880  22.058  0.00  0.00    +0.024 C 
ATOM     15  C   UNL     1     -14.256   5.101  22.040  0.00  0.00    +0.024 C 
ENDBRANCH   2  12
ENDBRANCH  13   8
TORSDOF 4
ENDMDL
MODEL 10
REMARK VINA RESULT:      -6.0     25.970     30.629
REMARK  Name = 51136916
REMARK  6 active torsions:
REMARK  status: ('A' for Active; 'I' for Inactive)
REMARK    1  A    between atoms: N_2  and  C_12
REMARK    2  A    between atoms: C_8  and  C_13
REMARK    3  A    between atoms: C_12  and  C_14
REMARK    4  A    between atoms: C_12  and  C_15
REMARK    5  A    between atoms: C_16  and  C_17
REMARK    6  A    between atoms: C_21  and  C_22
REMARK                            x       y       z     vdW  Elec       q    Type
REMARK                         _______ _______ _______ _____ _____    ______ ____
ROOT
ATOM      1  O   UNL     1      -4.827 -11.187  17.254  0.00  0.00    -0.336 OA
ATOM      3  N   UNL     1      -5.617 -10.126  15.447  0.00  0.00    -0.190 NA
ATOM      4  N   UNL     1      -6.108 -10.737  17.596  0.00  0.00    -0.056 NA
ATOM     13  C   UNL     1      -4.616 -10.785  15.973  0.00  0.00    +0.245 A 
ATOM     16  C   UNL     1      -6.509 -10.122  16.479  0.00  0.00    +0.204 A 
ENDROOT
BRANCH  16  17
ATOM      5  N   UNL     1      -9.702  -8.933  14.991  0.00  0.00    -0.254 NA
ATOM     17  C   UNL     1      -7.793  -9.493  16.364  0.00  0.00    +0.041 A 
ATOM     18  C   UNL     1      -8.376  -8.851  17.451  0.00  0.00    +0.015 A 
ATOM     19  C   UNL     1      -8.490  -9.506  15.167  0.00  0.00    +0.123 A 
ATOM     20  C   UNL     1      -9.622  -8.249  17.308  0.00  0.00    +0.029 A 
ATOM     21  C   UNL     1     -10.238  -8.317  16.069  0.00  0.00    +0.074 A 
BRANCH  21  22
ATOM      6  N   UNL     1     -12.867  -5.880  15.048  0.00  0.00    -0.243 NA
ATOM      7  N   UNL     1     -13.931  -7.809  16.026  0.00  0.00    -0.243 NA
ATOM     22  C   UNL     1     -11.532  -7.716  15.849  0.00  0.00    +0.037 A 
ATOM     23  C   UNL     1     -11.675  -6.474  15.265  0.00  0.00    +0.124 A 
ATOM     24  C   UNL     1     -12.705  -8.344  16.214  0.00  0.00    +0.124 A 
ATOM     25  C   UNL     1     -13.937  -6.594  15.446  0.00  0.00    +0.221 A 
ENDBRANCH  21  22
ENDBRANCH  16  17
BRANCH  13   8
ATOM      2  N   UNL     1      -3.031 -10.457  14.083  0.00  0.00    -0.289 NA
ATOM      8  C   UNL     1      -3.281 -11.154  15.361  0.00  0.00    +0.146 C 
ATOM      9  C   UNL     1      -2.089 -10.770  16.256  0.00  0.00    +0.030 C 
ATOM     10  C   UNL     1      -1.580 -10.312  13.969  0.00  0.00    +0.085 C 
ATOM     11  C   UNL     1      -1.194  -9.908  15.378  0.00  0.00    +0.017 C 
BRANCH   2  12
ATOM     12  C   UNL     1      -3.605 -11.142  12.933  0.00  0.00    +0.051 C 
ATOM     14  C   UNL     1      -4.327 -10.130  12.047  0.00  0.00    +0.024 C 
ATOM     15  C   UNL     1      -2.516 -11.873  12.153  0.00  0.00    +0.024 C 
ENDBRANCH   2  12
ENDBRANCH  13   8
TORSDOF 4
ENDMDL
