MODEL 1
REMARK VINA RESULT:      -7.4      0.000      0.000
REMARK  Name = 38027180
REMARK  14 active torsions:
REMARK  status: ('A' for Active; 'I' for Inactive)
REMARK    1  A    between atoms: N_4  and  C_14
REMARK    2  A    between atoms: N_5  and  C_21
REMARK    3  A    between atoms: N_5  and  C_22
REMARK    4  A    between atoms: N_6  and  C_31
REMARK    5  A    between atoms: C_7  and  C_11
REMARK    6  A    between atoms: C_8  and  C_14
REMARK    7  A    between atoms: C_10  and  C_15
REMARK    8  A    between atoms: C_11  and  C_16
REMARK    9  A    between atoms: C_11  and  C_17
REMARK   10  A    between atoms: C_12  and  C_18
REMARK   11  A    between atoms: C_15  and  C_19
REMARK   12  A    between atoms: C_20  and  C_23
REMARK   13  A    between atoms: C_21  and  C_24
REMARK   14  A    between atoms: C_35  and  C_36
REMARK                            x       y       z     vdW  Elec       q    Type
REMARK                         _______ _______ _______ _____ _____    ______ ____
ROOT
ATOM      7  C   UNL     1      -3.196 -12.158  12.795  0.00  0.00    +0.000 C 
ATOM      8  C   UNL     1      -2.055 -11.123  12.637  0.00  0.00    +0.032 C 
ATOM      9  C   UNL     1      -3.769 -12.539  11.421  0.00  0.00    +0.012 C 
ATOM     10  C   UNL     1      -4.319 -11.318  10.661  0.00  0.00    +0.023 C 
ATOM     12  C   UNL     1      -3.351 -10.152  10.691  0.00  0.00    -0.073 C 
ATOM     13  C   UNL     1      -2.337 -10.088  11.573  0.00  0.00    -0.022 C 
ATOM     18  C   UNL     1      -3.549  -9.082   9.655  0.00  0.00    +0.039 C 
ENDROOT
BRANCH   7  11
ATOM     11  C   UNL     1      -2.723 -13.418  13.528  0.00  0.00    -0.013 C 
ATOM     16  C   UNL     1      -3.800 -13.908  14.491  0.00  0.00    +0.007 C 
ATOM     17  C   UNL     1      -2.355 -14.508  12.527  0.00  0.00    +0.007 C 
ENDBRANCH   7  11
BRANCH   8  14
ATOM     14  C   UNL     1      -1.758 -10.419  13.967  0.00  0.00    +0.112 C 
BRANCH  14   4
ATOM      2  O   UNL     1      -2.161 -10.996  16.750  0.00  0.00    -0.270 OA
ATOM      4  N   UNL     1      -3.012 -10.270  14.721  0.00  0.00    -0.311 N 
ATOM     20  C   UNL     1      -3.086 -10.579  16.057  0.00  0.00    +0.244 C 
ATOM     37  H   UNL     1      -3.791  -9.832  14.242  0.00  0.00    +0.149 HD
BRANCH  20  23
ATOM     23  C   UNL     1      -4.428 -10.401  16.667  0.00  0.00    +0.037 A 
ATOM     25  C   UNL     1      -4.683 -10.895  17.947  0.00  0.00    +0.015 A 
ATOM     26  C   UNL     1      -5.433  -9.739  15.962  0.00  0.00    +0.015 A 
ATOM     29  C   UNL     1      -5.943 -10.728  18.521  0.00  0.00    +0.024 A 
ATOM     30  C   UNL     1      -6.694  -9.573  16.535  0.00  0.00    +0.024 A 
ATOM     31  C   UNL     1      -6.948 -10.067  17.815  0.00  0.00    +0.033 A 
BRANCH  31   6
ATOM      3  O   UNL     1      -9.335 -11.902  17.861  0.00  0.00    -0.276 OA
ATOM      6  N   UNL     1      -8.209  -9.899  18.390  0.00  0.00    -0.286 N 
ATOM     35  C   UNL     1      -9.290 -10.791  18.379  0.00  0.00    +0.214 C 
ATOM     36  C   UNL     1     -10.482 -10.233  19.117  0.00  0.00    +0.109 C 
ATOM     38  H   UNL     1      -8.351  -9.016  18.874  0.00  0.00    +0.155 HD
ENDBRANCH  31   6
ENDBRANCH  20  23
ENDBRANCH  14   4
ENDBRANCH   8  14
BRANCH  10  15
ATOM     15  C   UNL     1      -5.693 -10.905  11.200  0.00  0.00    +0.103 C 
BRANCH  15  19
ATOM      1  O   UNL     1      -6.509 -11.179   8.963  0.00  0.00    -0.276 OA
ATOM      5  N   UNL     1      -7.882 -10.041  10.446  0.00  0.00    -0.300 N 
ATOM     19  C   UNL     1      -6.717 -10.731  10.093  0.00  0.00    +0.216 C 
ATOM     22  C   UNL     1      -8.105  -9.520  11.789  0.00  0.00    +0.132 C 
BRANCH   5  21
ATOM     21  C   UNL     1      -8.962  -9.791   9.495  0.00  0.00    +0.142 C 
BRANCH  21  24
ATOM     24  C   UNL     1      -9.033  -8.345   9.094  0.00  0.00    -0.030 A 
ATOM     27  C   UNL     1     -10.204  -7.618   9.309  0.00  0.00    +0.005 A 
ATOM     28  C   UNL     1      -7.928  -7.730   8.505  0.00  0.00    +0.005 A 
ATOM     32  C   UNL     1     -10.269  -6.276   8.936  0.00  0.00    +0.000 A 
ATOM     33  C   UNL     1      -7.994  -6.387   8.132  0.00  0.00    +0.000 A 
ATOM     34  C   UNL     1      -9.164  -5.661   8.347  0.00  0.00    +0.000 A 
ENDBRANCH  21  24
ENDBRANCH   5  21
ENDBRANCH  15  19
ENDBRANCH  10  15
TORSDOF 9
ENDMDL
MODEL 2
REMARK VINA RESULT:      -7.1     24.001     27.397
REMARK  Name = 38027180
REMARK  14 active torsions:
REMARK  status: ('A' for Active; 'I' for Inactive)
REMARK    1  A    between atoms: N_4  and  C_14
REMARK    2  A    between atoms: N_5  and  C_21
REMARK    3  A    between atoms: N_5  and  C_22
REMARK    4  A    between atoms: N_6  and  C_31
REMARK    5  A    between atoms: C_7  and  C_11
REMARK    6  A    between atoms: C_8  and  C_14
REMARK    7  A    between atoms: C_10  and  C_15
REMARK    8  A    between atoms: C_11  and  C_16
REMARK    9  A    between atoms: C_11  and  C_17
REMARK   10  A    between atoms: C_12  and  C_18
REMARK   11  A    between atoms: C_15  and  C_19
REMARK   12  A    between atoms: C_20  and  C_23
REMARK   13  A    between atoms: C_21  and  C_24
REMARK   14  A    between atoms: C_35  and  C_36
REMARK                            x       y       z     vdW  Elec       q    Type
REMARK                         _______ _______ _______ _____ _____    ______ ____
ROOT
ATOM      7  C   UNL     1       8.997   8.539   5.904  0.00  0.00    +0.000 C 
ATOM      8  C   UNL     1       8.912   8.505   7.450  0.00  0.00    +0.032 C 
ATOM      9  C   UNL     1       8.434   7.240   5.307  0.00  0.00    +0.012 C 
ATOM     10  C   UNL     1       9.188   5.994   5.810  0.00  0.00    +0.023 C 
ATOM     12  C   UNL     1       9.381   6.021   7.312  0.00  0.00    -0.073 C 
ATOM     13  C   UNL     1       9.241   7.150   8.031  0.00  0.00    -0.022 C 
ATOM     18  C   UNL     1       9.696   4.710   7.978  0.00  0.00    +0.039 C 
ENDROOT
BRANCH   7  11
ATOM     11  C   UNL     1       8.251   9.744   5.320  0.00  0.00    -0.013 C 
ATOM     16  C   UNL     1       9.237  10.735   4.711  0.00  0.00    +0.007 C 
ATOM     17  C   UNL     1       7.233   9.285   4.281  0.00  0.00    +0.007 C 
ENDBRANCH   7  11
BRANCH   8  14
ATOM     14  C   UNL     1       9.826   9.564   8.077  0.00  0.00    +0.112 C 
BRANCH  14   4
ATOM      2  O   UNL     1      11.734  11.488   7.126  0.00  0.00    -0.270 OA
ATOM      4  N   UNL     1      11.216   9.298   7.676  0.00  0.00    -0.311 N 
ATOM     20  C   UNL     1      12.040  10.303   7.235  0.00  0.00    +0.244 C 
ATOM     37  H   UNL     1      11.572   8.362   7.838  0.00  0.00    +0.149 HD
BRANCH  20  23
ATOM     23  C   UNL     1      13.404   9.866   6.842  0.00  0.00    +0.037 A 
ATOM     25  C   UNL     1      13.669   8.513   6.629  0.00  0.00    +0.015 A 
ATOM     26  C   UNL     1      14.422  10.808   6.687  0.00  0.00    +0.015 A 
ATOM     29  C   UNL     1      14.949   8.102   6.260  0.00  0.00    +0.024 A 
ATOM     30  C   UNL     1      15.703  10.397   6.319  0.00  0.00    +0.024 A 
ATOM     31  C   UNL     1      15.967   9.044   6.105  0.00  0.00    +0.033 A 
BRANCH  31   6
ATOM      3  O   UNL     1      17.095   8.358   3.399  0.00  0.00    -0.276 OA
ATOM      6  N   UNL     1      17.247   8.632   5.736  0.00  0.00    -0.286 N 
ATOM     35  C   UNL     1      17.720   8.323   4.453  0.00  0.00    +0.214 C 
ATOM     36  C   UNL     1      19.173   7.916   4.476  0.00  0.00    +0.109 C 
ATOM     38  H   UNL     1      17.914   8.549   6.499  0.00  0.00    +0.155 HD
ENDBRANCH  31   6
ENDBRANCH  20  23
ENDBRANCH  14   4
ENDBRANCH   8  14
BRANCH  10  15
ATOM     15  C   UNL     1      10.529   5.831   5.087  0.00  0.00    +0.103 C 
BRANCH  15  19
ATOM      1  O   UNL     1      10.461   3.521   4.453  0.00  0.00    -0.276 OA
ATOM      5  N   UNL     1      10.541   5.077   2.734  0.00  0.00    -0.300 N 
ATOM     19  C   UNL     1      10.506   4.696   4.080  0.00  0.00    +0.216 C 
ATOM     22  C   UNL     1      10.595   6.472   2.317  0.00  0.00    +0.132 C 
BRANCH   5  21
ATOM     21  C   UNL     1      10.525   4.103   1.645  0.00  0.00    +0.142 C 
BRANCH  21  24
ATOM     24  C   UNL     1      11.862   3.995   0.969  0.00  0.00    -0.030 A 
ATOM     27  C   UNL     1      12.988   3.625   1.705  0.00  0.00    +0.005 A 
ATOM     28  C   UNL     1      11.979   4.267  -0.394  0.00  0.00    +0.005 A 
ATOM     32  C   UNL     1      14.230   3.526   1.078  0.00  0.00    +0.000 A 
ATOM     33  C   UNL     1      13.221   4.168  -1.022  0.00  0.00    +0.000 A 
ATOM     34  C   UNL     1      14.346   3.797  -0.286  0.00  0.00    +0.000 A 
ENDBRANCH  21  24
ENDBRANCH   5  21
ENDBRANCH  15  19
ENDBRANCH  10  15
TORSDOF 9
ENDMDL
MODEL 3
REMARK VINA RESULT:      -6.9      1.651      2.218
REMARK  Name = 38027180
REMARK  14 active torsions:
REMARK  status: ('A' for Active; 'I' for Inactive)
REMARK    1  A    between atoms: N_4  and  C_14
REMARK    2  A    between atoms: N_5  and  C_21
REMARK    3  A    between atoms: N_5  and  C_22
REMARK    4  A    between atoms: N_6  and  C_31
REMARK    5  A    between atoms: C_7  and  C_11
REMARK    6  A    between atoms: C_8  and  C_14
REMARK    7  A    between atoms: C_10  and  C_15
REMARK    8  A    between atoms: C_11  and  C_16
REMARK    9  A    between atoms: C_11  and  C_17
REMARK   10  A    between atoms: C_12  and  C_18
REMARK   11  A    between atoms: C_15  and  C_19
REMARK   12  A    between atoms: C_20  and  C_23
REMARK   13  A    between atoms: C_21  and  C_24
REMARK   14  A    between atoms: C_35  and  C_36
REMARK                            x       y       z     vdW  Elec       q    Type
REMARK                         _______ _______ _______ _____ _____    ______ ____
ROOT
ATOM      7  C   UNL     1      -3.784 -12.698  12.685  0.00  0.00    +0.000 C 
ATOM      8  C   UNL     1      -2.260 -12.477  12.852  0.00  0.00    +0.032 C 
ATOM      9  C   UNL     1      -4.243 -12.233  11.294  0.00  0.00    +0.012 C 
ATOM     10  C   UNL     1      -3.935 -10.744  11.047  0.00  0.00    +0.023 C 
ATOM     12  C   UNL     1      -2.517 -10.388  11.445  0.00  0.00    -0.073 C 
ATOM     13  C   UNL     1      -1.779 -11.182  12.243  0.00  0.00    -0.022 C 
ATOM     18  C   UNL     1      -1.950  -9.121  10.869  0.00  0.00    +0.039 C 
ENDROOT
BRANCH   7  11
ATOM     11  C   UNL     1      -4.173 -14.164  12.896  0.00  0.00    -0.013 C 
ATOM     16  C   UNL     1      -5.671 -14.353  12.680  0.00  0.00    +0.007 C 
ATOM     17  C   UNL     1      -3.373 -15.066  11.962  0.00  0.00    +0.007 C 
ENDBRANCH   7  11
BRANCH   8  14
ATOM     14  C   UNL     1      -1.853 -12.527  14.330  0.00  0.00    +0.112 C 
BRANCH  14   4
ATOM      2  O   UNL     1      -2.062 -10.289  16.117  0.00  0.00    -0.270 OA
ATOM      4  N   UNL     1      -3.014 -12.172  15.160  0.00  0.00    -0.311 N 
ATOM     20  C   UNL     1      -2.999 -11.072  15.981  0.00  0.00    +0.244 C 
ATOM     37  H   UNL     1      -3.862 -12.711  15.023  0.00  0.00    +0.149 HD
BRANCH  20  23
ATOM     23  C   UNL     1      -4.238 -10.866  16.774  0.00  0.00    +0.037 A 
ATOM     25  C   UNL     1      -5.284 -10.106  16.248  0.00  0.00    +0.015 A 
ATOM     26  C   UNL     1      -4.357 -11.431  18.043  0.00  0.00    +0.015 A 
ATOM     29  C   UNL     1      -6.447  -9.912  16.991  0.00  0.00    +0.024 A 
ATOM     30  C   UNL     1      -5.521 -11.237  18.787  0.00  0.00    +0.024 A 
ATOM     31  C   UNL     1      -6.566 -10.477  18.261  0.00  0.00    +0.033 A 
BRANCH  31   6
ATOM      3  O   UNL     1      -9.095 -12.108  18.394  0.00  0.00    -0.276 OA
ATOM      6  N   UNL     1      -7.731 -10.283  19.004  0.00  0.00    -0.286 N 
ATOM     35  C   UNL     1      -8.885 -11.078  19.026  0.00  0.00    +0.214 C 
ATOM     36  C   UNL     1      -9.927 -10.524  19.967  0.00  0.00    +0.109 C 
ATOM     38  H   UNL     1      -7.733  -9.460  19.601  0.00  0.00    +0.155 HD
ENDBRANCH  31   6
ENDBRANCH  20  23
ENDBRANCH  14   4
ENDBRANCH   8  14
BRANCH  10  15
ATOM     15  C   UNL     1      -4.948  -9.844  11.762  0.00  0.00    +0.103 C 
BRANCH  15  19
ATOM      1  O   UNL     1      -5.071  -7.859  10.425  0.00  0.00    -0.276 OA
ATOM      5  N   UNL     1      -6.932  -9.243  10.417  0.00  0.00    -0.300 N 
ATOM     19  C   UNL     1      -5.638  -8.884  10.810  0.00  0.00    +0.216 C 
ATOM     22  C   UNL     1      -7.582 -10.461  10.886  0.00  0.00    +0.132 C 
BRANCH   5  21
ATOM     21  C   UNL     1      -7.728  -8.425   9.506  0.00  0.00    +0.142 C 
BRANCH  21  24
ATOM     24  C   UNL     1      -7.391  -8.696   8.067  0.00  0.00    -0.030 A 
ATOM     27  C   UNL     1      -7.980  -7.933   7.058  0.00  0.00    +0.005 A 
ATOM     28  C   UNL     1      -6.491  -9.710   7.741  0.00  0.00    +0.005 A 
ATOM     32  C   UNL     1      -7.667  -8.186   5.722  0.00  0.00    +0.000 A 
ATOM     33  C   UNL     1      -6.179  -9.962   6.405  0.00  0.00    +0.000 A 
ATOM     34  C   UNL     1      -6.766  -9.200   5.396  0.00  0.00    +0.000 A 
ENDBRANCH  21  24
ENDBRANCH   5  21
ENDBRANCH  15  19
ENDBRANCH  10  15
TORSDOF 9
ENDMDL
MODEL 4
REMARK VINA RESULT:      -6.9      2.588      4.757
REMARK  Name = 38027180
REMARK  14 active torsions:
REMARK  status: ('A' for Active; 'I' for Inactive)
REMARK    1  A    between atoms: N_4  and  C_14
REMARK    2  A    between atoms: N_5  and  C_21
REMARK    3  A    between atoms: N_5  and  C_22
REMARK    4  A    between atoms: N_6  and  C_31
REMARK    5  A    between atoms: C_7  and  C_11
REMARK    6  A    between atoms: C_8  and  C_14
REMARK    7  A    between atoms: C_10  and  C_15
REMARK    8  A    between atoms: C_11  and  C_16
REMARK    9  A    between atoms: C_11  and  C_17
REMARK   10  A    between atoms: C_12  and  C_18
REMARK   11  A    between atoms: C_15  and  C_19
REMARK   12  A    between atoms: C_20  and  C_23
REMARK   13  A    between atoms: C_21  and  C_24
REMARK   14  A    between atoms: C_35  and  C_36
REMARK                            x       y       z     vdW  Elec       q    Type
REMARK                         _______ _______ _______ _____ _____    ______ ____
ROOT
ATOM      7  C   UNL     1      -3.119 -12.175  12.746  0.00  0.00    +0.000 C 
ATOM      8  C   UNL     1      -2.043 -11.081  12.534  0.00  0.00    +0.032 C 
ATOM      9  C   UNL     1      -3.740 -12.585  11.401  0.00  0.00    +0.012 C 
ATOM     10  C   UNL     1      -4.392 -11.393  10.674  0.00  0.00    +0.023 C 
ATOM     12  C   UNL     1      -3.486 -10.178  10.661  0.00  0.00    -0.073 C 
ATOM     13  C   UNL     1      -2.434 -10.062  11.490  0.00  0.00    -0.022 C 
ATOM     18  C   UNL     1      -3.792  -9.118   9.639  0.00  0.00    +0.039 C 
ENDROOT
BRANCH   7  11
ATOM     11  C   UNL     1      -2.544 -13.410  13.448  0.00  0.00    -0.013 C 
ATOM     16  C   UNL     1      -3.490 -13.885  14.546  0.00  0.00    +0.007 C 
ATOM     17  C   UNL     1      -2.283 -14.522  12.438  0.00  0.00    +0.007 C 
ENDBRANCH   7  11
BRANCH   8  14
ATOM     14  C   UNL     1      -1.717 -10.364  13.850  0.00  0.00    +0.112 C 
BRANCH  14   4
ATOM      2  O   UNL     1      -1.934 -10.916  16.660  0.00  0.00    -0.270 OA
ATOM      4  N   UNL     1      -2.937 -10.285  14.669  0.00  0.00    -0.311 N 
ATOM     20  C   UNL     1      -2.919 -10.574  16.011  0.00  0.00    +0.244 C 
ATOM     37  H   UNL     1      -3.768  -9.909  14.225  0.00  0.00    +0.149 HD
BRANCH  20  23
ATOM     23  C   UNL     1      -4.236 -10.474  16.689  0.00  0.00    +0.037 A 
ATOM     25  C   UNL     1      -5.288  -9.795  16.073  0.00  0.00    +0.015 A 
ATOM     26  C   UNL     1      -4.422 -11.058  17.942  0.00  0.00    +0.015 A 
ATOM     29  C   UNL     1      -6.525  -9.700  16.709  0.00  0.00    +0.024 A 
ATOM     30  C   UNL     1      -5.660 -10.963  18.579  0.00  0.00    +0.024 A 
ATOM     31  C   UNL     1      -6.712 -10.284  17.962  0.00  0.00    +0.033 A 
BRANCH  31   6
ATOM      3  O   UNL     1      -8.875 -12.344  18.343  0.00  0.00    -0.276 OA
ATOM      6  N   UNL     1      -7.950 -10.190  18.598  0.00  0.00    -0.286 N 
ATOM     35  C   UNL     1      -8.925 -11.186  18.745  0.00  0.00    +0.214 C 
ATOM     36  C   UNL     1     -10.130 -10.682  19.501  0.00  0.00    +0.109 C 
ATOM     38  H   UNL     1      -8.162  -9.281  19.002  0.00  0.00    +0.155 HD
ENDBRANCH  31   6
ENDBRANCH  20  23
ENDBRANCH  14   4
ENDBRANCH   8  14
BRANCH  10  15
ATOM     15  C   UNL     1      -5.756 -11.054  11.283  0.00  0.00    +0.103 C 
BRANCH  15  19
ATOM      1  O   UNL     1      -7.067 -12.749  10.210  0.00  0.00    -0.276 OA
ATOM      5  N   UNL     1      -7.115 -12.699  12.529  0.00  0.00    -0.300 N 
ATOM     19  C   UNL     1      -6.702 -12.241  11.273  0.00  0.00    +0.216 C 
ATOM     22  C   UNL     1      -6.671 -12.081  13.772  0.00  0.00    +0.132 C 
BRANCH   5  21
ATOM     21  C   UNL     1      -8.025 -13.831  12.688  0.00  0.00    +0.142 C 
BRANCH  21  24
ATOM     24  C   UNL     1      -7.300 -15.080  13.100  0.00  0.00    -0.030 A 
ATOM     27  C   UNL     1      -6.127 -15.453  12.444  0.00  0.00    +0.005 A 
ATOM     28  C   UNL     1      -7.801 -15.868  14.136  0.00  0.00    +0.005 A 
ATOM     32  C   UNL     1      -5.454 -16.614  12.826  0.00  0.00    +0.000 A 
ATOM     33  C   UNL     1      -7.127 -17.028  14.518  0.00  0.00    +0.000 A 
ATOM     34  C   UNL     1      -5.955 -17.401  13.863  0.00  0.00    +0.000 A 
ENDBRANCH  21  24
ENDBRANCH   5  21
ENDBRANCH  15  19
ENDBRANCH  10  15
TORSDOF 9
ENDMDL
MODEL 5
REMARK VINA RESULT:      -6.8     29.156     32.953
REMARK  Name = 38027180
REMARK  14 active torsions:
REMARK  status: ('A' for Active; 'I' for Inactive)
REMARK    1  A    between atoms: N_4  and  C_14
REMARK    2  A    between atoms: N_5  and  C_21
REMARK    3  A    between atoms: N_5  and  C_22
REMARK    4  A    between atoms: N_6  and  C_31
REMARK    5  A    between atoms: C_7  and  C_11
REMARK    6  A    between atoms: C_8  and  C_14
REMARK    7  A    between atoms: C_10  and  C_15
REMARK    8  A    between atoms: C_11  and  C_16
REMARK    9  A    between atoms: C_11  and  C_17
REMARK   10  A    between atoms: C_12  and  C_18
REMARK   11  A    between atoms: C_15  and  C_19
REMARK   12  A    between atoms: C_20  and  C_23
REMARK   13  A    between atoms: C_21  and  C_24
REMARK   14  A    between atoms: C_35  and  C_36
REMARK                            x       y       z     vdW  Elec       q    Type
REMARK                         _______ _______ _______ _____ _____    ______ ____
ROOT
ATOM      7  C   UNL     1      22.392   5.600  21.657  0.00  0.00    +0.000 C 
ATOM      8  C   UNL     1      21.220   6.489  21.174  0.00  0.00    +0.032 C 
ATOM      9  C   UNL     1      23.556   6.472  22.156  0.00  0.00    +0.012 C 
ATOM     10  C   UNL     1      24.081   7.421  21.063  0.00  0.00    +0.023 C 
ATOM     12  C   UNL     1      22.953   8.140  20.351  0.00  0.00    -0.073 C 
ATOM     13  C   UNL     1      21.678   7.717  20.423  0.00  0.00    -0.022 C 
ATOM     18  C   UNL     1      23.317   9.385  19.591  0.00  0.00    +0.039 C 
ENDROOT
BRANCH   7  11
ATOM     11  C   UNL     1      21.956   4.635  22.765  0.00  0.00    -0.013 C 
ATOM     16  C   UNL     1      22.225   3.192  22.349  0.00  0.00    +0.007 C 
ATOM     17  C   UNL     1      22.673   4.965  24.070  0.00  0.00    +0.007 C 
ENDBRANCH   7  11
BRANCH   8  14
ATOM     14  C   UNL     1      20.245   5.691  20.299  0.00  0.00    +0.112 C 
BRANCH  14   4
ATOM      2  O   UNL     1      17.978   5.513  18.546  0.00  0.00    -0.270 OA
ATOM      4  N   UNL     1      18.870   6.122  20.596  0.00  0.00    -0.311 N 
ATOM     20  C   UNL     1      17.862   5.987  19.674  0.00  0.00    +0.244 C 
ATOM     37  H   UNL     1      18.676   6.426  21.544  0.00  0.00    +0.149 HD
BRANCH  20  23
ATOM     23  C   UNL     1      16.538   6.494  20.116  0.00  0.00    +0.037 A 
ATOM     25  C   UNL     1      15.509   6.657  19.188  0.00  0.00    +0.015 A 
ATOM     26  C   UNL     1      16.323   6.808  21.458  0.00  0.00    +0.015 A 
ATOM     29  C   UNL     1      14.265   7.133  19.602  0.00  0.00    +0.024 A 
ATOM     30  C   UNL     1      15.079   7.285  21.872  0.00  0.00    +0.024 A 
ATOM     31  C   UNL     1      14.050   7.447  20.944  0.00  0.00    +0.033 A 
BRANCH  31   6
ATOM      3  O   UNL     1      11.354   6.107  20.968  0.00  0.00    -0.276 OA
ATOM      6  N   UNL     1      12.806   7.923  21.358  0.00  0.00    -0.286 N 
ATOM     35  C   UNL     1      11.575   7.253  21.346  0.00  0.00    +0.214 C 
ATOM     36  C   UNL     1      10.461   8.119  21.879  0.00  0.00    +0.109 C 
ATOM     38  H   UNL     1      12.802   8.877  21.711  0.00  0.00    +0.155 HD
ENDBRANCH  31   6
ENDBRANCH  20  23
ENDBRANCH  14   4
ENDBRANCH   8  14
BRANCH  10  15
ATOM     15  C   UNL     1      24.973   6.675  20.065  0.00  0.00    +0.103 C 
BRANCH  15  19
ATOM      1  O   UNL     1      26.805   6.211  21.539  0.00  0.00    -0.276 OA
ATOM      5  N   UNL     1      25.864   4.401  20.436  0.00  0.00    -0.300 N 
ATOM     19  C   UNL     1      25.968   5.759  20.754  0.00  0.00    +0.216 C 
ATOM     22  C   UNL     1      24.866   3.890  19.504  0.00  0.00    +0.132 C 
BRANCH   5  21
ATOM     21  C   UNL     1      26.748   3.392  21.015  0.00  0.00    +0.142 C 
BRANCH  21  24
ATOM     24  C   UNL     1      26.076   2.620  22.114  0.00  0.00    -0.030 A 
ATOM     27  C   UNL     1      25.581   1.340  21.865  0.00  0.00    +0.005 A 
ATOM     28  C   UNL     1      25.946   3.184  23.383  0.00  0.00    +0.005 A 
ATOM     32  C   UNL     1      24.957   0.623  22.886  0.00  0.00    +0.000 A 
ATOM     33  C   UNL     1      25.321   2.467  24.404  0.00  0.00    +0.000 A 
ATOM     34  C   UNL     1      24.827   1.187  24.155  0.00  0.00    +0.000 A 
ENDBRANCH  21  24
ENDBRANCH   5  21
ENDBRANCH  15  19
ENDBRANCH  10  15
TORSDOF 9
ENDMDL
MODEL 6
REMARK VINA RESULT:      -6.4     26.379     29.717
REMARK  Name = 38027180
REMARK  14 active torsions:
REMARK  status: ('A' for Active; 'I' for Inactive)
REMARK    1  A    between atoms: N_4  and  C_14
REMARK    2  A    between atoms: N_5  and  C_21
REMARK    3  A    between atoms: N_5  and  C_22
REMARK    4  A    between atoms: N_6  and  C_31
REMARK    5  A    between atoms: C_7  and  C_11
REMARK    6  A    between atoms: C_8  and  C_14
REMARK    7  A    between atoms: C_10  and  C_15
REMARK    8  A    between atoms: C_11  and  C_16
REMARK    9  A    between atoms: C_11  and  C_17
REMARK   10  A    between atoms: C_12  and  C_18
REMARK   11  A    between atoms: C_15  and  C_19
REMARK   12  A    between atoms: C_20  and  C_23
REMARK   13  A    between atoms: C_21  and  C_24
REMARK   14  A    between atoms: C_35  and  C_36
REMARK                            x       y       z     vdW  Elec       q    Type
REMARK                         _______ _______ _______ _____ _____    ______ ____
ROOT
ATOM      7  C   UNL     1      20.579  -6.681  23.122  0.00  0.00    +0.000 C 
ATOM      8  C   UNL     1      21.886  -7.463  22.843  0.00  0.00    +0.032 C 
ATOM      9  C   UNL     1      20.895  -5.224  23.494  0.00  0.00    +0.012 C 
ATOM     10  C   UNL     1      21.799  -5.124  24.737  0.00  0.00    +0.023 C 
ATOM     12  C   UNL     1      22.978  -6.072  24.654  0.00  0.00    -0.073 C 
ATOM     13  C   UNL     1      23.005  -7.105  23.792  0.00  0.00    -0.022 C 
ATOM     18  C   UNL     1      24.146  -5.779  25.554  0.00  0.00    +0.039 C 
ENDROOT
BRANCH   7  11
ATOM     11  C   UNL     1      19.628  -6.716  21.922  0.00  0.00    -0.013 C 
ATOM     16  C   UNL     1      18.198  -6.424  22.368  0.00  0.00    +0.007 C 
ATOM     17  C   UNL     1      20.077  -5.718  20.859  0.00  0.00    +0.007 C 
ENDBRANCH   7  11
BRANCH   8  14
ATOM     14  C   UNL     1      21.645  -8.977  22.888  0.00  0.00    +0.112 C 
BRANCH  14   4
ATOM      2  O   UNL     1      24.219  -9.880  21.990  0.00  0.00    -0.270 OA
ATOM      4  N   UNL     1      21.963  -9.553  21.572  0.00  0.00    -0.311 N 
ATOM     20  C   UNL     1      23.238  -9.952  21.253  0.00  0.00    +0.244 C 
ATOM     37  H   UNL     1      21.185  -9.741  20.949  0.00  0.00    +0.149 HD
BRANCH  20  23
ATOM     23  C   UNL     1      23.400 -10.487  19.878  0.00  0.00    +0.037 A 
ATOM     25  C   UNL     1      22.293 -10.592  19.035  0.00  0.00    +0.015 A 
ATOM     26  C   UNL     1      24.659 -10.886  19.427  0.00  0.00    +0.015 A 
ATOM     29  C   UNL     1      22.444 -11.094  17.743  0.00  0.00    +0.024 A 
ATOM     30  C   UNL     1      24.810 -11.389  18.135  0.00  0.00    +0.024 A 
ATOM     31  C   UNL     1      23.703 -11.493  17.293  0.00  0.00    +0.033 A 
BRANCH  31   6
ATOM      3  O   UNL     1      24.020 -14.325  16.320  0.00  0.00    -0.276 OA
ATOM      6  N   UNL     1      23.854 -11.995  16.000  0.00  0.00    -0.286 N 
ATOM     35  C   UNL     1      24.000 -13.331  15.602  0.00  0.00    +0.214 C 
ATOM     36  C   UNL     1      24.137 -13.456  14.105  0.00  0.00    +0.109 C 
ATOM     38  H   UNL     1      23.857 -11.296  15.261  0.00  0.00    +0.155 HD
ENDBRANCH  31   6
ENDBRANCH  20  23
ENDBRANCH  14   4
ENDBRANCH   8  14
BRANCH  10  15
ATOM     15  C   UNL     1      20.999  -5.354  26.023  0.00  0.00    +0.103 C 
BRANCH  15  19
ATOM      1  O   UNL     1      20.392  -3.090  26.522  0.00  0.00    -0.276 OA
ATOM      5  N   UNL     1      18.656  -4.605  26.256  0.00  0.00    -0.300 N 
ATOM     19  C   UNL     1      20.005  -4.238  26.291  0.00  0.00    +0.216 C 
ATOM     22  C   UNL     1      18.223  -5.969  25.980  0.00  0.00    +0.132 C 
BRANCH   5  21
ATOM     21  C   UNL     1      17.578  -3.647  26.493  0.00  0.00    +0.142 C 
BRANCH  21  24
ATOM     24  C   UNL     1      17.222  -2.882  25.251  0.00  0.00    -0.030 A 
ATOM     27  C   UNL     1      17.645  -1.561  25.100  0.00  0.00    +0.005 A 
ATOM     28  C   UNL     1      16.469  -3.493  24.248  0.00  0.00    +0.005 A 
ATOM     32  C   UNL     1      17.314  -0.851  23.946  0.00  0.00    +0.000 A 
ATOM     33  C   UNL     1      16.138  -2.782  23.094  0.00  0.00    +0.000 A 
ATOM     34  C   UNL     1      16.560  -1.462  22.943  0.00  0.00    +0.000 A 
ENDBRANCH  21  24
ENDBRANCH   5  21
ENDBRANCH  15  19
ENDBRANCH  10  15
TORSDOF 9
ENDMDL
MODEL 7
REMARK VINA RESULT:      -6.4     23.747     28.522
REMARK  Name = 38027180
REMARK  14 active torsions:
REMARK  status: ('A' for Active; 'I' for Inactive)
REMARK    1  A    between atoms: N_4  and  C_14
REMARK    2  A    between atoms: N_5  and  C_21
REMARK    3  A    between atoms: N_5  and  C_22
REMARK    4  A    between atoms: N_6  and  C_31
REMARK    5  A    between atoms: C_7  and  C_11
REMARK    6  A    between atoms: C_8  and  C_14
REMARK    7  A    between atoms: C_10  and  C_15
REMARK    8  A    between atoms: C_11  and  C_16
REMARK    9  A    between atoms: C_11  and  C_17
REMARK   10  A    between atoms: C_12  and  C_18
REMARK   11  A    between atoms: C_15  and  C_19
REMARK   12  A    between atoms: C_20  and  C_23
REMARK   13  A    between atoms: C_21  and  C_24
REMARK   14  A    between atoms: C_35  and  C_36
REMARK                            x       y       z     vdW  Elec       q    Type
REMARK                         _______ _______ _______ _____ _____    ______ ____
ROOT
ATOM      7  C   UNL     1     -12.857   9.306  31.886  0.00  0.00    +0.000 C 
ATOM      8  C   UNL     1     -12.019   9.923  33.033  0.00  0.00    +0.032 C 
ATOM      9  C   UNL     1     -14.159   8.705  32.437  0.00  0.00    +0.012 C 
ATOM     10  C   UNL     1     -13.895   7.613  33.491  0.00  0.00    +0.023 C 
ATOM     12  C   UNL     1     -12.868   8.054  34.513  0.00  0.00    -0.073 C 
ATOM     13  C   UNL     1     -12.046   9.097  34.297  0.00  0.00    -0.022 C 
ATOM     18  C   UNL     1     -12.836   7.296  35.811  0.00  0.00    +0.039 C 
ENDROOT
BRANCH   7  11
ATOM     11  C   UNL     1     -13.180  10.337  30.799  0.00  0.00    -0.013 C 
ATOM     16  C   UNL     1     -13.253  11.737  31.400  0.00  0.00    +0.007 C 
ATOM     17  C   UNL     1     -12.140  10.279  29.686  0.00  0.00    +0.007 C 
ENDBRANCH   7  11
BRANCH   8  14
ATOM     14  C   UNL     1     -10.564  10.143  32.599  0.00  0.00    +0.112 C 
BRANCH  14   4
ATOM      2  O   UNL     1      -8.286  11.681  33.429  0.00  0.00    -0.270 OA
ATOM      4  N   UNL     1      -9.675   9.852  33.734  0.00  0.00    -0.311 N 
ATOM     20  C   UNL     1      -8.610  10.664  34.037  0.00  0.00    +0.244 C 
ATOM     37  H   UNL     1      -9.941   9.088  34.346  0.00  0.00    +0.149 HD
BRANCH  20  23
ATOM     23  C   UNL     1      -7.794  10.219  35.195  0.00  0.00    +0.037 A 
ATOM     25  C   UNL     1      -6.591  10.863  35.489  0.00  0.00    +0.015 A 
ATOM     26  C   UNL     1      -8.228   9.158  35.989  0.00  0.00    +0.015 A 
ATOM     29  C   UNL     1      -5.824  10.446  36.576  0.00  0.00    +0.024 A 
ATOM     30  C   UNL     1      -7.461   8.740  37.076  0.00  0.00    +0.024 A 
ATOM     31  C   UNL     1      -6.258   9.385  37.370  0.00  0.00    +0.033 A 
BRANCH  31   6
ATOM      3  O   UNL     1      -3.458   8.282  37.479  0.00  0.00    -0.276 OA
ATOM      6  N   UNL     1      -5.491   8.968  38.458  0.00  0.00    -0.286 N 
ATOM     35  C   UNL     1      -4.185   8.458  38.451  0.00  0.00    +0.214 C 
ATOM     36  C   UNL     1      -3.708   8.123  39.843  0.00  0.00    +0.109 C 
ATOM     38  H   UNL     1      -5.944   9.048  39.365  0.00  0.00    +0.155 HD
ENDBRANCH  31   6
ENDBRANCH  20  23
ENDBRANCH  14   4
ENDBRANCH   8  14
BRANCH  10  15
ATOM     15  C   UNL     1     -13.482   6.295  32.830  0.00  0.00    +0.103 C 
BRANCH  15  19
ATOM      1  O   UNL     1     -15.437   5.352  33.847  0.00  0.00    -0.276 OA
ATOM      5  N   UNL     1     -14.007   3.881  32.764  0.00  0.00    -0.300 N 
ATOM     19  C   UNL     1     -14.406   5.149  33.201  0.00  0.00    +0.216 C 
ATOM     22  C   UNL     1     -12.784   3.666  32.001  0.00  0.00    +0.132 C 
BRANCH   5  21
ATOM     21  C   UNL     1     -14.787   2.677  33.041  0.00  0.00    +0.142 C 
BRANCH  21  24
ATOM     24  C   UNL     1     -15.225   1.990  31.779  0.00  0.00    -0.030 A 
ATOM     27  C   UNL     1     -14.887   0.655  31.559  0.00  0.00    +0.005 A 
ATOM     28  C   UNL     1     -15.969   2.687  30.828  0.00  0.00    +0.005 A 
ATOM     32  C   UNL     1     -15.294   0.016  30.387  0.00  0.00    +0.000 A 
ATOM     33  C   UNL     1     -16.376   2.049  29.655  0.00  0.00    +0.000 A 
ATOM     34  C   UNL     1     -16.038   0.714  29.436  0.00  0.00    +0.000 A 
ENDBRANCH  21  24
ENDBRANCH   5  21
ENDBRANCH  15  19
ENDBRANCH  10  15
TORSDOF 9
ENDMDL
MODEL 8
REMARK VINA RESULT:      -6.3      3.467      7.222
REMARK  Name = 38027180
REMARK  14 active torsions:
REMARK  status: ('A' for Active; 'I' for Inactive)
REMARK    1  A    between atoms: N_4  and  C_14
REMARK    2  A    between atoms: N_5  and  C_21
REMARK    3  A    between atoms: N_5  and  C_22
REMARK    4  A    between atoms: N_6  and  C_31
REMARK    5  A    between atoms: C_7  and  C_11
REMARK    6  A    between atoms: C_8  and  C_14
REMARK    7  A    between atoms: C_10  and  C_15
REMARK    8  A    between atoms: C_11  and  C_16
REMARK    9  A    between atoms: C_11  and  C_17
REMARK   10  A    between atoms: C_12  and  C_18
REMARK   11  A    between atoms: C_15  and  C_19
REMARK   12  A    between atoms: C_20  and  C_23
REMARK   13  A    between atoms: C_21  and  C_24
REMARK   14  A    between atoms: C_35  and  C_36
REMARK                            x       y       z     vdW  Elec       q    Type
REMARK                         _______ _______ _______ _____ _____    ______ ____
ROOT
ATOM      7  C   UNL     1      -8.873 -12.425  17.851  0.00  0.00    +0.000 C 
ATOM      8  C   UNL     1      -8.386 -11.290  18.786  0.00  0.00    +0.032 C 
ATOM      9  C   UNL     1      -7.721 -12.920  16.963  0.00  0.00    +0.012 C 
ATOM     10  C   UNL     1      -7.130 -11.793  16.095  0.00  0.00    +0.023 C 
ATOM     12  C   UNL     1      -6.872 -10.537  16.903  0.00  0.00    -0.073 C 
ATOM     13  C   UNL     1      -7.432 -10.335  18.109  0.00  0.00    -0.022 C 
ATOM     18  C   UNL     1      -5.918  -9.537  16.311  0.00  0.00    +0.039 C 
ENDROOT
BRANCH   7  11
ATOM     11  C   UNL     1      -9.460 -13.600  18.641  0.00  0.00    -0.013 C 
ATOM     16  C   UNL     1     -10.982 -13.599  18.541  0.00  0.00    +0.007 C 
ATOM     17  C   UNL     1      -8.885 -14.920  18.136  0.00  0.00    +0.007 C 
ENDBRANCH   7  11
BRANCH   8  14
ATOM     14  C   UNL     1      -9.570 -10.504  19.363  0.00  0.00    +0.112 C 
BRANCH  14   4
ATOM      2  O   UNL     1     -12.050 -10.183  17.952  0.00  0.00    -0.270 OA
ATOM      4  N   UNL     1      -9.920  -9.414  18.439  0.00  0.00    -0.311 N 
ATOM     20  C   UNL     1     -11.143  -9.365  17.819  0.00  0.00    +0.244 C 
ATOM     37  H   UNL     1      -9.261  -8.647  18.360  0.00  0.00    +0.149 HD
BRANCH  20  23
ATOM     23  C   UNL     1     -11.331  -8.217  16.896  0.00  0.00    +0.037 A 
ATOM     25  C   UNL     1     -12.606  -7.904  16.422  0.00  0.00    +0.015 A 
ATOM     26  C   UNL     1     -10.234  -7.451  16.502  0.00  0.00    +0.015 A 
ATOM     29  C   UNL     1     -12.783  -6.826  15.555  0.00  0.00    +0.024 A 
ATOM     30  C   UNL     1     -10.411  -6.373  15.634  0.00  0.00    +0.024 A 
ATOM     31  C   UNL     1     -11.686  -6.060  15.161  0.00  0.00    +0.033 A 
BRANCH  31   6
ATOM      3  O   UNL     1     -12.420  -5.999  12.242  0.00  0.00    -0.276 OA
ATOM      6  N   UNL     1     -11.864  -4.982  14.295  0.00  0.00    -0.286 N 
ATOM     35  C   UNL     1     -12.206  -5.011  12.936  0.00  0.00    +0.214 C 
ATOM     36  C   UNL     1     -12.301  -3.623  12.353  0.00  0.00    +0.109 C 
ATOM     38  H   UNL     1     -11.725  -4.064  14.710  0.00  0.00    +0.155 HD
ENDBRANCH  31   6
ENDBRANCH  20  23
ENDBRANCH  14   4
ENDBRANCH   8  14
BRANCH  10  15
ATOM     15  C   UNL     1      -8.027 -11.496  14.890  0.00  0.00    +0.103 C 
BRANCH  15  19
ATOM      1  O   UNL     1      -7.173 -13.164  13.396  0.00  0.00    -0.276 OA
ATOM      5  N   UNL     1      -7.152 -10.971  12.639  0.00  0.00    -0.300 N 
ATOM     19  C   UNL     1      -7.414 -11.969  13.584  0.00  0.00    +0.216 C 
ATOM     22  C   UNL     1      -7.446  -9.565  12.885  0.00  0.00    +0.132 C 
BRANCH   5  21
ATOM     21  C   UNL     1      -6.562 -11.265  11.335  0.00  0.00    +0.142 C 
BRANCH  21  24
ATOM     24  C   UNL     1      -5.155 -10.753  11.227  0.00  0.00    -0.030 A 
ATOM     27  C   UNL     1      -4.826  -9.815  10.248  0.00  0.00    +0.005 A 
ATOM     28  C   UNL     1      -4.175 -11.217  12.105  0.00  0.00    +0.005 A 
ATOM     32  C   UNL     1      -3.518  -9.341  10.148  0.00  0.00    +0.000 A 
ATOM     33  C   UNL     1      -2.867 -10.742  12.005  0.00  0.00    +0.000 A 
ATOM     34  C   UNL     1      -2.539  -9.804  11.027  0.00  0.00    +0.000 A 
ENDBRANCH  21  24
ENDBRANCH   5  21
ENDBRANCH  15  19
ENDBRANCH  10  15
TORSDOF 9
ENDMDL
MODEL 9
REMARK VINA RESULT:      -6.3     20.244     23.146
REMARK  Name = 38027180
REMARK  14 active torsions:
REMARK  status: ('A' for Active; 'I' for Inactive)
REMARK    1  A    between atoms: N_4  and  C_14
REMARK    2  A    between atoms: N_5  and  C_21
REMARK    3  A    between atoms: N_5  and  C_22
REMARK    4  A    between atoms: N_6  and  C_31
REMARK    5  A    between atoms: C_7  and  C_11
REMARK    6  A    between atoms: C_8  and  C_14
REMARK    7  A    between atoms: C_10  and  C_15
REMARK    8  A    between atoms: C_11  and  C_16
REMARK    9  A    between atoms: C_11  and  C_17
REMARK   10  A    between atoms: C_12  and  C_18
REMARK   11  A    between atoms: C_15  and  C_19
REMARK   12  A    between atoms: C_20  and  C_23
REMARK   13  A    between atoms: C_21  and  C_24
REMARK   14  A    between atoms: C_35  and  C_36
REMARK                            x       y       z     vdW  Elec       q    Type
REMARK                         _______ _______ _______ _____ _____    ______ ____
ROOT
ATOM      7  C   UNL     1     -14.009   8.922  18.411  0.00  0.00    +0.000 C 
ATOM      8  C   UNL     1     -14.860   8.102  19.413  0.00  0.00    +0.032 C 
ATOM      9  C   UNL     1     -12.802   8.099  17.934  0.00  0.00    +0.012 C 
ATOM     10  C   UNL     1     -11.897   7.663  19.102  0.00  0.00    +0.023 C 
ATOM     12  C   UNL     1     -12.699   7.085  20.251  0.00  0.00    -0.073 C 
ATOM     13  C   UNL     1     -14.025   7.281  20.367  0.00  0.00    -0.022 C 
ATOM     18  C   UNL     1     -11.948   6.239  21.241  0.00  0.00    +0.039 C 
ENDROOT
BRANCH   7  11
ATOM     11  C   UNL     1     -14.835   9.379  17.204  0.00  0.00    -0.013 C 
ATOM     16  C   UNL     1     -14.674  10.881  16.989  0.00  0.00    +0.007 C 
ATOM     17  C   UNL     1     -14.424   8.605  15.956  0.00  0.00    +0.007 C 
ENDBRANCH   7  11
BRANCH   8  14
ATOM     14  C   UNL     1     -15.801   9.012  20.213  0.00  0.00    +0.112 C 
BRANCH  14   4
ATOM      2  O   UNL     1     -14.580  11.537  20.828  0.00  0.00    -0.270 OA
ATOM      4  N   UNL     1     -15.148   9.386  21.477  0.00  0.00    -0.311 N 
ATOM     20  C   UNL     1     -14.596  10.630  21.657  0.00  0.00    +0.244 C 
ATOM     37  H   UNL     1     -15.214   8.726  22.244  0.00  0.00    +0.149 HD
BRANCH  20  23
ATOM     23  C   UNL     1     -13.950  10.842  22.977  0.00  0.00    +0.037 A 
ATOM     25  C   UNL     1     -14.648  10.549  24.150  0.00  0.00    +0.015 A 
ATOM     26  C   UNL     1     -12.647  11.334  23.047  0.00  0.00    +0.015 A 
ATOM     29  C   UNL     1     -14.043  10.748  25.390  0.00  0.00    +0.024 A 
ATOM     30  C   UNL     1     -12.041  11.534  24.288  0.00  0.00    +0.024 A 
ATOM     31  C   UNL     1     -12.740  11.240  25.460  0.00  0.00    +0.033 A 
BRANCH  31   6
ATOM      3  O   UNL     1     -11.262   9.316  27.243  0.00  0.00    -0.276 OA
ATOM      6  N   UNL     1     -12.134  11.438  26.701  0.00  0.00    -0.286 N 
ATOM     35  C   UNL     1     -11.457  10.501  27.493  0.00  0.00    +0.214 C 
ATOM     36  C   UNL     1     -10.945  11.115  28.772  0.00  0.00    +0.109 C 
ATOM     38  H   UNL     1     -12.198  12.384  27.069  0.00  0.00    +0.155 HD
ENDBRANCH  31   6
ENDBRANCH  20  23
ENDBRANCH  14   4
ENDBRANCH   8  14
BRANCH  10  15
ATOM     15  C   UNL     1     -11.012   8.819  19.576  0.00  0.00    +0.103 C 
BRANCH  15  19
ATOM      1  O   UNL     1      -9.638   8.987  17.620  0.00  0.00    -0.276 OA
ATOM      5  N   UNL     1     -10.678  10.932  18.338  0.00  0.00    -0.300 N 
ATOM     19  C   UNL     1     -10.374   9.569  18.420  0.00  0.00    +0.216 C 
ATOM     22  C   UNL     1     -11.551  11.597  19.297  0.00  0.00    +0.132 C 
BRANCH   5  21
ATOM     21  C   UNL     1     -10.143  11.791  17.285  0.00  0.00    +0.142 C 
BRANCH  21  24
ATOM     24  C   UNL     1     -11.082  11.900  16.118  0.00  0.00    -0.030 A 
ATOM     27  C   UNL     1     -11.782  13.086  15.896  0.00  0.00    +0.005 A 
ATOM     28  C   UNL     1     -11.256  10.816  15.258  0.00  0.00    +0.005 A 
ATOM     32  C   UNL     1     -12.655  13.188  14.812  0.00  0.00    +0.000 A 
ATOM     33  C   UNL     1     -12.129  10.918  14.175  0.00  0.00    +0.000 A 
ATOM     34  C   UNL     1     -12.828  12.103  13.952  0.00  0.00    +0.000 A 
ENDBRANCH  21  24
ENDBRANCH   5  21
ENDBRANCH  15  19
ENDBRANCH  10  15
TORSDOF 9
ENDMDL
MODEL 10
REMARK VINA RESULT:      -6.3     22.946     27.481
REMARK  Name = 38027180
REMARK  14 active torsions:
REMARK  status: ('A' for Active; 'I' for Inactive)
REMARK    1  A    between atoms: N_4  and  C_14
REMARK    2  A    between atoms: N_5  and  C_21
REMARK    3  A    between atoms: N_5  and  C_22
REMARK    4  A    between atoms: N_6  and  C_31
REMARK    5  A    between atoms: C_7  and  C_11
REMARK    6  A    between atoms: C_8  and  C_14
REMARK    7  A    between atoms: C_10  and  C_15
REMARK    8  A    between atoms: C_11  and  C_16
REMARK    9  A    between atoms: C_11  and  C_17
REMARK   10  A    between atoms: C_12  and  C_18
REMARK   11  A    between atoms: C_15  and  C_19
REMARK   12  A    between atoms: C_20  and  C_23
REMARK   13  A    between atoms: C_21  and  C_24
REMARK   14  A    between atoms: C_35  and  C_36
REMARK                            x       y       z     vdW  Elec       q    Type
REMARK                         _______ _______ _______ _____ _____    ______ ____
ROOT
ATOM      7  C   UNL     1     -13.651   9.326  32.074  0.00  0.00    +0.000 C 
ATOM      8  C   UNL     1     -12.747  10.055  33.098  0.00  0.00    +0.032 C 
ATOM      9  C   UNL     1     -14.756   8.540  32.797  0.00  0.00    +0.012 C 
ATOM     10  C   UNL     1     -14.183   7.496  33.774  0.00  0.00    +0.023 C 
ATOM     12  C   UNL     1     -13.087   8.079  34.643  0.00  0.00    -0.073 C 
ATOM     13  C   UNL     1     -12.465   9.231  34.332  0.00  0.00    -0.022 C 
ATOM     18  C   UNL     1     -12.752   7.331  35.903  0.00  0.00    +0.039 C 
ENDROOT
BRANCH   7  11
ATOM     11  C   UNL     1     -14.279  10.301  31.073  0.00  0.00    -0.013 C 
ATOM     16  C   UNL     1     -15.280   9.575  30.179  0.00  0.00    +0.007 C 
ATOM     17  C   UNL     1     -14.948  11.458  31.807  0.00  0.00    +0.007 C 
ENDBRANCH   7  11
BRANCH   8  14
ATOM     14  C   UNL     1     -11.421  10.485  32.458  0.00  0.00    +0.112 C 
BRANCH  14   4
ATOM      2  O   UNL     1     -10.303  12.382  30.615  0.00  0.00    -0.270 OA
ATOM      4  N   UNL     1     -11.571  10.480  30.994  0.00  0.00    -0.311 N 
ATOM     20  C   UNL     1     -10.987  11.445  30.211  0.00  0.00    +0.244 C 
ATOM     37  H   UNL     1     -12.034   9.679  30.580  0.00  0.00    +0.149 HD
BRANCH  20  23
ATOM     23  C   UNL     1     -11.255  11.316  28.756  0.00  0.00    +0.037 A 
ATOM     25  C   UNL     1     -11.929  12.332  28.079  0.00  0.00    +0.015 A 
ATOM     26  C   UNL     1     -10.833  10.179  28.067  0.00  0.00    +0.015 A 
ATOM     29  C   UNL     1     -12.181  12.212  26.713  0.00  0.00    +0.024 A 
ATOM     30  C   UNL     1     -11.086  10.058  26.700  0.00  0.00    +0.024 A 
ATOM     31  C   UNL     1     -11.760  11.075  26.023  0.00  0.00    +0.033 A 
BRANCH  31   6
ATOM      3  O   UNL     1     -14.163   9.997  24.565  0.00  0.00    -0.276 OA
ATOM      6  N   UNL     1     -12.011  10.956  24.656  0.00  0.00    -0.286 N 
ATOM     35  C   UNL     1     -13.154  10.442  24.029  0.00  0.00    +0.214 C 
ATOM     36  C   UNL     1     -13.035  10.487  22.525  0.00  0.00    +0.109 C 
ATOM     38  H   UNL     1     -11.266  11.286  24.047  0.00  0.00    +0.155 HD
ENDBRANCH  31   6
ENDBRANCH  20  23
ENDBRANCH  14   4
ENDBRANCH   8  14
BRANCH  10  15
ATOM     15  C   UNL     1     -13.689   6.253  33.027  0.00  0.00    +0.103 C 
BRANCH  15  19
ATOM      1  O   UNL     1     -15.540   5.107  34.030  0.00  0.00    -0.276 OA
ATOM      5  N   UNL     1     -14.027   3.813  32.839  0.00  0.00    -0.300 N 
ATOM     19  C   UNL     1     -14.512   5.020  33.353  0.00  0.00    +0.216 C 
ATOM     22  C   UNL     1     -12.809   3.735  32.042  0.00  0.00    +0.132 C 
BRANCH   5  21
ATOM     21  C   UNL     1     -14.704   2.538  33.065  0.00  0.00    +0.142 C 
BRANCH  21  24
ATOM     24  C   UNL     1     -15.152   1.905  31.779  0.00  0.00    -0.030 A 
ATOM     27  C   UNL     1     -15.914   2.638  30.869  0.00  0.00    +0.005 A 
ATOM     28  C   UNL     1     -14.807   0.584  31.495  0.00  0.00    +0.005 A 
ATOM     32  C   UNL     1     -16.330   2.050  29.675  0.00  0.00    +0.000 A 
ATOM     33  C   UNL     1     -15.223  -0.005  30.300  0.00  0.00    +0.000 A 
ATOM     34  C   UNL     1     -15.984   0.728  29.391  0.00  0.00    +0.000 A 
ENDBRANCH  21  24
ENDBRANCH   5  21
ENDBRANCH  15  19
ENDBRANCH  10  15
TORSDOF 9
ENDMDL
