REMARK  Name = 26743968
REMARK  5 active torsions:
REMARK  status: ('A' for Active; 'I' for Inactive)
REMARK    1  A    between atoms: O_2  and  C_10
REMARK    2  A    between atoms: N_4  and  C_12
REMARK    3  A    between atoms: C_8  and  C_13
REMARK    4  A    between atoms: C_12  and  C_14
REMARK    5  A    between atoms: C_17  and  C_20
REMARK                            x       y       z     vdW  Elec       q    Type
REMARK                         _______ _______ _______ _____ _____    ______ ____
ROOT
ATOM      4  N   UNL     1      -1.516   1.373  -0.120  0.00  0.00    -0.285 NA
ATOM      8  C   UNL     1      -0.449   2.307  -0.537  0.00  0.00    +0.149 C 
ATOM      9  C   UNL     1      -0.510   3.455   0.487  0.00  0.00    +0.061 C 
ATOM     10  C   UNL     1      -1.669   3.101   1.410  0.00  0.00    +0.130 C 
ATOM     11  C   UNL     1      -2.526   2.178   0.564  0.00  0.00    +0.116 C 
ENDROOT
BRANCH   8  13
ATOM      3  O   UNL     1       1.806   2.181  -1.469  0.00  0.00    -0.336 OA
ATOM      5  N   UNL     1       1.367   0.619   0.075  0.00  0.00    -0.190 NA
ATOM      6  N   UNL     1       2.972   1.415  -1.348  0.00  0.00    -0.056 NA
ATOM     13  C   UNL     1       0.912   1.647  -0.597  0.00  0.00    +0.245 A 
ATOM     17  C   UNL     1       2.634   0.514  -0.420  0.00  0.00    +0.204 A 
BRANCH  17  20
ATOM      7  N   UNL     1       5.725  -1.526  -0.090  0.00  0.00    -0.263 NA
ATOM     20  C   UNL     1       3.539  -0.501   0.036  0.00  0.00    +0.041 A 
ATOM     22  C   UNL     1       3.155  -1.422   1.005  0.00  0.00    +0.014 A 
ATOM     23  C   UNL     1       4.824  -0.595  -0.475  0.00  0.00    +0.122 A 
ATOM     24  C   UNL     1       4.054  -2.395   1.427  0.00  0.00    +0.020 A 
ATOM     25  C   UNL     1       5.316  -2.404   0.853  0.00  0.00    +0.111 A 
ENDBRANCH  17  20
ENDBRANCH   8  13
BRANCH  10   2
ATOM      2  O   UNL     1      -2.375   4.264   1.798  0.00  0.00    -0.390 OA
ATOM     26  H   UNL     1      -1.750   4.842   2.267  0.00  0.00    +0.210 HD
ENDBRANCH  10   2
BRANCH   4  12
ATOM     12  C   UNL     1      -2.079   0.613  -1.229  0.00  0.00    +0.120 C 
BRANCH  12  14
ATOM      1  F   UNL     1      -4.679  -4.062   0.540  0.00  0.00    -0.205 F 
ATOM     14  C   UNL     1      -2.774  -0.636  -0.756  0.00  0.00    -0.033 A 
ATOM     15  C   UNL     1      -2.061  -1.829  -0.641  0.00  0.00    +0.008 A 
ATOM     16  C   UNL     1      -4.130  -0.600  -0.433  0.00  0.00    +0.008 A 
ATOM     18  C   UNL     1      -2.704  -2.987  -0.204  0.00  0.00    +0.038 A 
ATOM     19  C   UNL     1      -4.774  -1.758   0.005  0.00  0.00    +0.038 A 
ATOM     21  C   UNL     1      -4.061  -2.951   0.119  0.00  0.00    +0.123 A 
ENDBRANCH  12  14
ENDBRANCH   4  12
TORSDOF 5
