MODEL 1
REMARK VINA RESULT:      -7.2      0.000      0.000
REMARK  Name = 75536457
REMARK  15 active torsions:
REMARK  status: ('A' for Active; 'I' for Inactive)
REMARK    1  A    between atoms: S_1  and  N_11
REMARK    2  A    between atoms: S_1  and  C_25
REMARK    3  A    between atoms: O_3  and  C_13
REMARK    4  A    between atoms: O_6  and  C_32
REMARK    5  A    between atoms: O_6  and  C_34
REMARK    6  A    between atoms: O_7  and  C_33
REMARK    7  A    between atoms: N_10  and  C_12
REMARK    8  A    between atoms: N_10  and  C_17
REMARK    9  A    between atoms: N_10  and  C_18
REMARK   10  A    between atoms: N_11  and  C_16
REMARK   11  A    between atoms: C_14  and  C_16
REMARK   12  A    between atoms: C_17  and  C_19
REMARK   13  A    between atoms: C_18  and  C_20
REMARK   14  A    between atoms: C_30  and  C_32
REMARK   15  A    between atoms: C_31  and  C_33
REMARK                            x       y       z     vdW  Elec       q    Type
REMARK                         _______ _______ _______ _____ _____    ______ ____
ROOT
ATOM     10  N   UNL     1      13.082   8.710  18.785  0.00  0.00    -0.286 NA
ENDROOT
BRANCH  10  12
ATOM      2  O   UNL     1      14.160   8.972  15.321  0.00  0.00    -0.371 OA
ATOM     12  C   UNL     1      13.075   9.211  17.421  0.00  0.00    +0.114 C 
ATOM     13  C   UNL     1      13.999  10.395  17.203  0.00  0.00    +0.164 C 
ATOM     14  C   UNL     1      14.168  10.361  15.691  0.00  0.00    +0.164 C 
ATOM     15  C   UNL     1      13.628   8.211  16.419  0.00  0.00    +0.181 C 
BRANCH  13   3
ATOM      3  O   UNL     1      13.436  11.616  17.644  0.00  0.00    -0.388 OA
ATOM     35  H   UNL     1      13.167  11.510  18.572  0.00  0.00    +0.210 HD
ENDBRANCH  13   3
BRANCH  14  16
ATOM     16  C   UNL     1      15.456  11.010  15.215  0.00  0.00    +0.139 C 
BRANCH  16  11
ATOM     11  N   UNL     1      15.671  10.697  13.789  0.00  0.00    -0.192 NA
ATOM     36  H   UNL     1      15.322   9.769  13.519  0.00  0.00    +0.148 HD
BRANCH  11   1
ATOM      1  S   UNL     1      15.492  11.937  12.631  0.00  0.00    +0.027 S 
ATOM      4  O   UNL     1      14.112  12.002  12.189  0.00  0.00    -0.158 OA
ATOM      5  O   UNL     1      16.573  11.829  11.670  0.00  0.00    -0.158 OA
ATOM     25  C   UNL     1      15.813  13.371  13.634  0.00  0.00    +0.214 C 
ENDBRANCH  11   1
ENDBRANCH  16  11
ENDBRANCH  14  16
ENDBRANCH  10  12
BRANCH  10  17
ATOM     17  C   UNL     1      11.718   8.611  19.311  0.00  0.00    +0.120 C 
BRANCH  17  19
ATOM     19  C   UNL     1      11.560   9.361  20.607  0.00  0.00    -0.033 A 
ATOM     21  C   UNL     1      12.041  10.665  20.721  0.00  0.00    +0.006 A 
ATOM     22  C   UNL     1      10.933   8.752  21.693  0.00  0.00    +0.006 A 
ATOM     26  C   UNL     1      11.895  11.361  21.922  0.00  0.00    +0.015 A 
ATOM     27  C   UNL     1      10.787   9.448  22.894  0.00  0.00    +0.015 A 
ATOM     30  C   UNL     1      11.268  10.752  23.008  0.00  0.00    +0.059 A 
BRANCH  30  32
ATOM      8  O   UNL     1      10.160  12.219  24.525  0.00  0.00    -0.245 OA
ATOM     32  C   UNL     1      11.114  11.476  24.260  0.00  0.00    +0.339 C 
BRANCH  32   6
ATOM      6  O   UNL     1      12.155  11.234  25.113  0.00  0.00    -0.464 OA
ATOM     34  C   UNL     1      13.048  12.323  25.369  0.00  0.00    +0.280 C 
ENDBRANCH  32   6
ENDBRANCH  30  32
ENDBRANCH  17  19
ENDBRANCH  10  17
BRANCH  10  18
ATOM     18  C   UNL     1      13.745   7.404  18.857  0.00  0.00    +0.120 C 
BRANCH  18  20
ATOM     20  C   UNL     1      15.053   7.479  19.599  0.00  0.00    -0.033 A 
ATOM     23  C   UNL     1      16.019   6.491  19.412  0.00  0.00    +0.006 A 
ATOM     24  C   UNL     1      15.298   8.538  20.475  0.00  0.00    +0.006 A 
ATOM     28  C   UNL     1      17.231   6.561  20.100  0.00  0.00    +0.015 A 
ATOM     29  C   UNL     1      16.509   8.607  21.163  0.00  0.00    +0.015 A 
ATOM     31  C   UNL     1      17.476   7.619  20.976  0.00  0.00    +0.059 A 
BRANCH  31  33
ATOM      9  O   UNL     1      19.726   6.982  21.478  0.00  0.00    -0.245 OA
ATOM     33  C   UNL     1      18.739   7.692  21.692  0.00  0.00    +0.337 C 
BRANCH  33   7
ATOM      7  O   UNL     1      18.734   8.652  22.657  0.00  0.00    -0.477 OA
ATOM     37  H   UNL     1      18.419   9.516  22.311  0.00  0.00    +0.295 HD
ENDBRANCH  33   7
ENDBRANCH  31  33
ENDBRANCH  18  20
ENDBRANCH  10  18
TORSDOF 13
ENDMDL
MODEL 2
REMARK VINA RESULT:      -6.9     12.543     16.515
REMARK  Name = 75536457
REMARK  15 active torsions:
REMARK  status: ('A' for Active; 'I' for Inactive)
REMARK    1  A    between atoms: S_1  and  N_11
REMARK    2  A    between atoms: S_1  and  C_25
REMARK    3  A    between atoms: O_3  and  C_13
REMARK    4  A    between atoms: O_6  and  C_32
REMARK    5  A    between atoms: O_6  and  C_34
REMARK    6  A    between atoms: O_7  and  C_33
REMARK    7  A    between atoms: N_10  and  C_12
REMARK    8  A    between atoms: N_10  and  C_17
REMARK    9  A    between atoms: N_10  and  C_18
REMARK   10  A    between atoms: N_11  and  C_16
REMARK   11  A    between atoms: C_14  and  C_16
REMARK   12  A    between atoms: C_17  and  C_19
REMARK   13  A    between atoms: C_18  and  C_20
REMARK   14  A    between atoms: C_30  and  C_32
REMARK   15  A    between atoms: C_31  and  C_33
REMARK                            x       y       z     vdW  Elec       q    Type
REMARK                         _______ _______ _______ _____ _____    ______ ____
ROOT
ATOM     10  N   UNL     1      10.174   7.215   4.253  0.00  0.00    -0.286 NA
ENDROOT
BRANCH  10  12
ATOM      2  O   UNL     1      13.677   8.056   3.748  0.00  0.00    -0.371 OA
ATOM     12  C   UNL     1      11.614   7.025   4.317  0.00  0.00    +0.114 C 
ATOM     13  C   UNL     1      12.192   6.335   3.096  0.00  0.00    +0.164 C 
ATOM     14  C   UNL     1      13.659   6.725   3.205  0.00  0.00    +0.164 C 
ATOM     15  C   UNL     1      12.385   8.335   4.316  0.00  0.00    +0.181 C 
BRANCH  13   3
ATOM      3  O   UNL     1      12.015   4.932   3.127  0.00  0.00    -0.388 OA
ATOM     35  H   UNL     1      12.527   4.576   3.873  0.00  0.00    +0.210 HD
ENDBRANCH  13   3
BRANCH  14  16
ATOM     16  C   UNL     1      14.387   6.706   1.872  0.00  0.00    +0.139 C 
BRANCH  16  11
ATOM     11  N   UNL     1      15.345   5.582   1.847  0.00  0.00    -0.192 NA
ATOM     36  H   UNL     1      15.835   5.445   2.741  0.00  0.00    +0.148 HD
BRANCH  11   1
ATOM      1  S   UNL     1      14.942   4.168   0.982  0.00  0.00    +0.027 S 
ATOM      4  O   UNL     1      14.370   3.186   1.883  0.00  0.00    -0.158 OA
ATOM      5  O   UNL     1      16.056   3.823   0.121  0.00  0.00    -0.158 OA
ATOM     25  C   UNL     1      13.636   4.781  -0.058  0.00  0.00    +0.214 C 
ENDBRANCH  11   1
ENDBRANCH  16  11
ENDBRANCH  14  16
ENDBRANCH  10  12
BRANCH  10  17
ATOM     17  C   UNL     1       9.773   7.725   2.939  0.00  0.00    +0.120 C 
BRANCH  17  19
ATOM     19  C   UNL     1       8.502   8.528   3.012  0.00  0.00    -0.033 A 
ATOM     21  C   UNL     1       7.816   8.857   1.843  0.00  0.00    +0.006 A 
ATOM     22  C   UNL     1       8.009   8.941   4.250  0.00  0.00    +0.006 A 
ATOM     26  C   UNL     1       6.638   9.601   1.911  0.00  0.00    +0.015 A 
ATOM     27  C   UNL     1       6.830   9.685   4.317  0.00  0.00    +0.015 A 
ATOM     30  C   UNL     1       6.145  10.015   3.148  0.00  0.00    +0.059 A 
BRANCH  30  32
ATOM      8  O   UNL     1       3.838  10.438   2.722  0.00  0.00    -0.245 OA
ATOM     32  C   UNL     1       4.916  10.789   3.221  0.00  0.00    +0.339 C 
BRANCH  32   6
ATOM      6  O   UNL     1       5.095  11.956   3.911  0.00  0.00    -0.464 OA
ATOM     34  C   UNL     1       4.164  12.237   4.961  0.00  0.00    +0.280 C 
ENDBRANCH  32   6
ENDBRANCH  30  32
ENDBRANCH  17  19
ENDBRANCH  10  17
BRANCH  10  18
ATOM     18  C   UNL     1       9.471   5.962   4.543  0.00  0.00    +0.120 C 
BRANCH  18  20
ATOM     20  C   UNL     1       9.455   5.656   6.017  0.00  0.00    -0.033 A 
ATOM     23  C   UNL     1       9.805   4.384   6.469  0.00  0.00    +0.006 A 
ATOM     24  C   UNL     1       9.089   6.645   6.931  0.00  0.00    +0.006 A 
ATOM     28  C   UNL     1       9.789   4.100   7.834  0.00  0.00    +0.015 A 
ATOM     29  C   UNL     1       9.074   6.361   8.296  0.00  0.00    +0.015 A 
ATOM     31  C   UNL     1       9.424   5.088   8.748  0.00  0.00    +0.059 A 
BRANCH  31  33
ATOM      9  O   UNL     1      10.403   4.544  10.862  0.00  0.00    -0.245 OA
ATOM     33  C   UNL     1       9.409   4.794  10.172  0.00  0.00    +0.337 C 
BRANCH  33   7
ATOM      7  O   UNL     1       8.153   4.819  10.695  0.00  0.00    -0.477 OA
ATOM     37  H   UNL     1       7.496   5.161  10.050  0.00  0.00    +0.295 HD
ENDBRANCH  33   7
ENDBRANCH  31  33
ENDBRANCH  18  20
ENDBRANCH  10  18
TORSDOF 13
ENDMDL
MODEL 3
REMARK VINA RESULT:      -6.8     11.108     14.847
REMARK  Name = 75536457
REMARK  15 active torsions:
REMARK  status: ('A' for Active; 'I' for Inactive)
REMARK    1  A    between atoms: S_1  and  N_11
REMARK    2  A    between atoms: S_1  and  C_25
REMARK    3  A    between atoms: O_3  and  C_13
REMARK    4  A    between atoms: O_6  and  C_32
REMARK    5  A    between atoms: O_6  and  C_34
REMARK    6  A    between atoms: O_7  and  C_33
REMARK    7  A    between atoms: N_10  and  C_12
REMARK    8  A    between atoms: N_10  and  C_17
REMARK    9  A    between atoms: N_10  and  C_18
REMARK   10  A    between atoms: N_11  and  C_16
REMARK   11  A    between atoms: C_14  and  C_16
REMARK   12  A    between atoms: C_17  and  C_19
REMARK   13  A    between atoms: C_18  and  C_20
REMARK   14  A    between atoms: C_30  and  C_32
REMARK   15  A    between atoms: C_31  and  C_33
REMARK                            x       y       z     vdW  Elec       q    Type
REMARK                         _______ _______ _______ _____ _____    ______ ____
ROOT
ATOM     10  N   UNL     1      10.279   7.590   4.444  0.00  0.00    -0.286 NA
ENDROOT
BRANCH  10  12
ATOM      2  O   UNL     1      10.479   5.946   1.205  0.00  0.00    -0.371 OA
ATOM     12  C   UNL     1      10.860   7.245   3.156  0.00  0.00    +0.114 C 
ATOM     13  C   UNL     1      11.748   6.015   3.200  0.00  0.00    +0.164 C 
ATOM     14  C   UNL     1      11.779   5.624   1.729  0.00  0.00    +0.164 C 
ATOM     15  C   UNL     1       9.821   6.830   2.129  0.00  0.00    +0.181 C 
BRANCH  13   3
ATOM      3  O   UNL     1      13.043   6.294   3.698  0.00  0.00    -0.388 OA
ATOM     35  H   UNL     1      13.014   7.148   4.162  0.00  0.00    +0.210 HD
ENDBRANCH  13   3
BRANCH  14  16
ATOM     16  C   UNL     1      12.071   4.150   1.505  0.00  0.00    +0.139 C 
BRANCH  16  11
ATOM     11  N   UNL     1      13.206   4.007   0.572  0.00  0.00    -0.192 NA
ATOM     36  H   UNL     1      13.018   4.399  -0.360  0.00  0.00    +0.148 HD
BRANCH  11   1
ATOM      1  S   UNL     1      14.795   4.193   1.163  0.00  0.00    +0.027 S 
ATOM      4  O   UNL     1      15.143   3.065   2.005  0.00  0.00    -0.158 OA
ATOM      5  O   UNL     1      14.950   5.553   1.643  0.00  0.00    -0.158 OA
ATOM     25  C   UNL     1      15.725   4.055  -0.348  0.00  0.00    +0.214 C 
ENDBRANCH  11   1
ENDBRANCH  16  11
ENDBRANCH  14  16
ENDBRANCH  10  12
BRANCH  10  17
ATOM     17  C   UNL     1       9.831   8.985   4.457  0.00  0.00    +0.120 C 
BRANCH  17  19
ATOM     19  C   UNL     1      10.145   9.663   5.764  0.00  0.00    -0.033 A 
ATOM     21  C   UNL     1      11.355   9.408   6.410  0.00  0.00    +0.006 A 
ATOM     22  C   UNL     1       9.226  10.546   6.330  0.00  0.00    +0.006 A 
ATOM     26  C   UNL     1      11.646  10.036   7.621  0.00  0.00    +0.015 A 
ATOM     27  C   UNL     1       9.517  11.174   7.541  0.00  0.00    +0.015 A 
ATOM     30  C   UNL     1      10.726  10.919   8.187  0.00  0.00    +0.059 A 
BRANCH  30  32
ATOM      8  O   UNL     1      12.145  11.579   9.986  0.00  0.00    -0.245 OA
ATOM     32  C   UNL     1      11.029  11.575   9.449  0.00  0.00    +0.339 C 
BRANCH  32   6
ATOM      6  O   UNL     1       9.926  12.190   9.974  0.00  0.00    -0.464 OA
ATOM     34  C   UNL     1       9.559  11.831  11.310  0.00  0.00    +0.280 C 
ENDBRANCH  32   6
ENDBRANCH  30  32
ENDBRANCH  17  19
ENDBRANCH  10  17
BRANCH  10  18
ATOM     18  C   UNL     1       9.160   6.699   4.765  0.00  0.00    +0.120 C 
BRANCH  18  20
ATOM     20  C   UNL     1       9.221   6.214   6.189  0.00  0.00    -0.033 A 
ATOM     23  C   UNL     1       8.696   6.998   7.216  0.00  0.00    +0.006 A 
ATOM     24  C   UNL     1       9.803   4.979   6.481  0.00  0.00    +0.006 A 
ATOM     28  C   UNL     1       8.753   6.548   8.535  0.00  0.00    +0.015 A 
ATOM     29  C   UNL     1       9.858   4.530   7.800  0.00  0.00    +0.015 A 
ATOM     31  C   UNL     1       9.334   5.315   8.828  0.00  0.00    +0.059 A 
BRANCH  31  33
ATOM      9  O   UNL     1      10.424   4.561  10.819  0.00  0.00    -0.245 OA
ATOM     33  C   UNL     1       9.392   4.845  10.202  0.00  0.00    +0.337 C 
BRANCH  33   7
ATOM      7  O   UNL     1       8.159   4.744  10.770  0.00  0.00    -0.477 OA
ATOM     37  H   UNL     1       7.456   5.099  10.182  0.00  0.00    +0.295 HD
ENDBRANCH  33   7
ENDBRANCH  31  33
ENDBRANCH  18  20
ENDBRANCH  10  18
TORSDOF 13
ENDMDL
MODEL 4
REMARK VINA RESULT:      -6.3     27.632     29.542
REMARK  Name = 75536457
REMARK  15 active torsions:
REMARK  status: ('A' for Active; 'I' for Inactive)
REMARK    1  A    between atoms: S_1  and  N_11
REMARK    2  A    between atoms: S_1  and  C_25
REMARK    3  A    between atoms: O_3  and  C_13
REMARK    4  A    between atoms: O_6  and  C_32
REMARK    5  A    between atoms: O_6  and  C_34
REMARK    6  A    between atoms: O_7  and  C_33
REMARK    7  A    between atoms: N_10  and  C_12
REMARK    8  A    between atoms: N_10  and  C_17
REMARK    9  A    between atoms: N_10  and  C_18
REMARK   10  A    between atoms: N_11  and  C_16
REMARK   11  A    between atoms: C_14  and  C_16
REMARK   12  A    between atoms: C_17  and  C_19
REMARK   13  A    between atoms: C_18  and  C_20
REMARK   14  A    between atoms: C_30  and  C_32
REMARK   15  A    between atoms: C_31  and  C_33
REMARK                            x       y       z     vdW  Elec       q    Type
REMARK                         _______ _______ _______ _____ _____    ______ ____
ROOT
ATOM     10  N   UNL     1      -2.867 -11.338  14.560  0.00  0.00    -0.286 NA
ENDROOT
BRANCH  10  12
ATOM      2  O   UNL     1      -1.363 -14.419  13.348  0.00  0.00    -0.371 OA
ATOM     12  C   UNL     1      -2.375 -12.703  14.640  0.00  0.00    +0.114 C 
ATOM     13  C   UNL     1      -3.421 -13.748  14.300  0.00  0.00    +0.164 C 
ATOM     14  C   UNL     1      -2.542 -14.948  13.977  0.00  0.00    +0.164 C 
ATOM     15  C   UNL     1      -1.300 -13.007  13.611  0.00  0.00    +0.181 C 
BRANCH  13   3
ATOM      3  O   UNL     1      -4.300 -14.012  15.376  0.00  0.00    -0.388 OA
ATOM     35  H   UNL     1      -3.788 -14.416  16.097  0.00  0.00    +0.210 HD
ENDBRANCH  13   3
BRANCH  14  16
ATOM     16  C   UNL     1      -3.211 -15.951  13.052  0.00  0.00    +0.139 C 
BRANCH  16  11
ATOM     11  N   UNL     1      -2.783 -15.704  11.661  0.00  0.00    -0.192 NA
ATOM     36  H   UNL     1      -2.294 -16.503  11.237  0.00  0.00    +0.148 HD
BRANCH  11   1
ATOM      1  S   UNL     1      -3.801 -14.808  10.626  0.00  0.00    +0.027 S 
ATOM      4  O   UNL     1      -3.815 -15.410   9.307  0.00  0.00    -0.158 OA
ATOM      5  O   UNL     1      -3.503 -13.399  10.795  0.00  0.00    -0.158 OA
ATOM     25  C   UNL     1      -5.383 -15.110  11.382  0.00  0.00    +0.214 C 
ENDBRANCH  11   1
ENDBRANCH  16  11
ENDBRANCH  14  16
ENDBRANCH  10  12
BRANCH  10  17
ATOM     17  C   UNL     1      -2.722 -10.654  15.848  0.00  0.00    +0.120 C 
BRANCH  17  19
ATOM     19  C   UNL     1      -4.007 -10.657  16.633  0.00  0.00    -0.033 A 
ATOM     21  C   UNL     1      -4.071 -11.309  17.865  0.00  0.00    +0.006 A 
ATOM     22  C   UNL     1      -5.134 -10.008  16.128  0.00  0.00    +0.006 A 
ATOM     26  C   UNL     1      -5.262 -11.311  18.592  0.00  0.00    +0.015 A 
ATOM     27  C   UNL     1      -6.324 -10.010  16.856  0.00  0.00    +0.015 A 
ATOM     30  C   UNL     1      -6.388 -10.662  18.087  0.00  0.00    +0.059 A 
BRANCH  30  32
ATOM      8  O   UNL     1      -7.725 -11.004  20.031  0.00  0.00    -0.245 OA
ATOM     32  C   UNL     1      -7.630 -10.663  18.845  0.00  0.00    +0.339 C 
BRANCH  32   6
ATOM      6  O   UNL     1      -8.685 -10.238  18.085  0.00  0.00    -0.464 OA
ATOM     34  C   UNL     1      -9.975 -10.248  18.704  0.00  0.00    +0.280 C 
ENDBRANCH  32   6
ENDBRANCH  30  32
ENDBRANCH  17  19
ENDBRANCH  10  17
BRANCH  10  18
ATOM     18  C   UNL     1      -2.164 -10.592  13.512  0.00  0.00    +0.120 C 
BRANCH  18  20
ATOM     20  C   UNL     1      -3.070 -10.258  12.357  0.00  0.00    -0.033 A 
ATOM     23  C   UNL     1      -4.454 -10.347  12.507  0.00  0.00    +0.006 A 
ATOM     24  C   UNL     1      -2.525  -9.860  11.135  0.00  0.00    +0.006 A 
ATOM     28  C   UNL     1      -5.293 -10.039  11.437  0.00  0.00    +0.015 A 
ATOM     29  C   UNL     1      -3.365  -9.551  10.066  0.00  0.00    +0.015 A 
ATOM     31  C   UNL     1      -4.749  -9.640  10.216  0.00  0.00    +0.059 A 
BRANCH  31  33
ATOM      9  O   UNL     1      -6.858  -9.356   9.123  0.00  0.00    -0.245 OA
ATOM     33  C   UNL     1      -5.624  -9.317   9.100  0.00  0.00    +0.337 C 
BRANCH  33   7
ATOM      7  O   UNL     1      -4.932  -8.953   7.986  0.00  0.00    -0.477 OA
ATOM     37  H   UNL     1      -5.529  -8.786   7.224  0.00  0.00    +0.295 HD
ENDBRANCH  33   7
ENDBRANCH  31  33
ENDBRANCH  18  20
ENDBRANCH  10  18
TORSDOF 13
ENDMDL
MODEL 5
REMARK VINA RESULT:      -6.3     12.546     17.311
REMARK  Name = 75536457
REMARK  15 active torsions:
REMARK  status: ('A' for Active; 'I' for Inactive)
REMARK    1  A    between atoms: S_1  and  N_11
REMARK    2  A    between atoms: S_1  and  C_25
REMARK    3  A    between atoms: O_3  and  C_13
REMARK    4  A    between atoms: O_6  and  C_32
REMARK    5  A    between atoms: O_6  and  C_34
REMARK    6  A    between atoms: O_7  and  C_33
REMARK    7  A    between atoms: N_10  and  C_12
REMARK    8  A    between atoms: N_10  and  C_17
REMARK    9  A    between atoms: N_10  and  C_18
REMARK   10  A    between atoms: N_11  and  C_16
REMARK   11  A    between atoms: C_14  and  C_16
REMARK   12  A    between atoms: C_17  and  C_19
REMARK   13  A    between atoms: C_18  and  C_20
REMARK   14  A    between atoms: C_30  and  C_32
REMARK   15  A    between atoms: C_31  and  C_33
REMARK                            x       y       z     vdW  Elec       q    Type
REMARK                         _______ _______ _______ _____ _____    ______ ____
ROOT
ATOM     10  N   UNL     1      10.469   6.756   4.157  0.00  0.00    -0.286 NA
ENDROOT
BRANCH  10  12
ATOM      2  O   UNL     1      12.559   9.625   4.949  0.00  0.00    -0.371 OA
ATOM     12  C   UNL     1      11.179   7.694   5.011  0.00  0.00    +0.114 C 
ATOM     13  C   UNL     1      12.612   7.287   5.301  0.00  0.00    +0.164 C 
ATOM     14  C   UNL     1      13.211   8.616   5.739  0.00  0.00    +0.164 C 
ATOM     15  C   UNL     1      11.377   9.053   4.363  0.00  0.00    +0.181 C 
BRANCH  13   3
ATOM      3  O   UNL     1      12.707   6.306   6.315  0.00  0.00    -0.388 OA
ATOM     35  H   UNL     1      13.399   5.671   6.062  0.00  0.00    +0.210 HD
ENDBRANCH  13   3
BRANCH  14  16
ATOM     16  C   UNL     1      14.714   8.695   5.534  0.00  0.00    +0.139 C 
BRANCH  16  11
ATOM     11  N   UNL     1      15.147   7.614   4.626  0.00  0.00    -0.192 NA
ATOM     36  H   UNL     1      14.614   6.743   4.747  0.00  0.00    +0.148 HD
BRANCH  11   1
ATOM      1  S   UNL     1      15.602   8.005   3.029  0.00  0.00    +0.027 S 
ATOM      4  O   UNL     1      17.048   8.008   2.916  0.00  0.00    -0.158 OA
ATOM      5  O   UNL     1      14.822   9.147   2.595  0.00  0.00    -0.158 OA
ATOM     25  C   UNL     1      14.989   6.580   2.156  0.00  0.00    +0.214 C 
ENDBRANCH  11   1
ENDBRANCH  16  11
ENDBRANCH  14  16
ENDBRANCH  10  12
BRANCH  10  17
ATOM     17  C   UNL     1      11.237   5.520   3.988  0.00  0.00    +0.120 C 
BRANCH  17  19
ATOM     19  C   UNL     1      11.231   5.047   2.559  0.00  0.00    -0.033 A 
ATOM     21  C   UNL     1      12.235   4.193   2.102  0.00  0.00    +0.006 A 
ATOM     22  C   UNL     1      10.221   5.462   1.691  0.00  0.00    +0.006 A 
ATOM     26  C   UNL     1      12.230   3.754   0.778  0.00  0.00    +0.015 A 
ATOM     27  C   UNL     1      10.216   5.024   0.366  0.00  0.00    +0.015 A 
ATOM     30  C   UNL     1      11.221   4.170  -0.090  0.00  0.00    +0.059 A 
BRANCH  30  32
ATOM      8  O   UNL     1      12.136   3.081  -2.003  0.00  0.00    -0.245 OA
ATOM     32  C   UNL     1      11.213   3.713  -1.471  0.00  0.00    +0.339 C 
BRANCH  32   6
ATOM      6  O   UNL     1      10.058   4.066  -2.113  0.00  0.00    -0.464 OA
ATOM     34  C   UNL     1      10.196   4.746  -3.365  0.00  0.00    +0.280 C 
ENDBRANCH  32   6
ENDBRANCH  30  32
ENDBRANCH  17  19
ENDBRANCH  10  17
BRANCH  10  18
ATOM     18  C   UNL     1       9.143   6.454   4.705  0.00  0.00    +0.120 C 
BRANCH  18  20
ATOM     20  C   UNL     1       9.214   6.038   6.150  0.00  0.00    -0.033 A 
ATOM     23  C   UNL     1       8.857   6.937   7.154  0.00  0.00    +0.006 A 
ATOM     24  C   UNL     1       9.640   4.751   6.485  0.00  0.00    +0.006 A 
ATOM     28  C   UNL     1       8.924   6.551   8.493  0.00  0.00    +0.015 A 
ATOM     29  C   UNL     1       9.707   4.366   7.823  0.00  0.00    +0.015 A 
ATOM     31  C   UNL     1       9.349   5.266   8.828  0.00  0.00    +0.059 A 
BRANCH  31  33
ATOM      9  O   UNL     1      10.456   4.622  10.849  0.00  0.00    -0.245 OA
ATOM     33  C   UNL     1       9.418   4.862  10.223  0.00  0.00    +0.337 C 
BRANCH  33   7
ATOM      7  O   UNL     1       8.188   4.770  10.799  0.00  0.00    -0.477 OA
ATOM     37  H   UNL     1       7.518   4.418  10.174  0.00  0.00    +0.295 HD
ENDBRANCH  33   7
ENDBRANCH  31  33
ENDBRANCH  18  20
ENDBRANCH  10  18
TORSDOF 13
ENDMDL
MODEL 6
REMARK VINA RESULT:      -6.3     27.677     29.852
REMARK  Name = 75536457
REMARK  15 active torsions:
REMARK  status: ('A' for Active; 'I' for Inactive)
REMARK    1  A    between atoms: S_1  and  N_11
REMARK    2  A    between atoms: S_1  and  C_25
REMARK    3  A    between atoms: O_3  and  C_13
REMARK    4  A    between atoms: O_6  and  C_32
REMARK    5  A    between atoms: O_6  and  C_34
REMARK    6  A    between atoms: O_7  and  C_33
REMARK    7  A    between atoms: N_10  and  C_12
REMARK    8  A    between atoms: N_10  and  C_17
REMARK    9  A    between atoms: N_10  and  C_18
REMARK   10  A    between atoms: N_11  and  C_16
REMARK   11  A    between atoms: C_14  and  C_16
REMARK   12  A    between atoms: C_17  and  C_19
REMARK   13  A    between atoms: C_18  and  C_20
REMARK   14  A    between atoms: C_30  and  C_32
REMARK   15  A    between atoms: C_31  and  C_33
REMARK                            x       y       z     vdW  Elec       q    Type
REMARK                         _______ _______ _______ _____ _____    ______ ____
ROOT
ATOM     10  N   UNL     1      -2.738 -11.372  14.514  0.00  0.00    -0.286 NA
ENDROOT
BRANCH  10  12
ATOM      2  O   UNL     1      -1.426 -14.565  13.367  0.00  0.00    -0.371 OA
ATOM     12  C   UNL     1      -2.261 -12.740  14.637  0.00  0.00    +0.114 C 
ATOM     13  C   UNL     1      -3.355 -13.781  14.489  0.00  0.00    +0.164 C 
ATOM     14  C   UNL     1      -2.537 -15.021  14.158  0.00  0.00    +0.164 C 
ATOM     15  C   UNL     1      -1.312 -13.139  13.520  0.00  0.00    +0.181 C 
BRANCH  13   3
ATOM      3  O   UNL     1      -4.113 -13.949  15.671  0.00  0.00    -0.388 OA
ATOM     35  H   UNL     1      -3.766 -14.722  16.149  0.00  0.00    +0.210 HD
ENDBRANCH  13   3
BRANCH  14  16
ATOM     16  C   UNL     1      -3.319 -16.070  13.387  0.00  0.00    +0.139 C 
BRANCH  16  11
ATOM     11  N   UNL     1      -4.649 -15.535  13.034  0.00  0.00    -0.192 NA
ATOM     36  H   UNL     1      -4.708 -15.194  12.066  0.00  0.00    +0.148 HD
BRANCH  11   1
ATOM      1  S   UNL     1      -6.042 -16.306  13.647  0.00  0.00    +0.027 S 
ATOM      4  O   UNL     1      -5.754 -16.884  14.946  0.00  0.00    -0.158 OA
ATOM      5  O   UNL     1      -6.626 -17.109  12.591  0.00  0.00    -0.158 OA
ATOM     25  C   UNL     1      -7.108 -14.904  13.899  0.00  0.00    +0.214 C 
ENDBRANCH  11   1
ENDBRANCH  16  11
ENDBRANCH  14  16
ENDBRANCH  10  12
BRANCH  10  17
ATOM     17  C   UNL     1      -2.585 -10.650  15.780  0.00  0.00    +0.120 C 
BRANCH  17  19
ATOM     19  C   UNL     1      -3.858 -10.653  16.585  0.00  0.00    -0.033 A 
ATOM     21  C   UNL     1      -5.002 -10.035  16.082  0.00  0.00    +0.006 A 
ATOM     22  C   UNL     1      -3.892 -11.274  17.833  0.00  0.00    +0.006 A 
ATOM     26  C   UNL     1      -6.182 -10.037  16.827  0.00  0.00    +0.015 A 
ATOM     27  C   UNL     1      -5.071 -11.276  18.578  0.00  0.00    +0.015 A 
ATOM     30  C   UNL     1      -6.216 -10.658  18.076  0.00  0.00    +0.059 A 
BRANCH  30  32
ATOM      8  O   UNL     1      -7.510 -10.941  20.058  0.00  0.00    -0.245 OA
ATOM     32  C   UNL     1      -7.445 -10.662  18.853  0.00  0.00    +0.339 C 
BRANCH  32   6
ATOM      6  O   UNL     1      -8.526 -10.319  18.089  0.00  0.00    -0.464 OA
ATOM     34  C   UNL     1      -9.812 -10.399  18.713  0.00  0.00    +0.280 C 
ENDBRANCH  32   6
ENDBRANCH  30  32
ENDBRANCH  17  19
ENDBRANCH  10  17
BRANCH  10  18
ATOM     18  C   UNL     1      -2.026 -10.667  13.443  0.00  0.00    +0.120 C 
BRANCH  18  20
ATOM     20  C   UNL     1      -2.956 -10.241  12.338  0.00  0.00    -0.033 A 
ATOM     23  C   UNL     1      -2.436  -9.772  11.132  0.00  0.00    +0.006 A 
ATOM     24  C   UNL     1      -4.337 -10.314  12.521  0.00  0.00    +0.006 A 
ATOM     28  C   UNL     1      -3.297  -9.376  10.108  0.00  0.00    +0.015 A 
ATOM     29  C   UNL     1      -5.198  -9.919  11.498  0.00  0.00    +0.015 A 
ATOM     31  C   UNL     1      -4.678  -9.450  10.291  0.00  0.00    +0.059 A 
BRANCH  31  33
ATOM      9  O   UNL     1      -6.766  -8.738   9.365  0.00  0.00    -0.245 OA
ATOM     33  C   UNL     1      -5.576  -9.039   9.224  0.00  0.00    +0.337 C 
BRANCH  33   7
ATOM      7  O   UNL     1      -4.963  -9.014   8.009  0.00  0.00    -0.477 OA
ATOM     37  H   UNL     1      -5.379  -9.641   7.378  0.00  0.00    +0.295 HD
ENDBRANCH  33   7
ENDBRANCH  31  33
ENDBRANCH  18  20
ENDBRANCH  10  18
TORSDOF 13
ENDMDL
MODEL 7
REMARK VINA RESULT:      -6.3     11.123     14.017
REMARK  Name = 75536457
REMARK  15 active torsions:
REMARK  status: ('A' for Active; 'I' for Inactive)
REMARK    1  A    between atoms: S_1  and  N_11
REMARK    2  A    between atoms: S_1  and  C_25
REMARK    3  A    between atoms: O_3  and  C_13
REMARK    4  A    between atoms: O_6  and  C_32
REMARK    5  A    between atoms: O_6  and  C_34
REMARK    6  A    between atoms: O_7  and  C_33
REMARK    7  A    between atoms: N_10  and  C_12
REMARK    8  A    between atoms: N_10  and  C_17
REMARK    9  A    between atoms: N_10  and  C_18
REMARK   10  A    between atoms: N_11  and  C_16
REMARK   11  A    between atoms: C_14  and  C_16
REMARK   12  A    between atoms: C_17  and  C_19
REMARK   13  A    between atoms: C_18  and  C_20
REMARK   14  A    between atoms: C_30  and  C_32
REMARK   15  A    between atoms: C_31  and  C_33
REMARK                            x       y       z     vdW  Elec       q    Type
REMARK                         _______ _______ _______ _____ _____    ______ ____
ROOT
ATOM     10  N   UNL     1      10.618   7.433   4.621  0.00  0.00    -0.286 NA
ENDROOT
BRANCH  10  12
ATOM      2  O   UNL     1      12.583   5.346   2.382  0.00  0.00    -0.371 OA
ATOM     12  C   UNL     1      11.275   7.060   3.379  0.00  0.00    +0.114 C 
ATOM     13  C   UNL     1      12.717   7.525   3.291  0.00  0.00    +0.164 C 
ATOM     14  C   UNL     1      13.257   6.604   2.206  0.00  0.00    +0.164 C 
ATOM     15  C   UNL     1      11.434   5.557   3.221  0.00  0.00    +0.181 C 
BRANCH  13   3
ATOM      3  O   UNL     1      12.830   8.888   2.930  0.00  0.00    -0.388 OA
ATOM     35  H   UNL     1      13.629   8.995   2.386  0.00  0.00    +0.210 HD
ENDBRANCH  13   3
BRANCH  14  16
ATOM     16  C   UNL     1      14.759   6.396   2.287  0.00  0.00    +0.139 C 
BRANCH  16  11
ATOM     11  N   UNL     1      15.219   6.639   3.668  0.00  0.00    -0.192 NA
ATOM     36  H   UNL     1      15.495   5.780   4.162  0.00  0.00    +0.148 HD
BRANCH  11   1
ATOM      1  S   UNL     1      16.147   8.031   4.001  0.00  0.00    +0.027 S 
ATOM      4  O   UNL     1      15.781   9.097   3.089  0.00  0.00    -0.158 OA
ATOM      5  O   UNL     1      17.533   7.633   4.159  0.00  0.00    -0.158 OA
ATOM     25  C   UNL     1      15.530   8.457   5.615  0.00  0.00    +0.214 C 
ENDBRANCH  11   1
ENDBRANCH  16  11
ENDBRANCH  14  16
ENDBRANCH  10  12
BRANCH  10  17
ATOM     17  C   UNL     1      10.214   8.841   4.594  0.00  0.00    +0.120 C 
BRANCH  17  19
ATOM     19  C   UNL     1      10.471   9.524   5.911  0.00  0.00    -0.033 A 
ATOM     21  C   UNL     1      11.687   9.337   6.568  0.00  0.00    +0.006 A 
ATOM     22  C   UNL     1       9.493  10.343   6.474  0.00  0.00    +0.006 A 
ATOM     26  C   UNL     1      11.925   9.969   7.789  0.00  0.00    +0.015 A 
ATOM     27  C   UNL     1       9.731  10.976   7.695  0.00  0.00    +0.015 A 
ATOM     30  C   UNL     1      10.947  10.789   8.352  0.00  0.00    +0.059 A 
BRANCH  30  32
ATOM      8  O   UNL     1      12.286  11.928   9.963  0.00  0.00    -0.245 OA
ATOM     32  C   UNL     1      11.195  11.449   9.624  0.00  0.00    +0.339 C 
BRANCH  32   6
ATOM      6  O   UNL     1      10.071  11.479  10.404  0.00  0.00    -0.464 OA
ATOM     34  C   UNL     1       9.725  12.737  10.992  0.00  0.00    +0.280 C 
ENDBRANCH  32   6
ENDBRANCH  30  32
ENDBRANCH  17  19
ENDBRANCH  10  17
BRANCH  10  18
ATOM     18  C   UNL     1       9.452   6.579   4.869  0.00  0.00    +0.120 C 
BRANCH  18  20
ATOM     20  C   UNL     1       9.413   6.082   6.289  0.00  0.00    -0.033 A 
ATOM     23  C   UNL     1       8.931   6.907   7.305  0.00  0.00    +0.006 A 
ATOM     24  C   UNL     1       9.861   4.794   6.590  0.00  0.00    +0.006 A 
ATOM     28  C   UNL     1       8.895   6.446   8.621  0.00  0.00    +0.015 A 
ATOM     29  C   UNL     1       9.825   4.334   7.905  0.00  0.00    +0.015 A 
ATOM     31  C   UNL     1       9.342   5.160   8.922  0.00  0.00    +0.059 A 
BRANCH  31  33
ATOM      9  O   UNL     1      10.276   4.262  10.933  0.00  0.00    -0.245 OA
ATOM     33  C   UNL     1       9.304   4.678  10.293  0.00  0.00    +0.337 C 
BRANCH  33   7
ATOM      7  O   UNL     1       8.054   4.730  10.828  0.00  0.00    -0.477 OA
ATOM     37  H   UNL     1       7.454   5.298  10.298  0.00  0.00    +0.295 HD
ENDBRANCH  33   7
ENDBRANCH  31  33
ENDBRANCH  18  20
ENDBRANCH  10  18
TORSDOF 13
ENDMDL
MODEL 8
REMARK VINA RESULT:      -6.1     13.976     18.248
REMARK  Name = 75536457
REMARK  15 active torsions:
REMARK  status: ('A' for Active; 'I' for Inactive)
REMARK    1  A    between atoms: S_1  and  N_11
REMARK    2  A    between atoms: S_1  and  C_25
REMARK    3  A    between atoms: O_3  and  C_13
REMARK    4  A    between atoms: O_6  and  C_32
REMARK    5  A    between atoms: O_6  and  C_34
REMARK    6  A    between atoms: O_7  and  C_33
REMARK    7  A    between atoms: N_10  and  C_12
REMARK    8  A    between atoms: N_10  and  C_17
REMARK    9  A    between atoms: N_10  and  C_18
REMARK   10  A    between atoms: N_11  and  C_16
REMARK   11  A    between atoms: C_14  and  C_16
REMARK   12  A    between atoms: C_17  and  C_19
REMARK   13  A    between atoms: C_18  and  C_20
REMARK   14  A    between atoms: C_30  and  C_32
REMARK   15  A    between atoms: C_31  and  C_33
REMARK                            x       y       z     vdW  Elec       q    Type
REMARK                         _______ _______ _______ _____ _____    ______ ____
ROOT
ATOM     10  N   UNL     1       8.003   9.138   3.755  0.00  0.00    -0.286 NA
ENDROOT
BRANCH  10  12
ATOM      2  O   UNL     1       4.794  10.680   3.011  0.00  0.00    -0.371 OA
ATOM     12  C   UNL     1       7.078  10.032   3.078  0.00  0.00    +0.114 C 
ATOM     13  C   UNL     1       6.425   9.418   1.853  0.00  0.00    +0.164 C 
ATOM     14  C   UNL     1       5.213  10.323   1.682  0.00  0.00    +0.164 C 
ATOM     15  C   UNL     1       5.864  10.379   3.923  0.00  0.00    +0.181 C 
BRANCH  13   3
ATOM      3  O   UNL     1       7.266   9.444   0.715  0.00  0.00    -0.388 OA
ATOM     35  H   UNL     1       7.546   8.533   0.522  0.00  0.00    +0.210 HD
ENDBRANCH  13   3
BRANCH  14  16
ATOM     16  C   UNL     1       4.065   9.656   0.945  0.00  0.00    +0.139 C 
BRANCH  16  11
ATOM     11  N   UNL     1       4.590   8.904  -0.212  0.00  0.00    -0.192 NA
ATOM     36  H   UNL     1       4.301   7.917  -0.221  0.00  0.00    +0.148 HD
BRANCH  11   1
ATOM      1  S   UNL     1       4.684   9.676  -1.731  0.00  0.00    +0.027 S 
ATOM      4  O   UNL     1       6.020  10.202  -1.934  0.00  0.00    -0.158 OA
ATOM      5  O   UNL     1       3.520  10.528  -1.886  0.00  0.00    -0.158 OA
ATOM     25  C   UNL     1       4.472   8.285  -2.819  0.00  0.00    +0.214 C 
ENDBRANCH  11   1
ENDBRANCH  16  11
ENDBRANCH  14  16
ENDBRANCH  10  12
BRANCH  10  17
ATOM     17  C   UNL     1       9.379   9.378   3.311  0.00  0.00    +0.120 C 
BRANCH  17  19
ATOM     19  C   UNL     1      10.110   8.093   3.027  0.00  0.00    -0.033 A 
ATOM     21  C   UNL     1       9.592   7.186   2.103  0.00  0.00    +0.006 A 
ATOM     22  C   UNL     1      11.305   7.810   3.688  0.00  0.00    +0.006 A 
ATOM     26  C   UNL     1      10.269   5.994   1.840  0.00  0.00    +0.015 A 
ATOM     27  C   UNL     1      11.982   6.618   3.425  0.00  0.00    +0.015 A 
ATOM     30  C   UNL     1      11.464   5.711   2.501  0.00  0.00    +0.059 A 
BRANCH  30  32
ATOM      8  O   UNL     1      11.672   3.342   2.335  0.00  0.00    -0.245 OA
ATOM     32  C   UNL     1      12.171   4.470   2.227  0.00  0.00    +0.339 C 
BRANCH  32   6
ATOM      6  O   UNL     1      13.460   4.702   1.831  0.00  0.00    -0.464 OA
ATOM     34  C   UNL     1      14.166   3.601   1.249  0.00  0.00    +0.280 C 
ENDBRANCH  32   6
ENDBRANCH  30  32
ENDBRANCH  17  19
ENDBRANCH  10  17
BRANCH  10  18
ATOM     18  C   UNL     1       7.908   9.295   5.209  0.00  0.00    +0.120 C 
BRANCH  18  20
ATOM     20  C   UNL     1       8.437   8.089   5.939  0.00  0.00    -0.033 A 
ATOM     23  C   UNL     1       8.195   6.810   5.440  0.00  0.00    +0.006 A 
ATOM     24  C   UNL     1       9.168   8.252   7.117  0.00  0.00    +0.006 A 
ATOM     28  C   UNL     1       8.685   5.693   6.116  0.00  0.00    +0.015 A 
ATOM     29  C   UNL     1       9.658   7.135   7.793  0.00  0.00    +0.015 A 
ATOM     31  C   UNL     1       9.416   5.854   7.293  0.00  0.00    +0.059 A 
BRANCH  31  33
ATOM      9  O   UNL     1      10.154   4.630   9.211  0.00  0.00    -0.245 OA
ATOM     33  C   UNL     1       9.928   4.690   7.998  0.00  0.00    +0.337 C 
BRANCH  33   7
ATOM      7  O   UNL     1      10.141   3.633   7.169  0.00  0.00    -0.477 OA
ATOM     37  H   UNL     1       9.943   3.856   6.233  0.00  0.00    +0.295 HD
ENDBRANCH  33   7
ENDBRANCH  31  33
ENDBRANCH  18  20
ENDBRANCH  10  18
TORSDOF 13
ENDMDL
MODEL 9
REMARK VINA RESULT:      -6.1     27.708     29.687
REMARK  Name = 75536457
REMARK  15 active torsions:
REMARK  status: ('A' for Active; 'I' for Inactive)
REMARK    1  A    between atoms: S_1  and  N_11
REMARK    2  A    between atoms: S_1  and  C_25
REMARK    3  A    between atoms: O_3  and  C_13
REMARK    4  A    between atoms: O_6  and  C_32
REMARK    5  A    between atoms: O_6  and  C_34
REMARK    6  A    between atoms: O_7  and  C_33
REMARK    7  A    between atoms: N_10  and  C_12
REMARK    8  A    between atoms: N_10  and  C_17
REMARK    9  A    between atoms: N_10  and  C_18
REMARK   10  A    between atoms: N_11  and  C_16
REMARK   11  A    between atoms: C_14  and  C_16
REMARK   12  A    between atoms: C_17  and  C_19
REMARK   13  A    between atoms: C_18  and  C_20
REMARK   14  A    between atoms: C_30  and  C_32
REMARK   15  A    between atoms: C_31  and  C_33
REMARK                            x       y       z     vdW  Elec       q    Type
REMARK                         _______ _______ _______ _____ _____    ______ ____
ROOT
ATOM     10  N   UNL     1      -3.712 -11.663  13.974  0.00  0.00    -0.286 NA
ENDROOT
BRANCH  10  12
ATOM      2  O   UNL     1      -1.930  -9.736  11.457  0.00  0.00    -0.371 OA
ATOM     12  C   UNL     1      -3.093 -11.402  12.685  0.00  0.00    +0.114 C 
ATOM     13  C   UNL     1      -4.038 -10.785  11.671  0.00  0.00    +0.164 C 
ATOM     14  C   UNL     1      -3.052 -10.185  10.679  0.00  0.00    +0.164 C 
ATOM     15  C   UNL     1      -1.998 -10.352  12.755  0.00  0.00    +0.181 C 
BRANCH  13   3
ATOM      3  O   UNL     1      -4.885 -11.740  11.061  0.00  0.00    -0.388 OA
ATOM     35  H   UNL     1      -4.381 -12.562  10.940  0.00  0.00    +0.210 HD
ENDBRANCH  13   3
BRANCH  14  16
ATOM     16  C   UNL     1      -3.627  -9.021   9.889  0.00  0.00    +0.139 C 
BRANCH  16  11
ATOM     11  N   UNL     1      -5.003  -8.744  10.347  0.00  0.00    -0.192 NA
ATOM     36  H   UNL     1      -5.076  -7.903  10.933  0.00  0.00    +0.148 HD
BRANCH  11   1
ATOM      1  S   UNL     1      -6.305  -9.038   9.284  0.00  0.00    +0.027 S 
ATOM      4  O   UNL     1      -6.905  -7.780   8.881  0.00  0.00    -0.158 OA
ATOM      5  O   UNL     1      -7.119 -10.103   9.837  0.00  0.00    -0.158 OA
ATOM     25  C   UNL     1      -5.439  -9.705   7.881  0.00  0.00    +0.214 C 
ENDBRANCH  11   1
ENDBRANCH  16  11
ENDBRANCH  14  16
ENDBRANCH  10  12
BRANCH  10  17
ATOM     17  C   UNL     1      -3.595 -13.079  14.332  0.00  0.00    +0.120 C 
BRANCH  17  19
ATOM     19  C   UNL     1      -4.848 -13.598  14.986  0.00  0.00    -0.033 A 
ATOM     21  C   UNL     1      -4.758 -14.471  16.070  0.00  0.00    +0.006 A 
ATOM     22  C   UNL     1      -6.097 -13.206  14.507  0.00  0.00    +0.006 A 
ATOM     26  C   UNL     1      -5.920 -14.953  16.676  0.00  0.00    +0.015 A 
ATOM     27  C   UNL     1      -7.259 -13.688  15.114  0.00  0.00    +0.015 A 
ATOM     30  C   UNL     1      -7.169 -14.561  16.198  0.00  0.00    +0.059 A 
BRANCH  30  32
ATOM      8  O   UNL     1      -8.673 -16.259  16.930  0.00  0.00    -0.245 OA
ATOM     32  C   UNL     1      -8.380 -15.060  16.829  0.00  0.00    +0.339 C 
BRANCH  32   6
ATOM      6  O   UNL     1      -9.161 -14.041  17.301  0.00  0.00    -0.464 OA
ATOM     34  C   UNL     1      -8.801 -13.484  18.570  0.00  0.00    +0.280 C 
ENDBRANCH  32   6
ENDBRANCH  30  32
ENDBRANCH  17  19
ENDBRANCH  10  17
BRANCH  10  18
ATOM     18  C   UNL     1      -3.110 -10.828  15.019  0.00  0.00    +0.120 C 
BRANCH  18  20
ATOM     20  C   UNL     1      -3.933 -10.826  16.279  0.00  0.00    -0.033 A 
ATOM     23  C   UNL     1      -5.186 -10.215  16.292  0.00  0.00    +0.006 A 
ATOM     24  C   UNL     1      -3.440 -11.434  17.435  0.00  0.00    +0.006 A 
ATOM     28  C   UNL     1      -5.949 -10.212  17.460  0.00  0.00    +0.015 A 
ATOM     29  C   UNL     1      -4.203 -11.432  18.602  0.00  0.00    +0.015 A 
ATOM     31  C   UNL     1      -5.457 -10.820  18.616  0.00  0.00    +0.059 A 
BRANCH  31  33
ATOM      9  O   UNL     1      -5.901 -11.294  20.918  0.00  0.00    -0.245 OA
ATOM     33  C   UNL     1      -6.252 -10.819  19.833  0.00  0.00    +0.337 C 
BRANCH  33   7
ATOM      7  O   UNL     1      -7.464 -10.224  19.662  0.00  0.00    -0.477 OA
ATOM     37  H   UNL     1      -8.031 -10.724  19.036  0.00  0.00    +0.295 HD
ENDBRANCH  33   7
ENDBRANCH  31  33
ENDBRANCH  18  20
ENDBRANCH  10  18
TORSDOF 13
ENDMDL
MODEL 10
REMARK VINA RESULT:      -6.0     21.228     24.757
REMARK  Name = 75536457
REMARK  15 active torsions:
REMARK  status: ('A' for Active; 'I' for Inactive)
REMARK    1  A    between atoms: S_1  and  N_11
REMARK    2  A    between atoms: S_1  and  C_25
REMARK    3  A    between atoms: O_3  and  C_13
REMARK    4  A    between atoms: O_6  and  C_32
REMARK    5  A    between atoms: O_6  and  C_34
REMARK    6  A    between atoms: O_7  and  C_33
REMARK    7  A    between atoms: N_10  and  C_12
REMARK    8  A    between atoms: N_10  and  C_17
REMARK    9  A    between atoms: N_10  and  C_18
REMARK   10  A    between atoms: N_11  and  C_16
REMARK   11  A    between atoms: C_14  and  C_16
REMARK   12  A    between atoms: C_17  and  C_19
REMARK   13  A    between atoms: C_18  and  C_20
REMARK   14  A    between atoms: C_30  and  C_32
REMARK   15  A    between atoms: C_31  and  C_33
REMARK                            x       y       z     vdW  Elec       q    Type
REMARK                         _______ _______ _______ _____ _____    ______ ____
ROOT
ATOM     10  N   UNL     1      -1.903  10.224   4.032  0.00  0.00    -0.286 NA
ENDROOT
BRANCH  10  12
ATOM      2  O   UNL     1      -0.053  12.241   6.427  0.00  0.00    -0.371 OA
ATOM     12  C   UNL     1      -1.433  11.445   4.666  0.00  0.00    +0.114 C 
ATOM     13  C   UNL     1      -2.313  11.913   5.811  0.00  0.00    +0.164 C 
ATOM     14  C   UNL     1      -1.357  12.833   6.557  0.00  0.00    +0.164 C 
ATOM     15  C   UNL     1      -0.096  11.272   5.365  0.00  0.00    +0.181 C 
BRANCH  13   3
ATOM      3  O   UNL     1      -3.467  12.599   5.368  0.00  0.00    -0.388 OA
ATOM     35  H   UNL     1      -3.969  12.889   6.149  0.00  0.00    +0.210 HD
ENDBRANCH  13   3
BRANCH  14  16
ATOM     16  C   UNL     1      -1.702  12.993   8.028  0.00  0.00    +0.139 C 
BRANCH  16  11
ATOM     11  N   UNL     1      -2.349  11.761   8.521  0.00  0.00    -0.192 NA
ATOM     36  H   UNL     1      -1.718  11.160   9.068  0.00  0.00    +0.148 HD
BRANCH  11   1
ATOM      1  S   UNL     1      -3.970  11.830   9.049  0.00  0.00    +0.027 S 
ATOM      4  O   UNL     1      -4.458  10.490   9.318  0.00  0.00    -0.158 OA
ATOM      5  O   UNL     1      -4.702  12.723   8.172  0.00  0.00    -0.158 OA
ATOM     25  C   UNL     1      -3.772  12.662  10.609  0.00  0.00    +0.214 C 
ENDBRANCH  11   1
ENDBRANCH  16  11
ENDBRANCH  14  16
ENDBRANCH  10  12
BRANCH  10  17
ATOM     17  C   UNL     1      -1.026   9.842   2.922  0.00  0.00    +0.120 C 
BRANCH  17  19
ATOM     19  C   UNL     1      -1.745   9.880   1.599  0.00  0.00    -0.033 A 
ATOM     21  C   UNL     1      -3.073  10.302   1.539  0.00  0.00    +0.006 A 
ATOM     22  C   UNL     1      -1.083   9.494   0.435  0.00  0.00    +0.006 A 
ATOM     26  C   UNL     1      -3.739  10.338   0.314  0.00  0.00    +0.015 A 
ATOM     27  C   UNL     1      -1.749   9.529  -0.791  0.00  0.00    +0.015 A 
ATOM     30  C   UNL     1      -3.077   9.951  -0.851  0.00  0.00    +0.059 A 
BRANCH  30  32
ATOM      8  O   UNL     1      -3.281  10.430  -3.178  0.00  0.00    -0.245 OA
ATOM     32  C   UNL     1      -3.770   9.989  -2.129  0.00  0.00    +0.339 C 
BRANCH  32   6
ATOM      6  O   UNL     1      -5.034   9.474  -2.033  0.00  0.00    -0.464 OA
ATOM     34  C   UNL     1      -6.073  10.177  -2.723  0.00  0.00    +0.280 C 
ENDBRANCH  32   6
ENDBRANCH  30  32
ENDBRANCH  17  19
ENDBRANCH  10  17
BRANCH  10  18
ATOM     18  C   UNL     1      -1.989   9.132   5.005  0.00  0.00    +0.120 C 
BRANCH  18  20
ATOM     20  C   UNL     1      -3.301   8.400   4.913  0.00  0.00    -0.033 A 
ATOM     23  C   UNL     1      -3.380   7.058   5.287  0.00  0.00    +0.006 A 
ATOM     24  C   UNL     1      -4.439   9.064   4.452  0.00  0.00    +0.006 A 
ATOM     28  C   UNL     1      -4.596   6.380   5.201  0.00  0.00    +0.015 A 
ATOM     29  C   UNL     1      -5.655   8.385   4.367  0.00  0.00    +0.015 A 
ATOM     31  C   UNL     1      -5.734   7.043   4.740  0.00  0.00    +0.059 A 
BRANCH  31  33
ATOM      9  O   UNL     1      -7.785   6.389   3.697  0.00  0.00    -0.245 OA
ATOM     33  C   UNL     1      -7.001   6.337   4.652  0.00  0.00    +0.337 C 
BRANCH  33   7
ATOM      7  O   UNL     1      -7.256   5.585   5.757  0.00  0.00    -0.477 OA
ATOM     37  H   UNL     1      -7.927   6.006   6.338  0.00  0.00    +0.295 HD
ENDBRANCH  33   7
ENDBRANCH  31  33
ENDBRANCH  18  20
ENDBRANCH  10  18
TORSDOF 13
ENDMDL
