REMARK  Name = 7142730
REMARK  5 active torsions:
REMARK  status: ('A' for Active; 'I' for Inactive)
REMARK    1  A    between atoms: O_4  and  C_21
REMARK    2  A    between atoms: O_4  and  C_23
REMARK    3  A    between atoms: N_8  and  C_19
REMARK    4  A    between atoms: C_18  and  C_21
REMARK    5  A    between atoms: C_22  and  C_24
REMARK                            x       y       z     vdW  Elec       q    Type
REMARK                         _______ _______ _______ _____ _____    ______ ____
ROOT
ATOM      2  O   UNL     1       2.385   1.849   1.661  0.00  0.00    -0.266 OA
ATOM      3  O   UNL     1      -2.860   0.878   2.134  0.00  0.00    -0.272 OA
ATOM      6  N   UNL     1      -2.429   2.190   0.265  0.00  0.00    -0.298 N 
ATOM      7  N   UNL     1       0.751   2.491   0.119  0.00  0.00    -0.310 N 
ATOM      9  C   UNL     1      -1.046   4.235   0.651  0.00  0.00    +0.027 C 
ATOM     10  C   UNL     1      -1.019   3.142  -1.551  0.00  0.00    +0.054 C 
ATOM     11  C   UNL     1      -1.036   4.498  -0.850  0.00  0.00    +0.018 C 
ATOM     12  C   UNL     1      -2.289   3.420   1.048  0.00  0.00    +0.113 C 
ATOM     13  C   UNL     1       0.257   3.524   1.039  0.00  0.00    +0.130 C 
ATOM     14  C   UNL     1      -2.295   2.356  -1.190  0.00  0.00    +0.117 C 
ATOM     15  C   UNL     1       0.208   2.339  -1.160  0.00  0.00    +0.027 A 
ATOM     16  C   UNL     1       0.751   1.468  -2.026  0.00  0.00    +0.024 A 
ATOM     17  C   UNL     1       1.862   1.738   0.552  0.00  0.00    +0.273 A 
ATOM     18  C   UNL     1      -2.753   0.996   0.910  0.00  0.00    +0.253 C 
ATOM     19  C   UNL     1       2.422   0.760  -0.434  0.00  0.00    +0.099 A 
ATOM     20  C   UNL     1       1.880   0.663  -1.653  0.00  0.00    +0.030 A 
ENDROOT
BRANCH  19   8
ATOM      5  O   UNL     1       3.079  -1.842  -1.406  0.00  0.00    -0.269 OA
ATOM      8  N   UNL     1       3.489   0.003  -0.049  0.00  0.00    -0.277 N 
ATOM     22  C   UNL     1       3.755  -1.260  -0.561  0.00  0.00    +0.255 C 
ATOM     33  H   UNL     1       3.996   0.305   0.779  0.00  0.00    +0.155 HD
BRANCH  22  24
ATOM      1  S   UNL     1       5.887  -1.080   1.103  0.00  0.00    -0.092 S 
ATOM     24  C   UNL     1       4.977  -1.923  -0.036  0.00  0.00    +0.074 A 
ATOM     27  C   UNL     1       5.442  -3.135  -0.373  0.00  0.00    +0.021 A 
ATOM     30  C   UNL     1       6.639  -3.417   0.347  0.00  0.00    +0.008 A 
ATOM     32  C   UNL     1       6.994  -2.384   1.186  0.00  0.00    +0.046 A 
ENDBRANCH  22  24
ENDBRANCH  19   8
BRANCH  18  21
ATOM     21  C   UNL     1      -2.972  -0.208   0.031  0.00  0.00    +0.324 C 
BRANCH  21   4
ATOM      4  O   UNL     1      -3.248  -1.289   0.890  0.00  0.00    -0.483 OA
BRANCH   4  23
ATOM     23  C   UNL     1      -4.025  -2.311   0.392  0.00  0.00    +0.121 A 
ATOM     25  C   UNL     1      -3.988  -2.596  -0.965  0.00  0.00    +0.045 A 
ATOM     26  C   UNL     1      -4.831  -3.036   1.256  0.00  0.00    +0.045 A 
ATOM     28  C   UNL     1      -4.776  -3.630  -1.470  0.00  0.00    +0.004 A 
ATOM     29  C   UNL     1      -5.619  -4.071   0.751  0.00  0.00    +0.004 A 
ATOM     31  C   UNL     1      -5.591  -4.368  -0.612  0.00  0.00    +0.000 A 
ENDBRANCH   4  23
ENDBRANCH  21   4
ENDBRANCH  18  21
TORSDOF 5
