REMARK  Name = 11867111
REMARK  10 active torsions:
REMARK  status: ('A' for Active; 'I' for Inactive)
REMARK    1  A    between atoms: S_1  and  C_27
REMARK    2  A    between atoms: S_1  and  C_29
REMARK    3  A    between atoms: O_5  and  C_23
REMARK    4  A    between atoms: O_5  and  C_28
REMARK    5  A    between atoms: N_8  and  C_11
REMARK    6  A    between atoms: CA_14  and  CB_17
REMARK    7  A    between atoms: CB_17  and  CG_18
REMARK    8  A    between atoms: CG_18  and  CD1_20
REMARK    9  A    between atoms: CG_18  and  CD2_21
REMARK   10  A    between atoms: C_19  and  C_22
REMARK                            x       y       z     vdW  Elec       q    Type
REMARK                         _______ _______ _______ _____ _____    ______ ____
ROOT
ATOM      2  O   LEU A   2       3.293  -0.428  -2.864  0.00  0.00    -0.274 OA
ATOM      3  O   UNK A   1       3.798  -0.825   2.443  0.00  0.00    -0.274 OA
ATOM      6  N   UNK A   1       2.385  -1.115  -0.824  0.00  0.00    -0.288 N 
ATOM      7  N   LEU A   2       4.582  -0.149   0.407  0.00  0.00    -0.302 N 
ATOM      9  C   UNK A   1       2.225  -0.756   0.595  0.00  0.00    +0.164 C 
ATOM     10  C   UNK A   1       1.411  -1.786   1.400  0.00  0.00    +0.054 C 
ATOM     11  C   UNK A   1       0.148  -2.261   0.692  0.00  0.00    +0.077 C 
ATOM     12  C   UNK A   1       0.512  -2.782  -0.694  0.00  0.00    +0.041 C 
ATOM     13  C   UNK A   1       1.258  -1.742  -1.516  0.00  0.00    +0.110 C 
ATOM     14  CA  LEU A   2       4.305   0.434  -0.885  0.00  0.00    +0.159 C 
ATOM     15  C   LEU A   2       3.315  -0.438  -1.631  0.00  0.00    +0.237 C 
ATOM     16  C   UNK A   1       3.600  -0.626   1.245  0.00  0.00    +0.234 C 
ATOM     30  H   LEU A   2       5.540  -0.151   0.742  0.00  0.00    +0.150 HD
ENDROOT
BRANCH  11   8
ATOM      4  O   UNK A   1      -2.700  -2.620   0.738  0.00  0.00    -0.270 OA
ATOM      8  N   UNK A   1      -0.852  -1.222   0.640  0.00  0.00    -0.308 N 
ATOM     19  C   UNK A   1      -2.212  -1.495   0.668  0.00  0.00    +0.248 C 
ATOM     31  H   UNK A   1      -0.528  -0.277   0.466  0.00  0.00    +0.149 HD
BRANCH  19  22
ATOM     22  C   UNK A   1      -3.113  -0.317   0.581  0.00  0.00    +0.078 A 
ATOM     23  C   UNK A   1      -4.357  -0.446  -0.004  0.00  0.00    +0.133 A 
ATOM     24  C   UNK A   1      -2.665   0.882   1.097  0.00  0.00    +0.018 A 
ATOM     25  C   UNK A   1      -5.188   0.672  -0.076  0.00  0.00    +0.061 A 
ATOM     26  C   UNK A   1      -3.495   2.001   1.024  0.00  0.00    +0.015 A 
ATOM     27  C   UNK A   1      -4.757   1.895   0.438  0.00  0.00    +0.011 A 
BRANCH  27   1
ATOM      1  S   UNK A   1      -5.818   3.325   0.347  0.00  0.00    -0.128 S 
ATOM     29  C   UNK A   1      -6.055   3.494  -1.445  0.00  0.00    +0.090 C 
ENDBRANCH  27   1
BRANCH  23   5
ATOM      5  O   UNK A   1      -4.795  -1.633  -0.511  0.00  0.00    -0.494 OA
ATOM     28  C   UNK A   1      -4.504  -1.898  -1.881  0.00  0.00    +0.277 C 
ENDBRANCH  23   5
ENDBRANCH  19  22
ENDBRANCH  11   8
BRANCH  14  17
ATOM     17  CB  LEU A   2       3.825   1.875  -0.787  0.00  0.00    +0.034 C 
BRANCH  17  18
ATOM     18  CG  LEU A   2       4.762   2.782   0.031  0.00  0.00    -0.015 C 
ATOM     20  CD1 LEU A   2       4.978   2.265   1.454  0.00  0.00    +0.007 C 
ATOM     21  CD2 LEU A   2       6.110   2.913  -0.682  0.00  0.00    +0.007 C 
ENDBRANCH  17  18
ENDBRANCH  14  17
TORSDOF 6
