REMARK  Name = 75536798
REMARK  9 active torsions:
REMARK  status: ('A' for Active; 'I' for Inactive)
REMARK    1  A    between atoms: S_1  and  C_20
REMARK    2  A    between atoms: S_1  and  C_24
REMARK    3  A    between atoms: O_3  and  C_11
REMARK    4  A    between atoms: N_7  and  C_10
REMARK    5  A    between atoms: N_7  and  C_15
REMARK    6  A    between atoms: N_8  and  C_14
REMARK    7  A    between atoms: C_12  and  C_14
REMARK    8  A    between atoms: C_15  and  C_16
REMARK    9  A    between atoms: C_17  and  C_23
REMARK                            x       y       z     vdW  Elec       q    Type
REMARK                         _______ _______ _______ _____ _____    ______ ____
ROOT
ATOM      2  O   UNL     1       4.434   0.548   0.993  0.00  0.00    -0.371 OA
ATOM     10  C   UNL     1       3.264  -1.500   0.787  0.00  0.00    +0.111 C 
ATOM     11  C   UNL     1       3.982  -1.238  -0.525  0.00  0.00    +0.164 C 
ATOM     12  C   UNL     1       4.525   0.184  -0.397  0.00  0.00    +0.165 C 
ATOM     13  C   UNL     1       4.029  -0.602   1.745  0.00  0.00    +0.181 C 
ENDROOT
BRANCH  11   3
ATOM      3  O   UNL     1       5.080  -2.151  -0.610  0.00  0.00    -0.388 OA
ATOM     30  H   UNL     1       5.553  -1.959  -1.438  0.00  0.00    +0.210 HD
ENDBRANCH  11   3
BRANCH  10   7
ATOM      7  N   UNL     1       1.858  -1.105   0.719  0.00  0.00    -0.305 NA
ATOM     29  H   UNL     1       1.530  -0.873   1.657  0.00  0.00    +0.123 HD
BRANCH   7  15
ATOM     15  C   UNL     1       1.034  -2.188   0.196  0.00  0.00    +0.116 C 
BRANCH  15  16
ATOM     16  C   UNL     1      -0.416  -1.794   0.104  0.00  0.00    -0.033 A 
ATOM     18  C   UNL     1      -1.201  -1.748   1.256  0.00  0.00    +0.007 A 
ATOM     19  C   UNL     1      -0.976  -1.476  -1.134  0.00  0.00    +0.007 A 
ATOM     20  C   UNL     1      -3.104  -1.065  -0.066  0.00  0.00    +0.088 A 
ATOM     21  C   UNL     1      -2.544  -1.383   1.171  0.00  0.00    +0.027 A 
ATOM     22  C   UNL     1      -2.319  -1.112  -1.219  0.00  0.00    +0.027 A 
BRANCH  20   1
ATOM      1  S   UNL     1      -4.785  -0.605  -0.172  0.00  0.00    -0.006 S 
ATOM      5  O   UNL     1      -5.214  -0.085   1.120  0.00  0.00    -0.170 OA
ATOM      6  O   UNL     1      -4.953   0.206  -1.369  0.00  0.00    -0.170 OA
ATOM     24  C   UNL     1      -5.648  -2.139  -0.425  0.00  0.00    +0.200 C 
ENDBRANCH  20   1
ENDBRANCH  15  16
ENDBRANCH   7  15
ENDBRANCH  10   7
BRANCH  12  14
ATOM     14  C   UNL     1       3.747   1.208  -1.210  0.00  0.00    +0.138 C 
BRANCH  14   8
ATOM      4  O   UNL     1       1.065   0.909  -2.192  0.00  0.00    -0.270 OA
ATOM      8  N   UNL     1       2.540   1.599  -0.539  0.00  0.00    -0.309 N 
ATOM     17  C   UNL     1       1.277   1.415  -1.093  0.00  0.00    +0.244 C 
ATOM     31  H   UNL     1       2.648   2.096   0.339  0.00  0.00    +0.149 HD
BRANCH  17  23
ATOM      9  N   UNL     1      -2.029   2.812   1.241  0.00  0.00    -0.263 NA
ATOM     23  C   UNL     1       0.129   1.898  -0.283  0.00  0.00    +0.040 A 
ATOM     25  C   UNL     1      -1.051   2.287  -0.907  0.00  0.00    +0.033 A 
ATOM     26  C   UNL     1       0.232   1.966   1.102  0.00  0.00    +0.033 A 
ATOM     27  C   UNL     1      -2.091   2.732  -0.107  0.00  0.00    +0.111 A 
ATOM     28  C   UNL     1      -0.866   2.426   1.812  0.00  0.00    +0.111 A 
ENDBRANCH  17  23
ENDBRANCH  14   8
ENDBRANCH  12  14
TORSDOF 8
