MODEL 1
REMARK VINA RESULT:      -6.9      0.000      0.000
REMARK  Name = 45783345
REMARK  9 active torsions:
REMARK  status: ('A' for Active; 'I' for Inactive)
REMARK    1  A    between atoms: O_4  and  C_26
REMARK    2  A    between atoms: O_4  and  C_28
REMARK    3  A    between atoms: O_5  and  C_29
REMARK    4  A    between atoms: O_5  and  C_30
REMARK    5  A    between atoms: N_6  and  C_14
REMARK    6  A    between atoms: C_10  and  C_15
REMARK    7  A    between atoms: C_14  and  C_16
REMARK    8  A    between atoms: C_19  and  C_22
REMARK    9  A    between atoms: C_28  and  C_29
REMARK                            x       y       z     vdW  Elec       q    Type
REMARK                         _______ _______ _______ _____ _____    ______ ____
ROOT
ATOM      3  O   UNL     1      -4.102 -11.480  17.885  0.00  0.00    -0.336 OA
ATOM      7  N   UNL     1      -5.398 -10.616  16.276  0.00  0.00    -0.190 NA
ATOM      8  N   UNL     1      -5.335 -11.198  18.486  0.00  0.00    -0.056 NA
ATOM     15  C   UNL     1      -4.225 -11.106  16.584  0.00  0.00    +0.245 A 
ATOM     19  C   UNL     1      -6.045 -10.691  17.474  0.00  0.00    +0.202 A 
ENDROOT
BRANCH  19  22
ATOM      9  N   UNL     1     -10.046  -9.397  17.927  0.00  0.00    -0.221 NA
ATOM     22  C   UNL     1      -7.402 -10.253  17.627  0.00  0.00    +0.029 A 
ATOM     24  C   UNL     1      -7.814  -9.048  17.068  0.00  0.00    +0.079 A 
ATOM     25  C   UNL     1      -8.311 -11.030  18.337  0.00  0.00    +0.031 A 
ATOM     26  C   UNL     1      -9.135  -8.668  17.244  0.00  0.00    +0.215 A 
ATOM     27  C   UNL     1      -9.610 -10.562  18.457  0.00  0.00    +0.115 A 
BRANCH  26   4
ATOM      4  O   UNL     1      -9.564  -7.486  16.703  0.00  0.00    -0.474 OA
BRANCH   4  28
ATOM     28  C   UNL     1     -10.968  -7.334  16.530  0.00  0.00    +0.258 C 
BRANCH  28  29
ATOM     29  C   UNL     1     -11.245  -5.992  15.880  0.00  0.00    +0.200 C 
BRANCH  29   5
ATOM      5  O   UNL     1     -11.921  -6.204  14.647  0.00  0.00    -0.380 OA
ATOM     30  C   UNL     1     -12.839  -7.285  14.735  0.00  0.00    +0.194 C 
ENDBRANCH  29   5
ENDBRANCH  28  29
ENDBRANCH   4  28
ENDBRANCH  26   4
ENDBRANCH  19  22
BRANCH  15  10
ATOM      6  N   UNL     1      -3.085 -10.552  14.442  0.00  0.00    -0.287 NA
ATOM     10  C   UNL     1      -3.008 -11.312  15.705  0.00  0.00    +0.146 C 
ATOM     11  C   UNL     1      -1.706 -10.833  16.372  0.00  0.00    +0.030 C 
ATOM     12  C   UNL     1      -1.091  -9.853  15.383  0.00  0.00    +0.017 C 
ATOM     13  C   UNL     1      -1.707 -10.250  14.057  0.00  0.00    +0.085 C 
BRANCH   6  14
ATOM     14  C   UNL     1      -3.807 -11.258  13.390  0.00  0.00    +0.120 C 
BRANCH  14  16
ATOM      1  F   UNL     1      -3.419  -8.826   9.177  0.00  0.00    -0.202 F 
ATOM      2  F   UNL     1      -5.892  -7.716   9.536  0.00  0.00    -0.202 F 
ATOM     16  C   UNL     1      -4.364 -10.312  12.361  0.00  0.00    -0.030 A 
ATOM     17  C   UNL     1      -3.619 -10.001  11.224  0.00  0.00    +0.046 A 
ATOM     18  C   UNL     1      -5.626  -9.745  12.544  0.00  0.00    +0.008 A 
ATOM     20  C   UNL     1      -4.135  -9.124  10.269  0.00  0.00    +0.159 A 
ATOM     21  C   UNL     1      -6.142  -8.869  11.589  0.00  0.00    +0.041 A 
ATOM     23  C   UNL     1      -5.397  -8.559  10.452  0.00  0.00    +0.158 A 
ENDBRANCH  14  16
ENDBRANCH   6  14
ENDBRANCH  15  10
TORSDOF 8
ENDMDL
MODEL 2
REMARK VINA RESULT:      -6.7      2.539      2.984
REMARK  Name = 45783345
REMARK  9 active torsions:
REMARK  status: ('A' for Active; 'I' for Inactive)
REMARK    1  A    between atoms: O_4  and  C_26
REMARK    2  A    between atoms: O_4  and  C_28
REMARK    3  A    between atoms: O_5  and  C_29
REMARK    4  A    between atoms: O_5  and  C_30
REMARK    5  A    between atoms: N_6  and  C_14
REMARK    6  A    between atoms: C_10  and  C_15
REMARK    7  A    between atoms: C_14  and  C_16
REMARK    8  A    between atoms: C_19  and  C_22
REMARK    9  A    between atoms: C_28  and  C_29
REMARK                            x       y       z     vdW  Elec       q    Type
REMARK                         _______ _______ _______ _____ _____    ______ ____
ROOT
ATOM      3  O   UNL     1      -5.048  -9.743  15.998  0.00  0.00    -0.336 OA
ATOM      7  N   UNL     1      -5.129 -11.679  17.121  0.00  0.00    -0.190 NA
ATOM      8  N   UNL     1      -6.216  -9.698  16.770  0.00  0.00    -0.056 NA
ATOM     15  C   UNL     1      -4.469 -10.944  16.263  0.00  0.00    +0.245 A 
ATOM     19  C   UNL     1      -6.193 -10.874  17.404  0.00  0.00    +0.202 A 
ENDROOT
BRANCH  19  22
ATOM      9  N   UNL     1      -9.212 -12.054  20.121  0.00  0.00    -0.221 NA
ATOM     22  C   UNL     1      -7.217 -11.274  18.324  0.00  0.00    +0.029 A 
ATOM     24  C   UNL     1      -8.351 -10.487  18.494  0.00  0.00    +0.079 A 
ATOM     25  C   UNL     1      -7.079 -12.451  19.053  0.00  0.00    +0.031 A 
ATOM     26  C   UNL     1      -9.311 -10.918  19.396  0.00  0.00    +0.215 A 
ATOM     27  C   UNL     1      -8.096 -12.794  19.930  0.00  0.00    +0.115 A 
BRANCH  26   4
ATOM      4  O   UNL     1     -10.437 -10.160  19.581  0.00  0.00    -0.474 OA
BRANCH   4  28
ATOM     28  C   UNL     1     -11.591 -10.836  20.063  0.00  0.00    +0.258 C 
BRANCH  28  29
ATOM     29  C   UNL     1     -12.559  -9.818  20.635  0.00  0.00    +0.200 C 
BRANCH  29   5
ATOM      5  O   UNL     1     -13.801 -10.457  20.904  0.00  0.00    -0.380 OA
ATOM     30  C   UNL     1     -13.630 -11.601  21.729  0.00  0.00    +0.194 C 
ENDBRANCH  29   5
ENDBRANCH  28  29
ENDBRANCH   4  28
ENDBRANCH  26   4
ENDBRANCH  19  22
BRANCH  15  10
ATOM      6  N   UNL     1      -3.060 -10.524  14.256  0.00  0.00    -0.287 NA
ATOM     10  C   UNL     1      -3.171 -11.241  15.541  0.00  0.00    +0.146 C 
ATOM     11  C   UNL     1      -1.931 -10.803  16.343  0.00  0.00    +0.030 C 
ATOM     12  C   UNL     1      -1.154  -9.890  15.404  0.00  0.00    +0.017 C 
ATOM     13  C   UNL     1      -1.632 -10.304  14.028  0.00  0.00    +0.085 C 
BRANCH   6  14
ATOM     14  C   UNL     1      -3.690 -11.231  13.148  0.00  0.00    +0.120 C 
BRANCH  14  16
ATOM      1  F   UNL     1      -3.514  -8.698   8.980  0.00  0.00    -0.202 F 
ATOM      2  F   UNL     1      -6.009  -7.679   9.440  0.00  0.00    -0.202 F 
ATOM     16  C   UNL     1      -4.310 -10.282  12.158  0.00  0.00    -0.030 A 
ATOM     17  C   UNL     1      -3.611  -9.922  11.005  0.00  0.00    +0.046 A 
ATOM     18  C   UNL     1      -5.583  -9.762  12.392  0.00  0.00    +0.008 A 
ATOM     20  C   UNL     1      -4.185  -9.043  10.087  0.00  0.00    +0.159 A 
ATOM     21  C   UNL     1      -6.157  -8.883  11.474  0.00  0.00    +0.041 A 
ATOM     23  C   UNL     1      -5.458  -8.524  10.321  0.00  0.00    +0.158 A 
ENDBRANCH  14  16
ENDBRANCH   6  14
ENDBRANCH  15  10
TORSDOF 8
ENDMDL
MODEL 3
REMARK VINA RESULT:      -6.6      1.492      2.194
REMARK  Name = 45783345
REMARK  9 active torsions:
REMARK  status: ('A' for Active; 'I' for Inactive)
REMARK    1  A    between atoms: O_4  and  C_26
REMARK    2  A    between atoms: O_4  and  C_28
REMARK    3  A    between atoms: O_5  and  C_29
REMARK    4  A    between atoms: O_5  and  C_30
REMARK    5  A    between atoms: N_6  and  C_14
REMARK    6  A    between atoms: C_10  and  C_15
REMARK    7  A    between atoms: C_14  and  C_16
REMARK    8  A    between atoms: C_19  and  C_22
REMARK    9  A    between atoms: C_28  and  C_29
REMARK                            x       y       z     vdW  Elec       q    Type
REMARK                         _______ _______ _______ _____ _____    ______ ____
ROOT
ATOM      3  O   UNL     1      -4.673 -12.859  14.974  0.00  0.00    -0.336 OA
ATOM      7  N   UNL     1      -4.472 -11.372  16.636  0.00  0.00    -0.190 NA
ATOM      8  N   UNL     1      -5.855 -12.947  15.721  0.00  0.00    -0.056 NA
ATOM     15  C   UNL     1      -3.915 -11.909  15.582  0.00  0.00    +0.245 A 
ATOM     19  C   UNL     1      -5.661 -12.040  16.683  0.00  0.00    +0.202 A 
ENDROOT
BRANCH  19  22
ATOM      9  N   UNL     1      -8.528 -11.263  19.695  0.00  0.00    -0.221 NA
ATOM     22  C   UNL     1      -6.634 -11.777  17.703  0.00  0.00    +0.029 A 
ATOM     24  C   UNL     1      -7.697 -10.918  17.450  0.00  0.00    +0.079 A 
ATOM     25  C   UNL     1      -6.516 -12.380  18.952  0.00  0.00    +0.031 A 
ATOM     26  C   UNL     1      -8.610 -10.696  18.470  0.00  0.00    +0.215 A 
ATOM     27  C   UNL     1      -7.481 -12.093  19.904  0.00  0.00    +0.115 A 
BRANCH  26   4
ATOM      4  O   UNL     1      -9.666  -9.854  18.245  0.00  0.00    -0.474 OA
BRANCH   4  28
ATOM     28  C   UNL     1      -9.430  -8.749  17.381  0.00  0.00    +0.258 C 
BRANCH  28  29
ATOM     29  C   UNL     1     -10.747  -8.306  16.771  0.00  0.00    +0.200 C 
BRANCH  29   5
ATOM      5  O   UNL     1     -10.849  -6.891  16.864  0.00  0.00    -0.380 OA
ATOM     30  C   UNL     1     -10.575  -6.266  15.618  0.00  0.00    +0.194 C 
ENDBRANCH  29   5
ENDBRANCH  28  29
ENDBRANCH   4  28
ENDBRANCH  26   4
ENDBRANCH  19  22
BRANCH  15  10
ATOM      6  N   UNL     1      -2.645 -10.633  13.865  0.00  0.00    -0.287 NA
ATOM     10  C   UNL     1      -2.565 -11.622  14.957  0.00  0.00    +0.146 C 
ATOM     11  C   UNL     1      -1.563 -11.018  15.959  0.00  0.00    +0.030 C 
ATOM     12  C   UNL     1      -1.089  -9.724  15.314  0.00  0.00    +0.017 C 
ATOM     13  C   UNL     1      -1.357  -9.939  13.839  0.00  0.00    +0.085 C 
BRANCH   6  14
ATOM     14  C   UNL     1      -2.973 -11.227  12.575  0.00  0.00    +0.120 C 
BRANCH  14  16
ATOM      1  F   UNL     1      -7.003  -8.642  11.627  0.00  0.00    -0.202 F 
ATOM      2  F   UNL     1      -5.901  -7.684   9.316  0.00  0.00    -0.202 F 
ATOM     16  C   UNL     1      -3.755 -10.281  11.704  0.00  0.00    -0.030 A 
ATOM     17  C   UNL     1      -5.042  -9.893  12.076  0.00  0.00    +0.046 A 
ATOM     18  C   UNL     1      -3.193  -9.791  10.525  0.00  0.00    +0.008 A 
ATOM     20  C   UNL     1      -5.767  -9.015  11.269  0.00  0.00    +0.159 A 
ATOM     21  C   UNL     1      -3.917  -8.914   9.718  0.00  0.00    +0.041 A 
ATOM     23  C   UNL     1      -5.204  -8.525  10.091  0.00  0.00    +0.158 A 
ENDBRANCH  14  16
ENDBRANCH   6  14
ENDBRANCH  15  10
TORSDOF 8
ENDMDL
MODEL 4
REMARK VINA RESULT:      -6.6      1.329      1.602
REMARK  Name = 45783345
REMARK  9 active torsions:
REMARK  status: ('A' for Active; 'I' for Inactive)
REMARK    1  A    between atoms: O_4  and  C_26
REMARK    2  A    between atoms: O_4  and  C_28
REMARK    3  A    between atoms: O_5  and  C_29
REMARK    4  A    between atoms: O_5  and  C_30
REMARK    5  A    between atoms: N_6  and  C_14
REMARK    6  A    between atoms: C_10  and  C_15
REMARK    7  A    between atoms: C_14  and  C_16
REMARK    8  A    between atoms: C_19  and  C_22
REMARK    9  A    between atoms: C_28  and  C_29
REMARK                            x       y       z     vdW  Elec       q    Type
REMARK                         _______ _______ _______ _____ _____    ______ ____
ROOT
ATOM      3  O   UNL     1      -5.576  -9.494  16.026  0.00  0.00    -0.336 OA
ATOM      7  N   UNL     1      -6.245 -11.270  17.216  0.00  0.00    -0.190 NA
ATOM      8  N   UNL     1      -6.804  -9.140  16.598  0.00  0.00    -0.056 NA
ATOM     15  C   UNL     1      -5.321 -10.764  16.441  0.00  0.00    +0.245 A 
ATOM     19  C   UNL     1      -7.135 -10.238  17.284  0.00  0.00    +0.202 A 
ENDROOT
BRANCH  19  22
ATOM      9  N   UNL     1     -10.704 -10.526  19.536  0.00  0.00    -0.221 NA
ATOM     22  C   UNL     1      -8.345 -10.336  18.047  0.00  0.00    +0.029 A 
ATOM     24  C   UNL     1      -9.454  -9.574  17.698  0.00  0.00    +0.079 A 
ATOM     25  C   UNL     1      -8.414 -11.194  19.140  0.00  0.00    +0.031 A 
ATOM     26  C   UNL     1     -10.600  -9.704  18.468  0.00  0.00    +0.215 A 
ATOM     27  C   UNL     1      -9.606 -11.252  19.845  0.00  0.00    +0.115 A 
BRANCH  26   4
ATOM      4  O   UNL     1     -11.706  -8.963  18.144  0.00  0.00    -0.474 OA
BRANCH   4  28
ATOM     28  C   UNL     1     -12.221  -9.125  16.828  0.00  0.00    +0.258 C 
BRANCH  28  29
ATOM     29  C   UNL     1     -12.423  -7.757  16.204  0.00  0.00    +0.200 C 
BRANCH  29   5
ATOM      5  O   UNL     1     -11.431  -6.868  16.702  0.00  0.00    -0.380 OA
ATOM     30  C   UNL     1     -10.692  -6.269  15.646  0.00  0.00    +0.194 C 
ENDBRANCH  29   5
ENDBRANCH  28  29
ENDBRANCH   4  28
ENDBRANCH  26   4
ENDBRANCH  19  22
BRANCH  15  10
ATOM      6  N   UNL     1      -3.559 -10.795  14.684  0.00  0.00    -0.287 NA
ATOM     10  C   UNL     1      -4.029 -11.386  15.952  0.00  0.00    +0.146 C 
ATOM     11  C   UNL     1      -2.862 -11.182  16.936  0.00  0.00    +0.030 C 
ATOM     12  C   UNL     1      -1.761 -10.526  16.114  0.00  0.00    +0.017 C 
ATOM     13  C   UNL     1      -2.101 -10.912  14.689  0.00  0.00    +0.085 C 
BRANCH   6  14
ATOM     14  C   UNL     1      -4.154 -11.415  13.507  0.00  0.00    +0.120 C 
BRANCH  14  16
ATOM      1  F   UNL     1      -3.081  -8.902   9.463  0.00  0.00    -0.202 F 
ATOM      2  F   UNL     1      -5.485  -7.605   9.575  0.00  0.00    -0.202 F 
ATOM     16  C   UNL     1      -4.510 -10.397  12.457  0.00  0.00    -0.030 A 
ATOM     17  C   UNL     1      -3.613 -10.116  11.426  0.00  0.00    +0.046 A 
ATOM     18  C   UNL     1      -5.736  -9.735  12.513  0.00  0.00    +0.008 A 
ATOM     20  C   UNL     1      -3.942  -9.172  10.452  0.00  0.00    +0.159 A 
ATOM     21  C   UNL     1      -6.066  -8.792  11.539  0.00  0.00    +0.041 A 
ATOM     23  C   UNL     1      -5.169  -8.512  10.509  0.00  0.00    +0.158 A 
ENDBRANCH  14  16
ENDBRANCH   6  14
ENDBRANCH  15  10
TORSDOF 8
ENDMDL
MODEL 5
REMARK VINA RESULT:      -6.4      2.790      4.456
REMARK  Name = 45783345
REMARK  9 active torsions:
REMARK  status: ('A' for Active; 'I' for Inactive)
REMARK    1  A    between atoms: O_4  and  C_26
REMARK    2  A    between atoms: O_4  and  C_28
REMARK    3  A    between atoms: O_5  and  C_29
REMARK    4  A    between atoms: O_5  and  C_30
REMARK    5  A    between atoms: N_6  and  C_14
REMARK    6  A    between atoms: C_10  and  C_15
REMARK    7  A    between atoms: C_14  and  C_16
REMARK    8  A    between atoms: C_19  and  C_22
REMARK    9  A    between atoms: C_28  and  C_29
REMARK                            x       y       z     vdW  Elec       q    Type
REMARK                         _______ _______ _______ _____ _____    ______ ____
ROOT
ATOM      3  O   UNL     1      -5.210  -9.674  16.056  0.00  0.00    -0.336 OA
ATOM      7  N   UNL     1      -5.454 -11.626  17.125  0.00  0.00    -0.190 NA
ATOM      8  N   UNL     1      -6.409  -9.578  16.774  0.00  0.00    -0.056 NA
ATOM     15  C   UNL     1      -4.713 -10.911  16.318  0.00  0.00    +0.245 A 
ATOM     19  C   UNL     1      -6.484 -10.768  17.378  0.00  0.00    +0.202 A 
ENDROOT
BRANCH  19  22
ATOM      9  N   UNL     1      -9.694 -11.835  19.917  0.00  0.00    -0.221 NA
ATOM     22  C   UNL     1      -7.572 -11.129  18.239  0.00  0.00    +0.029 A 
ATOM     24  C   UNL     1      -7.511 -12.299  18.988  0.00  0.00    +0.079 A 
ATOM     25  C   UNL     1      -8.694 -10.311  18.328  0.00  0.00    +0.031 A 
ATOM     26  C   UNL     1      -8.588 -12.604  19.805  0.00  0.00    +0.215 A 
ATOM     27  C   UNL     1      -9.718 -10.705  19.174  0.00  0.00    +0.115 A 
BRANCH  26   4
ATOM      4  O   UNL     1      -8.552 -13.751  20.553  0.00  0.00    -0.474 OA
BRANCH   4  28
ATOM     28  C   UNL     1      -9.439 -14.794  20.167  0.00  0.00    +0.258 C 
BRANCH  28  29
ATOM     29  C   UNL     1      -9.876 -15.556  21.404  0.00  0.00    +0.200 C 
BRANCH  29   5
ATOM      5  O   UNL     1     -10.480 -14.649  22.318  0.00  0.00    -0.380 OA
ATOM     30  C   UNL     1     -10.228 -15.023  23.666  0.00  0.00    +0.194 C 
ENDBRANCH  29   5
ENDBRANCH  28  29
ENDBRANCH   4  28
ENDBRANCH  26   4
ENDBRANCH  19  22
BRANCH  15  10
ATOM      6  N   UNL     1      -3.206 -10.558  14.371  0.00  0.00    -0.287 NA
ATOM     10  C   UNL     1      -3.400 -11.266  15.650  0.00  0.00    +0.146 C 
ATOM     11  C   UNL     1      -2.177 -10.879  16.502  0.00  0.00    +0.030 C 
ATOM     12  C   UNL     1      -1.324 -10.004  15.596  0.00  0.00    +0.017 C 
ATOM     13  C   UNL     1      -1.761 -10.400  14.201  0.00  0.00    +0.085 C 
BRANCH   6  14
ATOM     14  C   UNL     1      -3.820 -11.240  13.238  0.00  0.00    +0.120 C 
BRANCH  14  16
ATOM      1  F   UNL     1      -3.355  -8.741   9.071  0.00  0.00    -0.202 F 
ATOM      2  F   UNL     1      -5.813  -7.600   9.426  0.00  0.00    -0.202 F 
ATOM     16  C   UNL     1      -4.353 -10.267  12.220  0.00  0.00    -0.030 A 
ATOM     17  C   UNL     1      -3.592  -9.948  11.095  0.00  0.00    +0.046 A 
ATOM     18  C   UNL     1      -5.607  -9.685  12.401  0.00  0.00    +0.008 A 
ATOM     20  C   UNL     1      -4.086  -9.048  10.151  0.00  0.00    +0.159 A 
ATOM     21  C   UNL     1      -6.101  -8.784  11.457  0.00  0.00    +0.041 A 
ATOM     23  C   UNL     1      -5.340  -8.467  10.332  0.00  0.00    +0.158 A 
ENDBRANCH  14  16
ENDBRANCH   6  14
ENDBRANCH  15  10
TORSDOF 8
ENDMDL
MODEL 6
REMARK VINA RESULT:      -6.3      3.173      5.759
REMARK  Name = 45783345
REMARK  9 active torsions:
REMARK  status: ('A' for Active; 'I' for Inactive)
REMARK    1  A    between atoms: O_4  and  C_26
REMARK    2  A    between atoms: O_4  and  C_28
REMARK    3  A    between atoms: O_5  and  C_29
REMARK    4  A    between atoms: O_5  and  C_30
REMARK    5  A    between atoms: N_6  and  C_14
REMARK    6  A    between atoms: C_10  and  C_15
REMARK    7  A    between atoms: C_14  and  C_16
REMARK    8  A    between atoms: C_19  and  C_22
REMARK    9  A    between atoms: C_28  and  C_29
REMARK                            x       y       z     vdW  Elec       q    Type
REMARK                         _______ _______ _______ _____ _____    ______ ____
ROOT
ATOM      3  O   UNL     1      -7.175 -10.775  11.497  0.00  0.00    -0.336 OA
ATOM      7  N   UNL     1      -6.006  -9.171  12.534  0.00  0.00    -0.190 NA
ATOM      8  N   UNL     1      -6.953 -11.236  12.801  0.00  0.00    -0.056 NA
ATOM     15  C   UNL     1      -6.584  -9.553  11.425  0.00  0.00    +0.245 A 
ATOM     19  C   UNL     1      -6.258 -10.236  13.350  0.00  0.00    +0.202 A 
ENDROOT
BRANCH  19  22
ATOM      9  N   UNL     1      -4.909 -10.329  17.358  0.00  0.00    -0.221 NA
ATOM     22  C   UNL     1      -5.801 -10.268  14.709  0.00  0.00    +0.029 A 
ATOM     24  C   UNL     1      -6.697 -10.063  15.752  0.00  0.00    +0.079 A 
ATOM     25  C   UNL     1      -4.459 -10.503  14.989  0.00  0.00    +0.031 A 
ATOM     26  C   UNL     1      -6.206 -10.103  17.048  0.00  0.00    +0.215 A 
ATOM     27  C   UNL     1      -4.067 -10.524  16.318  0.00  0.00    +0.115 A 
BRANCH  26   4
ATOM      4  O   UNL     1      -7.069  -9.905  18.092  0.00  0.00    -0.474 OA
BRANCH   4  28
ATOM     28  C   UNL     1      -8.412 -10.334  17.903  0.00  0.00    +0.258 C 
BRANCH  28  29
ATOM     29  C   UNL     1      -8.996 -10.737  19.243  0.00  0.00    +0.200 C 
BRANCH  29   5
ATOM      5  O   UNL     1      -8.001 -11.417  19.998  0.00  0.00    -0.380 OA
ATOM     30  C   UNL     1      -8.035 -12.818  19.762  0.00  0.00    +0.194 C 
ENDBRANCH  29   5
ENDBRANCH  28  29
ENDBRANCH   4  28
ENDBRANCH  26   4
ENDBRANCH  19  22
BRANCH  15  10
ATOM      6  N   UNL     1      -6.093  -9.605   8.986  0.00  0.00    -0.287 NA
ATOM     10  C   UNL     1      -6.685  -8.833  10.096  0.00  0.00    +0.146 C 
ATOM     11  C   UNL     1      -8.142  -8.581   9.666  0.00  0.00    +0.030 C 
ATOM     12  C   UNL     1      -8.257  -9.194   8.277  0.00  0.00    +0.017 C 
ATOM     13  C   UNL     1      -6.826  -9.222   7.779  0.00  0.00    +0.085 C 
BRANCH   6  14
ATOM     14  C   UNL     1      -4.657  -9.399   8.844  0.00  0.00    +0.120 C 
BRANCH  14  16
ATOM      1  F   UNL     1      -1.289  -9.640  12.367  0.00  0.00    -0.202 F 
ATOM      2  F   UNL     1      -1.728 -12.322  12.669  0.00  0.00    -0.202 F 
ATOM     16  C   UNL     1      -3.875 -10.180   9.866  0.00  0.00    -0.030 A 
ATOM     17  C   UNL     1      -2.926  -9.536  10.659  0.00  0.00    +0.046 A 
ATOM     18  C   UNL     1      -4.099 -11.548  10.020  0.00  0.00    +0.008 A 
ATOM     20  C   UNL     1      -2.201 -10.259  11.606  0.00  0.00    +0.159 A 
ATOM     21  C   UNL     1      -3.374 -12.272  10.967  0.00  0.00    +0.041 A 
ATOM     23  C   UNL     1      -2.426 -11.627  11.760  0.00  0.00    +0.158 A 
ENDBRANCH  14  16
ENDBRANCH   6  14
ENDBRANCH  15  10
TORSDOF 8
ENDMDL
MODEL 7
REMARK VINA RESULT:      -6.3      4.708      8.730
REMARK  Name = 45783345
REMARK  9 active torsions:
REMARK  status: ('A' for Active; 'I' for Inactive)
REMARK    1  A    between atoms: O_4  and  C_26
REMARK    2  A    between atoms: O_4  and  C_28
REMARK    3  A    between atoms: O_5  and  C_29
REMARK    4  A    between atoms: O_5  and  C_30
REMARK    5  A    between atoms: N_6  and  C_14
REMARK    6  A    between atoms: C_10  and  C_15
REMARK    7  A    between atoms: C_14  and  C_16
REMARK    8  A    between atoms: C_19  and  C_22
REMARK    9  A    between atoms: C_28  and  C_29
REMARK                            x       y       z     vdW  Elec       q    Type
REMARK                         _______ _______ _______ _____ _____    ______ ____
ROOT
ATOM      3  O   UNL     1      -6.287  -7.838   9.031  0.00  0.00    -0.336 OA
ATOM      7  N   UNL     1      -5.608  -9.966   9.180  0.00  0.00    -0.190 NA
ATOM      8  N   UNL     1      -5.382  -7.885  10.100  0.00  0.00    -0.056 NA
ATOM     15  C   UNL     1      -6.361  -9.105   8.547  0.00  0.00    +0.245 A 
ATOM     19  C   UNL     1      -5.026  -9.172  10.125  0.00  0.00    +0.202 A 
ENDROOT
BRANCH  19  22
ATOM      9  N   UNL     1      -2.272 -10.715  12.940  0.00  0.00    -0.221 NA
ATOM     22  C   UNL     1      -4.092  -9.696  11.079  0.00  0.00    +0.029 A 
ATOM     24  C   UNL     1      -4.542 -10.186  12.299  0.00  0.00    +0.079 A 
ATOM     25  C   UNL     1      -2.732  -9.714  10.787  0.00  0.00    +0.031 A 
ATOM     26  C   UNL     1      -3.600 -10.681  13.188  0.00  0.00    +0.215 A 
ATOM     27  C   UNL     1      -1.871 -10.230  11.743  0.00  0.00    +0.115 A 
BRANCH  26   4
ATOM      4  O   UNL     1      -4.019 -11.170  14.397  0.00  0.00    -0.474 OA
BRANCH   4  28
ATOM     28  C   UNL     1      -3.010 -11.656  15.274  0.00  0.00    +0.258 C 
BRANCH  28  29
ATOM     29  C   UNL     1      -3.025 -10.834  16.549  0.00  0.00    +0.200 C 
BRANCH  29   5
ATOM      5  O   UNL     1      -4.348 -10.369  16.786  0.00  0.00    -0.380 OA
ATOM     30  C   UNL     1      -4.855 -10.848  18.023  0.00  0.00    +0.194 C 
ENDBRANCH  29   5
ENDBRANCH  28  29
ENDBRANCH   4  28
ENDBRANCH  26   4
ENDBRANCH  19  22
BRANCH  15  10
ATOM      6  N   UNL     1      -8.212  -8.193   7.156  0.00  0.00    -0.287 NA
ATOM     10  C   UNL     1      -7.288  -9.324   7.368  0.00  0.00    +0.146 C 
ATOM     11  C   UNL     1      -6.529  -9.465   6.035  0.00  0.00    +0.030 C 
ATOM     12  C   UNL     1      -7.139  -8.414   5.119  0.00  0.00    +0.017 C 
ATOM     13  C   UNL     1      -8.505  -8.161   5.723  0.00  0.00    +0.085 C 
BRANCH   6  14
ATOM     14  C   UNL     1      -9.423  -8.282   7.961  0.00  0.00    +0.120 C 
BRANCH  14  16
ATOM      1  F   UNL     1     -12.678  -5.425  10.212  0.00  0.00    -0.202 F 
ATOM      2  F   UNL     1     -11.107  -3.227   9.794  0.00  0.00    -0.202 F 
ATOM     16  C   UNL     1      -9.872  -6.932   8.450  0.00  0.00    -0.030 A 
ATOM     17  C   UNL     1     -11.091  -6.802   9.117  0.00  0.00    +0.046 A 
ATOM     18  C   UNL     1      -9.071  -5.810   8.238  0.00  0.00    +0.008 A 
ATOM     20  C   UNL     1     -11.508  -5.550   9.571  0.00  0.00    +0.159 A 
ATOM     21  C   UNL     1      -9.488  -4.558   8.692  0.00  0.00    +0.041 A 
ATOM     23  C   UNL     1     -10.706  -4.429   9.359  0.00  0.00    +0.158 A 
ENDBRANCH  14  16
ENDBRANCH   6  14
ENDBRANCH  15  10
TORSDOF 8
ENDMDL
MODEL 8
REMARK VINA RESULT:      -6.3     23.563     26.573
REMARK  Name = 45783345
REMARK  9 active torsions:
REMARK  status: ('A' for Active; 'I' for Inactive)
REMARK    1  A    between atoms: O_4  and  C_26
REMARK    2  A    between atoms: O_4  and  C_28
REMARK    3  A    between atoms: O_5  and  C_29
REMARK    4  A    between atoms: O_5  and  C_30
REMARK    5  A    between atoms: N_6  and  C_14
REMARK    6  A    between atoms: C_10  and  C_15
REMARK    7  A    between atoms: C_14  and  C_16
REMARK    8  A    between atoms: C_19  and  C_22
REMARK    9  A    between atoms: C_28  and  C_29
REMARK                            x       y       z     vdW  Elec       q    Type
REMARK                         _______ _______ _______ _____ _____    ______ ____
ROOT
ATOM      3  O   UNL     1      12.441   2.881   1.790  0.00  0.00    -0.336 OA
ATOM      7  N   UNL     1      12.396   5.108   1.564  0.00  0.00    -0.190 NA
ATOM      8  N   UNL     1      11.450   3.341   2.667  0.00  0.00    -0.056 NA
ATOM     15  C   UNL     1      12.947   3.985   1.181  0.00  0.00    +0.245 A 
ATOM     19  C   UNL     1      11.483   4.664   2.476  0.00  0.00    +0.202 A 
ENDROOT
BRANCH  19  22
ATOM      9  N   UNL     1       8.933   7.326   4.550  0.00  0.00    -0.221 NA
ATOM     22  C   UNL     1      10.620   5.566   3.179  0.00  0.00    +0.029 A 
ATOM     24  C   UNL     1      10.522   5.504   4.565  0.00  0.00    +0.079 A 
ATOM     25  C   UNL     1       9.874   6.509   2.478  0.00  0.00    +0.031 A 
ATOM     26  C   UNL     1       9.673   6.398   5.198  0.00  0.00    +0.215 A 
ATOM     27  C   UNL     1       9.054   7.358   3.204  0.00  0.00    +0.115 A 
BRANCH  26   4
ATOM      4  O   UNL     1       9.560   6.356   6.562  0.00  0.00    -0.474 OA
BRANCH   4  28
ATOM     28  C   UNL     1      10.772   6.408   7.306  0.00  0.00    +0.258 C 
BRANCH  28  29
ATOM     29  C   UNL     1      10.534   5.816   8.682  0.00  0.00    +0.200 C 
BRANCH  29   5
ATOM      5  O   UNL     1       9.355   5.021   8.648  0.00  0.00    -0.380 OA
ATOM     30  C   UNL     1       9.002   4.558   9.944  0.00  0.00    +0.194 C 
ENDBRANCH  29   5
ENDBRANCH  28  29
ENDBRANCH   4  28
ENDBRANCH  26   4
ENDBRANCH  19  22
BRANCH  15  10
ATOM      6  N   UNL     1      13.637   4.084  -1.207  0.00  0.00    -0.287 NA
ATOM     10  C   UNL     1      14.051   3.752   0.170  0.00  0.00    +0.146 C 
ATOM     11  C   UNL     1      15.289   4.631   0.429  0.00  0.00    +0.030 C 
ATOM     12  C   UNL     1      15.529   5.372  -0.878  0.00  0.00    +0.017 C 
ATOM     13  C   UNL     1      14.848   4.502  -1.914  0.00  0.00    +0.085 C 
BRANCH   6  14
ATOM     14  C   UNL     1      12.960   2.984  -1.884  0.00  0.00    +0.120 C 
BRANCH  14  16
ATOM      1  F   UNL     1       9.276   2.366  -5.024  0.00  0.00    -0.202 F 
ATOM      2  F   UNL     1       8.005   4.578  -4.042  0.00  0.00    -0.202 F 
ATOM     16  C   UNL     1      11.636   3.411  -2.460  0.00  0.00    -0.030 A 
ATOM     17  C   UNL     1      11.058   2.676  -3.496  0.00  0.00    +0.046 A 
ATOM     18  C   UNL     1      10.987   4.539  -1.959  0.00  0.00    +0.008 A 
ATOM     20  C   UNL     1       9.831   3.071  -4.030  0.00  0.00    +0.159 A 
ATOM     21  C   UNL     1       9.760   4.934  -2.493  0.00  0.00    +0.041 A 
ATOM     23  C   UNL     1       9.182   4.198  -3.528  0.00  0.00    +0.158 A 
ENDBRANCH  14  16
ENDBRANCH   6  14
ENDBRANCH  15  10
TORSDOF 8
ENDMDL
MODEL 9
REMARK VINA RESULT:      -6.3     20.589     24.414
REMARK  Name = 45783345
REMARK  9 active torsions:
REMARK  status: ('A' for Active; 'I' for Inactive)
REMARK    1  A    between atoms: O_4  and  C_26
REMARK    2  A    between atoms: O_4  and  C_28
REMARK    3  A    between atoms: O_5  and  C_29
REMARK    4  A    between atoms: O_5  and  C_30
REMARK    5  A    between atoms: N_6  and  C_14
REMARK    6  A    between atoms: C_10  and  C_15
REMARK    7  A    between atoms: C_14  and  C_16
REMARK    8  A    between atoms: C_19  and  C_22
REMARK    9  A    between atoms: C_28  and  C_29
REMARK                            x       y       z     vdW  Elec       q    Type
REMARK                         _______ _______ _______ _____ _____    ______ ____
ROOT
ATOM      3  O   UNL     1     -14.621   3.642  34.102  0.00  0.00    -0.336 OA
ATOM      7  N   UNL     1     -15.614   3.900  32.111  0.00  0.00    -0.190 NA
ATOM      8  N   UNL     1     -14.330   2.485  33.368  0.00  0.00    -0.056 NA
ATOM     15  C   UNL     1     -15.381   4.421  33.288  0.00  0.00    +0.245 A 
ATOM     19  C   UNL     1     -14.949   2.712  32.206  0.00  0.00    +0.202 A 
ENDROOT
BRANCH  19  22
ATOM      9  N   UNL     1     -14.874  -0.057  29.009  0.00  0.00    -0.221 NA
ATOM     22  C   UNL     1     -14.924   1.774  31.122  0.00  0.00    +0.029 A 
ATOM     24  C   UNL     1     -16.013   1.667  30.265  0.00  0.00    +0.079 A 
ATOM     25  C   UNL     1     -13.809   0.966  30.924  0.00  0.00    +0.031 A 
ATOM     26  C   UNL     1     -15.939   0.745  29.232  0.00  0.00    +0.215 A 
ATOM     27  C   UNL     1     -13.833   0.075  29.863  0.00  0.00    +0.115 A 
BRANCH  26   4
ATOM      4  O   UNL     1     -17.000   0.621  28.375  0.00  0.00    -0.474 OA
BRANCH   4  28
ATOM     28  C   UNL     1     -16.782   1.022  27.027  0.00  0.00    +0.258 C 
BRANCH  28  29
ATOM     29  C   UNL     1     -17.913   1.936  26.593  0.00  0.00    +0.200 C 
BRANCH  29   5
ATOM      5  O   UNL     1     -17.796   3.176  27.280  0.00  0.00    -0.380 OA
ATOM     30  C   UNL     1     -16.552   3.806  27.008  0.00  0.00    +0.194 C 
ENDBRANCH  29   5
ENDBRANCH  28  29
ENDBRANCH   4  28
ENDBRANCH  26   4
ENDBRANCH  19  22
BRANCH  15  10
ATOM      6  N   UNL     1     -14.938   6.862  33.482  0.00  0.00    -0.287 NA
ATOM     10  C   UNL     1     -15.834   5.751  33.857  0.00  0.00    +0.146 C 
ATOM     11  C   UNL     1     -17.222   6.175  33.341  0.00  0.00    +0.030 C 
ATOM     12  C   UNL     1     -17.017   7.563  32.749  0.00  0.00    +0.017 C 
ATOM     13  C   UNL     1     -15.767   8.066  33.442  0.00  0.00    +0.085 C 
BRANCH   6  14
ATOM     14  C   UNL     1     -13.800   7.009  34.381  0.00  0.00    +0.120 C 
BRANCH  14  16
ATOM      1  F   UNL     1     -11.184   8.909  30.724  0.00  0.00    -0.202 F 
ATOM      2  F   UNL     1     -10.048  10.728  32.420  0.00  0.00    -0.202 F 
ATOM     16  C   UNL     1     -12.798   8.003  33.858  0.00  0.00    -0.030 A 
ATOM     17  C   UNL     1     -12.448   7.995  32.507  0.00  0.00    +0.046 A 
ATOM     18  C   UNL     1     -12.218   8.932  34.722  0.00  0.00    +0.008 A 
ATOM     20  C   UNL     1     -11.519   8.916  32.021  0.00  0.00    +0.159 A 
ATOM     21  C   UNL     1     -11.289   9.853  34.236  0.00  0.00    +0.041 A 
ATOM     23  C   UNL     1     -10.941   9.845  32.886  0.00  0.00    +0.158 A 
ENDBRANCH  14  16
ENDBRANCH   6  14
ENDBRANCH  15  10
TORSDOF 8
ENDMDL
MODEL 10
REMARK VINA RESULT:      -6.2     23.890     26.819
REMARK  Name = 45783345
REMARK  9 active torsions:
REMARK  status: ('A' for Active; 'I' for Inactive)
REMARK    1  A    between atoms: O_4  and  C_26
REMARK    2  A    between atoms: O_4  and  C_28
REMARK    3  A    between atoms: O_5  and  C_29
REMARK    4  A    between atoms: O_5  and  C_30
REMARK    5  A    between atoms: N_6  and  C_14
REMARK    6  A    between atoms: C_10  and  C_15
REMARK    7  A    between atoms: C_14  and  C_16
REMARK    8  A    between atoms: C_19  and  C_22
REMARK    9  A    between atoms: C_28  and  C_29
REMARK                            x       y       z     vdW  Elec       q    Type
REMARK                         _______ _______ _______ _____ _____    ______ ____
ROOT
ATOM      3  O   UNL     1      10.206   4.880   5.023  0.00  0.00    -0.336 OA
ATOM      7  N   UNL     1      11.727   6.330   4.247  0.00  0.00    -0.190 NA
ATOM      8  N   UNL     1      10.612   4.389   3.775  0.00  0.00    -0.056 NA
ATOM     15  C   UNL     1      10.911   6.025   5.223  0.00  0.00    +0.245 A 
ATOM     19  C   UNL     1      11.510   5.298   3.382  0.00  0.00    +0.202 A 
ENDROOT
BRANCH  19  22
ATOM      9  N   UNL     1      13.564   5.021  -0.306  0.00  0.00    -0.221 NA
ATOM     22  C   UNL     1      12.205   5.204   2.131  0.00  0.00    +0.029 A 
ATOM     24  C   UNL     1      12.170   4.022   1.399  0.00  0.00    +0.079 A 
ATOM     25  C   UNL     1      12.919   6.295   1.646  0.00  0.00    +0.031 A 
ATOM     26  C   UNL     1      12.860   3.982   0.197  0.00  0.00    +0.215 A 
ATOM     27  C   UNL     1      13.575   6.154   0.433  0.00  0.00    +0.115 A 
BRANCH  26   4
ATOM      4  O   UNL     1      12.840   2.830  -0.542  0.00  0.00    -0.474 OA
BRANCH   4  28
ATOM     28  C   UNL     1      12.507   2.958  -1.919  0.00  0.00    +0.258 C 
BRANCH  28  29
ATOM     29  C   UNL     1      11.027   3.271  -2.042  0.00  0.00    +0.200 C 
BRANCH  29   5
ATOM      5  O   UNL     1      10.364   2.154  -2.621  0.00  0.00    -0.380 OA
ATOM     30  C   UNL     1       9.654   2.521  -3.795  0.00  0.00    +0.194 C 
ENDBRANCH  29   5
ENDBRANCH  28  29
ENDBRANCH   4  28
ENDBRANCH  26   4
ENDBRANCH  19  22
BRANCH  15  10
ATOM      6  N   UNL     1       9.380   7.511   6.503  0.00  0.00    -0.287 NA
ATOM     10  C   UNL     1      10.650   6.759   6.522  0.00  0.00    +0.146 C 
ATOM     11  C   UNL     1      10.524   5.808   7.727  0.00  0.00    +0.030 C 
ATOM     12  C   UNL     1       9.179   6.142   8.357  0.00  0.00    +0.017 C 
ATOM     13  C   UNL     1       8.905   7.556   7.886  0.00  0.00    +0.085 C 
BRANCH   6  14
ATOM     14  C   UNL     1       9.509   8.843   5.925  0.00  0.00    +0.120 C 
BRANCH  14  16
ATOM      1  F   UNL     1       8.690   8.203   1.156  0.00  0.00    -0.202 F 
ATOM      2  F   UNL     1       6.275   9.469   1.354  0.00  0.00    -0.202 F 
ATOM     16  C   UNL     1       8.645   9.010   4.705  0.00  0.00    -0.030 A 
ATOM     17  C   UNL     1       9.076   8.520   3.472  0.00  0.00    +0.046 A 
ATOM     18  C   UNL     1       7.412   9.656   4.805  0.00  0.00    +0.008 A 
ATOM     20  C   UNL     1       8.275   8.675   2.340  0.00  0.00    +0.159 A 
ATOM     21  C   UNL     1       6.611   9.811   3.673  0.00  0.00    +0.041 A 
ATOM     23  C   UNL     1       7.043   9.319   2.441  0.00  0.00    +0.158 A 
ENDBRANCH  14  16
ENDBRANCH   6  14
ENDBRANCH  15  10
TORSDOF 8
ENDMDL
