MODEL 1
REMARK VINA RESULT:      -6.6      0.000      0.000
REMARK  Name = 51137956
REMARK  6 active torsions:
REMARK  status: ('A' for Active; 'I' for Inactive)
REMARK    1  A    between atoms: N_3  and  C_5
REMARK    2  A    between atoms: C_6  and  C_14
REMARK    3  A    between atoms: C_7  and  C_17
REMARK    4  A    between atoms: C_14  and  C_18
REMARK    5  A    between atoms: C_18  and  C_23
REMARK    6  A    between atoms: C_18  and  C_24
REMARK                            x       y       z     vdW  Elec       q    Type
REMARK                         _______ _______ _______ _____ _____    ______ ____
ROOT
ATOM      2  N   UNL     1      -5.181  -9.970  14.812  0.00  0.00    -0.299 NA
ATOM      4  N   UNL     1      -7.838 -10.297  19.095  0.00  0.00    -0.360 N 
ATOM      6  C   UNL     1      -4.434 -10.894  15.675  0.00  0.00    +0.085 C 
ATOM      7  C   UNL     1      -6.563 -10.353  14.564  0.00  0.00    +0.145 C 
ATOM     12  C   UNL     1      -7.524  -9.629  15.505  0.00  0.00    +0.065 C 
ATOM     13  C   UNL     1      -4.940 -11.023  17.115  0.00  0.00    -0.021 A 
ATOM     15  C   UNL     1      -6.222 -10.607  17.574  0.00  0.00    +0.008 A 
ATOM     16  C   UNL     1      -7.366 -10.008  16.940  0.00  0.00    -0.020 A 
ATOM     19  C   UNL     1      -6.569 -10.794  18.917  0.00  0.00    +0.047 A 
ATOM     20  C   UNL     1      -8.328  -9.827  17.912  0.00  0.00    +0.087 A 
ATOM     21  C   UNL     1      -4.115 -11.673  18.069  0.00  0.00    +0.006 A 
ATOM     22  C   UNL     1      -5.723 -11.394  19.852  0.00  0.00    +0.026 A 
ATOM     25  C   UNL     1      -4.490 -11.844  19.400  0.00  0.00    +0.002 A 
ATOM     26  H   UNL     1      -5.120  -9.015  15.163  0.00  0.00    +0.123 HD
ATOM     28  H   UNL     1      -8.340 -10.296  19.971  0.00  0.00    +0.165 HD
ENDROOT
BRANCH   7  17
ATOM      1  O   UNL     1      -7.948  -9.522  12.807  0.00  0.00    -0.274 OA
ATOM      3  N   UNL     1      -5.735 -10.068  12.336  0.00  0.00    -0.311 N 
ATOM     17  C   UNL     1      -6.842  -9.927  13.155  0.00  0.00    +0.231 C 
ATOM     27  H   UNL     1      -4.854 -10.362  12.747  0.00  0.00    +0.149 HD
BRANCH   3   5
ATOM      5  C   UNL     1      -5.748  -9.748  10.929  0.00  0.00    +0.073 C 
ATOM      8  C   UNL     1      -5.266 -10.918  10.082  0.00  0.00    +0.022 C 
ATOM      9  C   UNL     1      -4.750  -8.649  10.587  0.00  0.00    +0.022 C 
ATOM     10  C   UNL     1      -3.742 -10.833  10.141  0.00  0.00    +0.002 C 
ATOM     11  C   UNL     1      -3.411  -9.368  10.425  0.00  0.00    +0.002 C 
ENDBRANCH   3   5
ENDBRANCH   7  17
BRANCH   6  14
ATOM     14  C   UNL     1      -2.976 -10.402  15.604  0.00  0.00    +0.026 C 
BRANCH  14  18
ATOM     18  C   UNL     1      -2.096 -11.269  14.699  0.00  0.00    -0.015 C 
ATOM     23  C   UNL     1      -2.688 -12.658  14.457  0.00  0.00    +0.007 C 
ATOM     24  C   UNL     1      -1.890 -10.554  13.361  0.00  0.00    +0.007 C 
ENDBRANCH  14  18
ENDBRANCH   6  14
TORSDOF 4
ENDMDL
MODEL 2
REMARK VINA RESULT:      -6.4     27.155     28.850
REMARK  Name = 51137956
REMARK  6 active torsions:
REMARK  status: ('A' for Active; 'I' for Inactive)
REMARK    1  A    between atoms: N_3  and  C_5
REMARK    2  A    between atoms: C_6  and  C_14
REMARK    3  A    between atoms: C_7  and  C_17
REMARK    4  A    between atoms: C_14  and  C_18
REMARK    5  A    between atoms: C_18  and  C_23
REMARK    6  A    between atoms: C_18  and  C_24
REMARK                            x       y       z     vdW  Elec       q    Type
REMARK                         _______ _______ _______ _____ _____    ______ ____
ROOT
ATOM      2  N   UNL     1      12.559  10.998  21.714  0.00  0.00    -0.299 NA
ATOM      4  N   UNL     1      11.932   6.259  20.084  0.00  0.00    -0.360 N 
ATOM      6  C   UNL     1      12.701  11.057  20.253  0.00  0.00    +0.085 C 
ATOM      7  C   UNL     1      11.304  10.427  22.180  0.00  0.00    +0.145 C 
ATOM     12  C   UNL     1      11.456   8.947  22.529  0.00  0.00    +0.065 C 
ATOM     13  C   UNL     1      12.735   9.708  19.529  0.00  0.00    -0.021 A 
ATOM     15  C   UNL     1      12.311   8.467  20.086  0.00  0.00    +0.008 A 
ATOM     16  C   UNL     1      11.758   8.077  21.355  0.00  0.00    -0.020 A 
ATOM     19  C   UNL     1      12.380   7.303  19.311  0.00  0.00    +0.047 A 
ATOM     20  C   UNL     1      11.550   6.713  21.312  0.00  0.00    +0.087 A 
ATOM     21  C   UNL     1      13.144   9.676  18.171  0.00  0.00    +0.006 A 
ATOM     22  C   UNL     1      12.830   7.286  17.989  0.00  0.00    +0.026 A 
ATOM     25  C   UNL     1      13.200   8.500  17.425  0.00  0.00    +0.002 A 
ATOM     26  H   UNL     1      13.358  10.529  22.139  0.00  0.00    +0.123 HD
ATOM     28  H   UNL     1      11.877   5.298  19.780  0.00  0.00    +0.165 HD
ENDROOT
BRANCH   7  17
ATOM      1  O   UNL     1      11.026  10.679  24.537  0.00  0.00    -0.274 OA
ATOM      3  N   UNL     1      10.560  12.486  23.146  0.00  0.00    -0.311 N 
ATOM     17  C   UNL     1      10.961  11.190  23.422  0.00  0.00    +0.231 C 
ATOM     27  H   UNL     1      10.599  12.819  22.187  0.00  0.00    +0.149 HD
BRANCH   3   5
ATOM      5  C   UNL     1      10.155  13.422  24.167  0.00  0.00    +0.073 C 
ATOM      8  C   UNL     1       9.450  14.633  23.572  0.00  0.00    +0.022 C 
ATOM      9  C   UNL     1      11.352  14.042  24.877  0.00  0.00    +0.022 C 
ATOM     10  C   UNL     1      10.582  15.547  23.109  0.00  0.00    +0.002 C 
ATOM     11  C   UNL     1      11.791  15.195  23.976  0.00  0.00    +0.002 C 
ENDBRANCH   3   5
ENDBRANCH   7  17
BRANCH   6  14
ATOM     14  C   UNL     1      13.979  11.884  20.020  0.00  0.00    +0.026 C 
BRANCH  14  18
ATOM     18  C   UNL     1      15.121  11.499  20.965  0.00  0.00    -0.015 C 
ATOM     23  C   UNL     1      16.166  10.605  20.295  0.00  0.00    +0.007 C 
ATOM     24  C   UNL     1      15.790  12.771  21.492  0.00  0.00    +0.007 C 
ENDBRANCH  14  18
ENDBRANCH   6  14
TORSDOF 4
ENDMDL
MODEL 3
REMARK VINA RESULT:      -6.3      2.332      6.137
REMARK  Name = 51137956
REMARK  6 active torsions:
REMARK  status: ('A' for Active; 'I' for Inactive)
REMARK    1  A    between atoms: N_3  and  C_5
REMARK    2  A    between atoms: C_6  and  C_14
REMARK    3  A    between atoms: C_7  and  C_17
REMARK    4  A    between atoms: C_14  and  C_18
REMARK    5  A    between atoms: C_18  and  C_23
REMARK    6  A    between atoms: C_18  and  C_24
REMARK                            x       y       z     vdW  Elec       q    Type
REMARK                         _______ _______ _______ _____ _____    ______ ____
ROOT
ATOM      2  N   UNL     1      -6.171  -9.432  14.883  0.00  0.00    -0.299 NA
ATOM      4  N   UNL     1      -1.554 -11.417  15.384  0.00  0.00    -0.360 N 
ATOM      6  C   UNL     1      -5.915 -10.165  13.636  0.00  0.00    +0.085 C 
ATOM      7  C   UNL     1      -6.055 -10.233  16.093  0.00  0.00    +0.145 C 
ATOM     12  C   UNL     1      -4.681 -10.072  16.742  0.00  0.00    +0.065 C 
ATOM     13  C   UNL     1      -4.495 -10.712  13.460  0.00  0.00    -0.021 A 
ATOM     15  C   UNL     1      -3.540 -10.865  14.506  0.00  0.00    +0.008 A 
ATOM     16  C   UNL     1      -3.557 -10.611  15.922  0.00  0.00    -0.020 A 
ATOM     19  C   UNL     1      -2.276 -11.392  14.214  0.00  0.00    +0.047 A 
ATOM     20  C   UNL     1      -2.316 -10.956  16.417  0.00  0.00    +0.087 A 
ATOM     21  C   UNL     1      -4.101 -11.180  12.180  0.00  0.00    +0.006 A 
ATOM     22  C   UNL     1      -1.892 -11.804  12.937  0.00  0.00    +0.026 A 
ATOM     25  C   UNL     1      -2.835 -11.701  11.923  0.00  0.00    +0.002 A 
ATOM     26  H   UNL     1      -5.594  -8.594  14.938  0.00  0.00    +0.123 HD
ATOM     28  H   UNL     1      -0.603 -11.746  15.467  0.00  0.00    +0.165 HD
ENDROOT
BRANCH   7  17
ATOM      1  O   UNL     1      -7.052  -9.888  18.233  0.00  0.00    -0.274 OA
ATOM      3  N   UNL     1      -8.095  -9.008  16.349  0.00  0.00    -0.311 N 
ATOM     17  C   UNL     1      -7.101  -9.697  17.022  0.00  0.00    +0.231 C 
ATOM     27  H   UNL     1      -8.002  -8.865  15.347  0.00  0.00    +0.149 HD
BRANCH   3   5
ATOM      5  C   UNL     1      -9.231  -8.414  17.011  0.00  0.00    +0.073 C 
ATOM      8  C   UNL     1     -10.321  -9.440  17.288  0.00  0.00    +0.022 C 
ATOM      9  C   UNL     1      -9.939  -7.399  16.122  0.00  0.00    +0.022 C 
ATOM     10  C   UNL     1     -11.084  -9.555  15.970  0.00  0.00    +0.002 C 
ATOM     11  C   UNL     1     -10.872  -8.228  15.241  0.00  0.00    +0.002 C 
ENDBRANCH   3   5
ENDBRANCH   7  17
BRANCH   6  14
ATOM     14  C   UNL     1      -6.311  -9.182  12.519  0.00  0.00    +0.026 C 
BRANCH  14  18
ATOM     18  C   UNL     1      -7.650  -9.532  11.862  0.00  0.00    -0.015 C 
ATOM     23  C   UNL     1      -7.656  -9.264  10.356  0.00  0.00    +0.007 C 
ATOM     24  C   UNL     1      -7.972 -11.005  12.127  0.00  0.00    +0.007 C 
ENDBRANCH  14  18
ENDBRANCH   6  14
TORSDOF 4
ENDMDL
MODEL 4
REMARK VINA RESULT:      -6.3      1.840      3.706
REMARK  Name = 51137956
REMARK  6 active torsions:
REMARK  status: ('A' for Active; 'I' for Inactive)
REMARK    1  A    between atoms: N_3  and  C_5
REMARK    2  A    between atoms: C_6  and  C_14
REMARK    3  A    between atoms: C_7  and  C_17
REMARK    4  A    between atoms: C_14  and  C_18
REMARK    5  A    between atoms: C_18  and  C_23
REMARK    6  A    between atoms: C_18  and  C_24
REMARK                            x       y       z     vdW  Elec       q    Type
REMARK                         _______ _______ _______ _____ _____    ______ ____
ROOT
ATOM      2  N   UNL     1      -4.991 -10.786  14.465  0.00  0.00    -0.299 NA
ATOM      4  N   UNL     1      -4.992 -11.612  19.447  0.00  0.00    -0.360 N 
ATOM      6  C   UNL     1      -6.091  -9.976  15.003  0.00  0.00    +0.085 C 
ATOM      7  C   UNL     1      -3.689 -10.515  15.059  0.00  0.00    +0.145 C 
ATOM     12  C   UNL     1      -3.360 -11.513  16.167  0.00  0.00    +0.065 C 
ATOM     13  C   UNL     1      -6.421 -10.193  16.483  0.00  0.00    -0.021 A 
ATOM     15  C   UNL     1      -5.567 -10.829  17.428  0.00  0.00    +0.008 A 
ATOM     16  C   UNL     1      -4.254 -11.413  17.357  0.00  0.00    -0.020 A 
ATOM     19  C   UNL     1      -5.983 -10.954  18.760  0.00  0.00    +0.047 A 
ATOM     20  C   UNL     1      -3.946 -11.887  18.616  0.00  0.00    +0.087 A 
ATOM     21  C   UNL     1      -7.633  -9.659  16.994  0.00  0.00    +0.006 A 
ATOM     22  C   UNL     1      -7.201 -10.463  19.233  0.00  0.00    +0.026 A 
ATOM     25  C   UNL     1      -8.017  -9.798  18.326  0.00  0.00    +0.002 A 
ATOM     26  H   UNL     1      -5.215 -11.779  14.507  0.00  0.00    +0.123 HD
ATOM     28  H   UNL     1      -5.026 -11.842  20.430  0.00  0.00    +0.165 HD
ENDROOT
BRANCH   7  17
ATOM      1  O   UNL     1      -1.501 -10.794  14.151  0.00  0.00    -0.274 OA
ATOM      3  N   UNL     1      -3.315 -10.665  12.699  0.00  0.00    -0.311 N 
ATOM     17  C   UNL     1      -2.705 -10.680  13.942  0.00  0.00    +0.231 C 
ATOM     27  H   UNL     1      -4.329 -10.620  12.650  0.00  0.00    +0.149 HD
BRANCH   3   5
ATOM      5  C   UNL     1      -2.586 -10.783  11.460  0.00  0.00    +0.073 C 
ATOM      8  C   UNL     1      -2.382  -9.428  10.796  0.00  0.00    +0.022 C 
ATOM      9  C   UNL     1      -3.372 -11.560  10.410  0.00  0.00    +0.022 C 
ATOM     10  C   UNL     1      -3.693  -9.160  10.060  0.00  0.00    +0.002 C 
ATOM     11  C   UNL     1      -4.307 -10.532   9.777  0.00  0.00    +0.002 C 
ENDBRANCH   3   5
ENDBRANCH   7  17
BRANCH   6  14
ATOM     14  C   UNL     1      -7.286 -10.281  14.081  0.00  0.00    +0.026 C 
BRANCH  14  18
ATOM     18  C   UNL     1      -6.878 -10.475  12.617  0.00  0.00    -0.015 C 
ATOM     23  C   UNL     1      -7.715 -11.540  11.908  0.00  0.00    +0.007 C 
ATOM     24  C   UNL     1      -7.004  -9.140  11.878  0.00  0.00    +0.007 C 
ENDBRANCH  14  18
ENDBRANCH   6  14
TORSDOF 4
ENDMDL
MODEL 5
REMARK VINA RESULT:      -6.2     23.558     26.533
REMARK  Name = 51137956
REMARK  6 active torsions:
REMARK  status: ('A' for Active; 'I' for Inactive)
REMARK    1  A    between atoms: N_3  and  C_5
REMARK    2  A    between atoms: C_6  and  C_14
REMARK    3  A    between atoms: C_7  and  C_17
REMARK    4  A    between atoms: C_14  and  C_18
REMARK    5  A    between atoms: C_18  and  C_23
REMARK    6  A    between atoms: C_18  and  C_24
REMARK                            x       y       z     vdW  Elec       q    Type
REMARK                         _______ _______ _______ _____ _____    ______ ____
ROOT
ATOM      2  N   UNL     1      10.665   5.837   3.612  0.00  0.00    -0.299 NA
ATOM      4  N   UNL     1       8.517   9.231   0.551  0.00  0.00    -0.360 N 
ATOM      6  C   UNL     1       9.508   6.362   4.349  0.00  0.00    +0.085 C 
ATOM      7  C   UNL     1      10.349   5.268   2.310  0.00  0.00    +0.145 C 
ATOM     12  C   UNL     1      10.587   6.274   1.185  0.00  0.00    +0.065 C 
ATOM     13  C   UNL     1       8.787   7.550   3.705  0.00  0.00    -0.021 A 
ATOM     15  C   UNL     1       8.921   7.951   2.345  0.00  0.00    +0.008 A 
ATOM     16  C   UNL     1       9.670   7.451   1.224  0.00  0.00    -0.020 A 
ATOM     19  C   UNL     1       8.194   9.051   1.875  0.00  0.00    +0.047 A 
ATOM     20  C   UNL     1       9.398   8.271   0.148  0.00  0.00    +0.087 A 
ATOM     21  C   UNL     1       7.849   8.277   4.482  0.00  0.00    +0.006 A 
ATOM     22  C   UNL     1       7.309   9.783   2.669  0.00  0.00    +0.026 A 
ATOM     25  C   UNL     1       7.138   9.367   3.984  0.00  0.00    +0.002 A 
ATOM     26  H   UNL     1      11.400   6.539   3.539  0.00  0.00    +0.123 HD
ATOM     28  H   UNL     1       8.141   9.958  -0.041  0.00  0.00    +0.165 HD
ENDROOT
BRANCH   7  17
ATOM      1  O   UNL     1      11.262   3.141   2.891  0.00  0.00    -0.274 OA
ATOM      3  N   UNL     1      12.173   4.307   1.094  0.00  0.00    -0.311 N 
ATOM     17  C   UNL     1      11.292   4.116   2.145  0.00  0.00    +0.231 C 
ATOM     27  H   UNL     1      12.067   5.130   0.508  0.00  0.00    +0.149 HD
BRANCH   3   5
ATOM      5  C   UNL     1      13.197   3.354   0.739  0.00  0.00    +0.073 C 
ATOM      8  C   UNL     1      14.488   3.606   1.505  0.00  0.00    +0.022 C 
ATOM      9  C   UNL     1      13.631   3.502  -0.714  0.00  0.00    +0.022 C 
ATOM     10  C   UNL     1      15.184   4.722   0.729  0.00  0.00    +0.002 C 
ATOM     11  C   UNL     1      14.663   4.629  -0.705  0.00  0.00    +0.002 C 
ENDBRANCH   3   5
ENDBRANCH   7  17
BRANCH   6  14
ATOM     14  C   UNL     1      10.057   6.694   5.750  0.00  0.00    +0.026 C 
BRANCH  14  18
ATOM     18  C   UNL     1       9.211   6.098   6.879  0.00  0.00    -0.015 C 
ATOM     23  C   UNL     1       9.900   4.923   7.575  0.00  0.00    +0.007 C 
ATOM     24  C   UNL     1       8.894   7.192   7.903  0.00  0.00    +0.007 C 
ENDBRANCH  14  18
ENDBRANCH   6  14
TORSDOF 4
ENDMDL
MODEL 6
REMARK VINA RESULT:      -6.2     27.359     29.087
REMARK  Name = 51137956
REMARK  6 active torsions:
REMARK  status: ('A' for Active; 'I' for Inactive)
REMARK    1  A    between atoms: N_3  and  C_5
REMARK    2  A    between atoms: C_6  and  C_14
REMARK    3  A    between atoms: C_7  and  C_17
REMARK    4  A    between atoms: C_14  and  C_18
REMARK    5  A    between atoms: C_18  and  C_23
REMARK    6  A    between atoms: C_18  and  C_24
REMARK                            x       y       z     vdW  Elec       q    Type
REMARK                         _______ _______ _______ _____ _____    ______ ____
ROOT
ATOM      2  N   UNL     1      15.485   8.832  20.844  0.00  0.00    -0.299 NA
ATOM      4  N   UNL     1      10.805   6.992  21.311  0.00  0.00    -0.360 N 
ATOM      6  C   UNL     1      14.784   9.751  21.751  0.00  0.00    +0.085 C 
ATOM      7  C   UNL     1      15.491   7.441  21.273  0.00  0.00    +0.145 C 
ATOM     12  C   UNL     1      14.381   6.640  20.594  0.00  0.00    +0.065 C 
ATOM     13  C   UNL     1      13.280   9.514  21.913  0.00  0.00    -0.021 A 
ATOM     15  C   UNL     1      12.594   8.320  21.548  0.00  0.00    +0.008 A 
ATOM     16  C   UNL     1      13.004   7.063  20.982  0.00  0.00    -0.020 A 
ATOM     19  C   UNL     1      11.213   8.225  21.761  0.00  0.00    +0.047 A 
ATOM     20  C   UNL     1      11.874   6.284  20.847  0.00  0.00    +0.087 A 
ATOM     21  C   UNL     1      12.499  10.517  22.543  0.00  0.00    +0.006 A 
ATOM     22  C   UNL     1      10.454   9.243  22.341  0.00  0.00    +0.026 A 
ATOM     25  C   UNL     1      11.125  10.391  22.743  0.00  0.00    +0.002 A 
ATOM     26  H   UNL     1      15.134   8.923  19.892  0.00  0.00    +0.123 HD
ATOM     28  H   UNL     1       9.854   6.655  21.338  0.00  0.00    +0.165 HD
ENDROOT
BRANCH   7  17
ATOM      1  O   UNL     1      16.961   6.295  19.785  0.00  0.00    -0.274 OA
ATOM      3  N   UNL     1      17.814   7.153  21.772  0.00  0.00    -0.311 N 
ATOM     17  C   UNL     1      16.820   6.901  20.842  0.00  0.00    +0.231 C 
ATOM     27  H   UNL     1      17.591   7.715  22.589  0.00  0.00    +0.149 HD
BRANCH   3   5
ATOM      5  C   UNL     1      19.179   6.718  21.606  0.00  0.00    +0.073 C 
ATOM      8  C   UNL     1      19.899   6.603  22.943  0.00  0.00    +0.022 C 
ATOM      9  C   UNL     1      20.017   7.748  20.858  0.00  0.00    +0.022 C 
ATOM     10  C   UNL     1      20.338   8.029  23.267  0.00  0.00    +0.002 C 
ATOM     11  C   UNL     1      20.453   8.752  21.924  0.00  0.00    +0.002 C 
ENDBRANCH   3   5
ENDBRANCH   7  17
BRANCH   6  14
ATOM     14  C   UNL     1      15.105  11.155  21.206  0.00  0.00    +0.026 C 
BRANCH  14  18
ATOM     18  C   UNL     1      15.024  11.236  19.678  0.00  0.00    -0.015 C 
ATOM     23  C   UNL     1      13.708  11.841  19.189  0.00  0.00    +0.007 C 
ATOM     24  C   UNL     1      16.201  12.065  19.155  0.00  0.00    +0.007 C 
ENDBRANCH  14  18
ENDBRANCH   6  14
TORSDOF 4
ENDMDL
MODEL 7
REMARK VINA RESULT:      -6.1      2.060      5.870
REMARK  Name = 51137956
REMARK  6 active torsions:
REMARK  status: ('A' for Active; 'I' for Inactive)
REMARK    1  A    between atoms: N_3  and  C_5
REMARK    2  A    between atoms: C_6  and  C_14
REMARK    3  A    between atoms: C_7  and  C_17
REMARK    4  A    between atoms: C_14  and  C_18
REMARK    5  A    between atoms: C_18  and  C_23
REMARK    6  A    between atoms: C_18  and  C_24
REMARK                            x       y       z     vdW  Elec       q    Type
REMARK                         _______ _______ _______ _____ _____    ______ ____
ROOT
ATOM      2  N   UNL     1      -6.662 -10.692  15.337  0.00  0.00    -0.299 NA
ATOM      4  N   UNL     1      -2.469 -10.756  12.523  0.00  0.00    -0.360 N 
ATOM      6  C   UNL     1      -5.555 -10.424  16.265  0.00  0.00    +0.085 C 
ATOM      7  C   UNL     1      -6.750  -9.771  14.214  0.00  0.00    +0.145 C 
ATOM     12  C   UNL     1      -6.084 -10.344  12.964  0.00  0.00    +0.065 C 
ATOM     13  C   UNL     1      -4.145 -10.572  15.686  0.00  0.00    -0.021 A 
ATOM     15  C   UNL     1      -3.829 -10.606  14.297  0.00  0.00    +0.008 A 
ATOM     16  C   UNL     1      -4.607 -10.515  13.091  0.00  0.00    -0.020 A 
ATOM     19  C   UNL     1      -2.493 -10.732  13.897  0.00  0.00    +0.047 A 
ATOM     20  C   UNL     1      -3.733 -10.620  12.029  0.00  0.00    +0.087 A 
ATOM     21  C   UNL     1      -3.043 -10.602  16.579  0.00  0.00    +0.006 A 
ATOM     22  C   UNL     1      -1.426 -10.807  14.794  0.00  0.00    +0.026 A 
ATOM     25  C   UNL     1      -1.724 -10.726  16.148  0.00  0.00    +0.002 A 
ATOM     26  H   UNL     1      -6.644 -11.660  15.020  0.00  0.00    +0.123 HD
ATOM     28  H   UNL     1      -1.634 -10.844  11.962  0.00  0.00    +0.165 HD
ENDROOT
BRANCH   7  17
ATOM      1  O   UNL     1      -8.714  -9.854  12.861  0.00  0.00    -0.274 OA
ATOM      3  N   UNL     1      -8.894  -9.132  15.066  0.00  0.00    -0.311 N 
ATOM     17  C   UNL     1      -8.216  -9.605  13.955  0.00  0.00    +0.231 C 
ATOM     27  H   UNL     1      -8.386  -9.014  15.938  0.00  0.00    +0.149 HD
BRANCH   3   5
ATOM      5  C   UNL     1     -10.312  -8.866  15.072  0.00  0.00    +0.073 C 
ATOM      8  C   UNL     1     -10.608  -7.408  15.400  0.00  0.00    +0.022 C 
ATOM      9  C   UNL     1     -11.026  -9.616  16.189  0.00  0.00    +0.022 C 
ATOM     10  C   UNL     1     -10.535  -7.335  16.923  0.00  0.00    +0.002 C 
ATOM     11  C   UNL     1     -10.844  -8.744  17.430  0.00  0.00    +0.002 C 
ENDBRANCH   3   5
ENDBRANCH   7  17
BRANCH   6  14
ATOM     14  C   UNL     1      -5.806 -11.370  17.454  0.00  0.00    +0.026 C 
BRANCH  14  18
ATOM     18  C   UNL     1      -6.399 -10.654  18.672  0.00  0.00    -0.015 C 
ATOM     23  C   UNL     1      -7.927 -10.693  18.693  0.00  0.00    +0.007 C 
ATOM     24  C   UNL     1      -5.848 -11.294  19.950  0.00  0.00    +0.007 C 
ENDBRANCH  14  18
ENDBRANCH   6  14
TORSDOF 4
ENDMDL
MODEL 8
REMARK VINA RESULT:      -6.1      3.410      7.413
REMARK  Name = 51137956
REMARK  6 active torsions:
REMARK  status: ('A' for Active; 'I' for Inactive)
REMARK    1  A    between atoms: N_3  and  C_5
REMARK    2  A    between atoms: C_6  and  C_14
REMARK    3  A    between atoms: C_7  and  C_17
REMARK    4  A    between atoms: C_14  and  C_18
REMARK    5  A    between atoms: C_18  and  C_23
REMARK    6  A    between atoms: C_18  and  C_24
REMARK                            x       y       z     vdW  Elec       q    Type
REMARK                         _______ _______ _______ _____ _____    ______ ____
ROOT
ATOM      2  N   UNL     1      -8.124 -10.857  18.103  0.00  0.00    -0.299 NA
ATOM      4  N   UNL     1      -3.167 -11.765  18.432  0.00  0.00    -0.360 N 
ATOM      6  C   UNL     1      -7.613 -10.780  16.728  0.00  0.00    +0.085 C 
ATOM      7  C   UNL     1      -7.848 -12.114  18.784  0.00  0.00    +0.145 C 
ATOM     12  C   UNL     1      -6.607 -12.011  19.670  0.00  0.00    +0.065 C 
ATOM     13  C   UNL     1      -6.090 -10.839  16.576  0.00  0.00    -0.021 A 
ATOM     15  C   UNL     1      -5.182 -11.290  17.577  0.00  0.00    +0.008 A 
ATOM     16  C   UNL     1      -5.339 -11.801  18.912  0.00  0.00    -0.020 A 
ATOM     19  C   UNL     1      -3.809 -11.307  17.306  0.00  0.00    +0.047 A 
ATOM     20  C   UNL     1      -4.077 -12.070  19.401  0.00  0.00    +0.087 A 
ATOM     21  C   UNL     1      -5.519 -10.494  15.324  0.00  0.00    +0.006 A 
ATOM     22  C   UNL     1      -3.262 -10.919  16.081  0.00  0.00    +0.026 A 
ATOM     25  C   UNL     1      -4.146 -10.523  15.086  0.00  0.00    +0.002 A 
ATOM     26  H   UNL     1      -7.807 -10.062  18.655  0.00  0.00    +0.123 HD
ATOM     28  H   UNL     1      -2.167 -11.875  18.521  0.00  0.00    +0.165 HD
ENDROOT
BRANCH   7  17
ATOM      1  O   UNL     1      -9.115 -13.338  20.394  0.00  0.00    -0.274 OA
ATOM      3  N   UNL     1     -10.027 -11.405  19.474  0.00  0.00    -0.311 N 
ATOM     17  C   UNL     1      -9.046 -12.366  19.647  0.00  0.00    +0.231 C 
ATOM     27  H   UNL     1      -9.837 -10.612  18.868  0.00  0.00    +0.149 HD
BRANCH   3   5
ATOM      5  C   UNL     1     -11.290 -11.431  20.172  0.00  0.00    +0.073 C 
ATOM      8  C   UNL     1     -12.360 -12.159  19.370  0.00  0.00    +0.022 C 
ATOM      9  C   UNL     1     -11.879 -10.035  20.333  0.00  0.00    +0.022 C 
ATOM     10  C   UNL     1     -12.871 -11.118  18.377  0.00  0.00    +0.002 C 
ATOM     11  C   UNL     1     -12.598  -9.755  19.015  0.00  0.00    +0.002 C 
ENDBRANCH   3   5
ENDBRANCH   7  17
BRANCH   6  14
ATOM     14  C   UNL     1      -8.213  -9.479  16.163  0.00  0.00    +0.026 C 
BRANCH  14  18
ATOM     18  C   UNL     1      -9.650  -9.230  16.632  0.00  0.00    -0.015 C 
ATOM     23  C   UNL     1      -9.857  -7.814  17.171  0.00  0.00    +0.007 C 
ATOM     24  C   UNL     1     -10.611  -9.487  15.468  0.00  0.00    +0.007 C 
ENDBRANCH  14  18
ENDBRANCH   6  14
TORSDOF 4
ENDMDL
MODEL 9
REMARK VINA RESULT:      -6.0      1.447      4.061
REMARK  Name = 51137956
REMARK  6 active torsions:
REMARK  status: ('A' for Active; 'I' for Inactive)
REMARK    1  A    between atoms: N_3  and  C_5
REMARK    2  A    between atoms: C_6  and  C_14
REMARK    3  A    between atoms: C_7  and  C_17
REMARK    4  A    between atoms: C_14  and  C_18
REMARK    5  A    between atoms: C_18  and  C_23
REMARK    6  A    between atoms: C_18  and  C_24
REMARK                            x       y       z     vdW  Elec       q    Type
REMARK                         _______ _______ _______ _____ _____    ______ ____
ROOT
ATOM      2  N   UNL     1      -7.588 -10.433  14.956  0.00  0.00    -0.299 NA
ATOM      4  N   UNL     1      -3.357 -11.728  17.391  0.00  0.00    -0.360 N 
ATOM      6  C   UNL     1      -7.808 -10.064  16.361  0.00  0.00    +0.085 C 
ATOM      7  C   UNL     1      -6.409  -9.835  14.348  0.00  0.00    +0.145 C 
ATOM     12  C   UNL     1      -5.217 -10.791  14.376  0.00  0.00    +0.065 C 
ATOM     13  C   UNL     1      -6.733 -10.524  17.350  0.00  0.00    -0.021 A 
ATOM     15  C   UNL     1      -5.424 -10.959  16.995  0.00  0.00    +0.008 A 
ATOM     16  C   UNL     1      -4.718 -11.096  15.749  0.00  0.00    -0.020 A 
ATOM     19  C   UNL     1      -4.527 -11.343  18.000  0.00  0.00    +0.047 A 
ATOM     20  C   UNL     1      -3.459 -11.578  16.039  0.00  0.00    +0.087 A 
ATOM     21  C   UNL     1      -7.011 -10.449  18.739  0.00  0.00    +0.006 A 
ATOM     22  C   UNL     1      -4.837 -11.305  19.361  0.00  0.00    +0.026 A 
ATOM     25  C   UNL     1      -6.096 -10.837  19.716  0.00  0.00    +0.002 A 
ATOM     26  H   UNL     1      -7.589 -11.445  14.842  0.00  0.00    +0.123 HD
ATOM     28  H   UNL     1      -2.536 -12.058  17.877  0.00  0.00    +0.165 HD
ENDROOT
BRANCH   7  17
ATOM      1  O   UNL     1      -7.961  -9.416  12.585  0.00  0.00    -0.274 OA
ATOM      3  N   UNL     1      -5.693  -9.547  12.082  0.00  0.00    -0.311 N 
ATOM     17  C   UNL     1      -6.792  -9.570  12.924  0.00  0.00    +0.231 C 
ATOM     27  H   UNL     1      -4.764  -9.631  12.484  0.00  0.00    +0.149 HD
BRANCH   3   5
ATOM      5  C   UNL     1      -5.793  -9.333  10.659  0.00  0.00    +0.073 C 
ATOM      8  C   UNL     1      -5.456 -10.594   9.876  0.00  0.00    +0.022 C 
ATOM      9  C   UNL     1      -4.754  -8.336  10.159  0.00  0.00    +0.022 C 
ATOM     10  C   UNL     1      -3.930 -10.614   9.818  0.00  0.00    +0.002 C 
ATOM     11  C   UNL     1      -3.482  -9.159   9.959  0.00  0.00    +0.002 C 
ENDBRANCH   3   5
ENDBRANCH   7  17
BRANCH   6  14
ATOM     14  C   UNL     1      -9.201 -10.628  16.699  0.00  0.00    +0.026 C 
BRANCH  14  18
ATOM     18  C   UNL     1     -10.136  -9.583  17.314  0.00  0.00    -0.015 C 
ATOM     23  C   UNL     1      -9.591  -8.159  17.191  0.00  0.00    +0.007 C 
ATOM     24  C   UNL     1     -11.507  -9.673  16.639  0.00  0.00    +0.007 C 
ENDBRANCH  14  18
ENDBRANCH   6  14
TORSDOF 4
ENDMDL
MODEL 10
REMARK VINA RESULT:      -6.0     28.153     29.852
REMARK  Name = 51137956
REMARK  6 active torsions:
REMARK  status: ('A' for Active; 'I' for Inactive)
REMARK    1  A    between atoms: N_3  and  C_5
REMARK    2  A    between atoms: C_6  and  C_14
REMARK    3  A    between atoms: C_7  and  C_17
REMARK    4  A    between atoms: C_14  and  C_18
REMARK    5  A    between atoms: C_18  and  C_23
REMARK    6  A    between atoms: C_18  and  C_24
REMARK                            x       y       z     vdW  Elec       q    Type
REMARK                         _______ _______ _______ _____ _____    ______ ____
ROOT
ATOM      2  N   UNL     1      13.723  11.089  22.207  0.00  0.00    -0.299 NA
ATOM      4  N   UNL     1      13.598   6.232  20.828  0.00  0.00    -0.360 N 
ATOM      6  C   UNL     1      12.436  10.571  22.689  0.00  0.00    +0.085 C 
ATOM      7  C   UNL     1      14.889  10.361  22.685  0.00  0.00    +0.145 C 
ATOM     12  C   UNL     1      15.366   9.332  21.661  0.00  0.00    +0.065 C 
ATOM     13  C   UNL     1      12.072   9.154  22.236  0.00  0.00    -0.021 A 
ATOM     15  C   UNL     1      12.987   8.206  21.695  0.00  0.00    +0.008 A 
ATOM     16  C   UNL     1      14.400   8.220  21.425  0.00  0.00    -0.020 A 
ATOM     19  C   UNL     1      12.528   6.934  21.329  0.00  0.00    +0.047 A 
ATOM     20  C   UNL     1      14.728   6.993  20.886  0.00  0.00    +0.087 A 
ATOM     21  C   UNL     1      10.742   8.700  22.428  0.00  0.00    +0.006 A 
ATOM     22  C   UNL     1      11.203   6.522  21.484  0.00  0.00    +0.026 A 
ATOM     25  C   UNL     1      10.317   7.426  22.055  0.00  0.00    +0.002 A 
ATOM     26  H   UNL     1      13.726  11.166  21.191  0.00  0.00    +0.123 HD
ATOM     28  H   UNL     1      13.555   5.284  20.483  0.00  0.00    +0.165 HD
ENDROOT
BRANCH   7  17
ATOM      1  O   UNL     1      15.686  12.548  23.206  0.00  0.00    -0.274 OA
ATOM      3  N   UNL     1      17.218  10.906  22.599  0.00  0.00    -0.311 N 
ATOM     17  C   UNL     1      15.953  11.398  22.869  0.00  0.00    +0.231 C 
ATOM     27  H   UNL     1      17.325   9.919  22.382  0.00  0.00    +0.149 HD
BRANCH   3   5
ATOM      5  C   UNL     1      18.413  11.710  22.680  0.00  0.00    +0.073 C 
ATOM      8  C   UNL     1      18.697  12.430  21.369  0.00  0.00    +0.022 C 
ATOM      9  C   UNL     1      19.660  10.856  22.874  0.00  0.00    +0.022 C 
ATOM     10  C   UNL     1      19.396  11.386  20.501  0.00  0.00    +0.002 C 
ATOM     11  C   UNL     1      20.049  10.399  21.469  0.00  0.00    +0.002 C 
ENDBRANCH   3   5
ENDBRANCH   7  17
BRANCH   6  14
ATOM     14  C   UNL     1      11.401  11.619  22.240  0.00  0.00    +0.026 C 
BRANCH  14  18
ATOM     18  C   UNL     1      10.854  12.455  23.401  0.00  0.00    -0.015 C 
ATOM     23  C   UNL     1      10.981  11.745  24.749  0.00  0.00    +0.007 C 
ATOM     24  C   UNL     1      11.594  13.795  23.449  0.00  0.00    +0.007 C 
ENDBRANCH  14  18
ENDBRANCH   6  14
TORSDOF 4
ENDMDL
