REMARK  Name = 71693215
REMARK  8 active torsions:
REMARK  status: ('A' for Active; 'I' for Inactive)
REMARK    1  A    between atoms: N_2  and  C_13
REMARK    2  A    between atoms: C_5  and  C_9
REMARK    3  A    between atoms: C_7  and  C_13
REMARK    4  A    between atoms: C_8  and  C_12
REMARK    5  A    between atoms: C_9  and  C_14
REMARK    6  A    between atoms: C_9  and  C_15
REMARK    7  A    between atoms: C_10  and  C_16
REMARK    8  A    between atoms: C_12  and  C_17
REMARK                            x       y       z     vdW  Elec       q    Type
REMARK                         _______ _______ _______ _____ _____    ______ ____
ROOT
ATOM      5  C   UNL     1      -2.612   1.088   0.161  0.00  0.00    +0.000 C 
ATOM      6  C   UNL     1      -1.371   0.214   0.384  0.00  0.00    +0.012 C 
ATOM      7  C   UNL     1      -3.902   0.251   0.329  0.00  0.00    +0.029 C 
ATOM      8  C   UNL     1      -1.311  -1.014  -0.550  0.00  0.00    +0.022 C 
ATOM     10  C   UNL     1      -2.668  -1.667  -0.762  0.00  0.00    -0.073 C 
ATOM     11  C   UNL     1      -3.813  -1.091  -0.351  0.00  0.00    -0.023 C 
ATOM     16  C   UNL     1      -2.701  -2.972  -1.509  0.00  0.00    +0.039 C 
ENDROOT
BRANCH   5   9
ATOM      9  C   UNL     1      -2.567   1.777  -1.210  0.00  0.00    -0.013 C 
ATOM     14  C   UNL     1      -3.526   2.963  -1.241  0.00  0.00    +0.007 C 
ATOM     15  C   UNL     1      -1.144   2.223  -1.534  0.00  0.00    +0.007 C 
ENDBRANCH   5   9
BRANCH   8  12
ATOM     12  C   UNL     1      -0.257  -1.989  -0.011  0.00  0.00    +0.082 C 
BRANCH  12  17
ATOM      1 CL   UNL     1       6.564   1.290  -0.894  0.00  0.00    -0.083 Cl
ATOM      3  N   UNL     1       1.882  -1.025  -0.879  0.00  0.00    -0.342 N 
ATOM      4  N   UNL     1       1.597  -0.926   1.323  0.00  0.00    -0.232 NA
ATOM     17  C   UNL     1       1.070  -1.311   0.183  0.00  0.00    +0.109 A 
ATOM     18  C   UNL     1       3.009  -0.415  -0.391  0.00  0.00    +0.068 A 
ATOM     19  C   UNL     1       2.807  -0.365   0.985  0.00  0.00    +0.089 A 
ATOM     20  C   UNL     1       4.152   0.083  -1.017  0.00  0.00    +0.047 A 
ATOM     21  C   UNL     1       3.794   0.212   1.802  0.00  0.00    +0.031 A 
ATOM     22  C   UNL     1       5.125   0.654  -0.189  0.00  0.00    +0.043 A 
ATOM     23  C   UNL     1       4.951   0.719   1.195  0.00  0.00    +0.022 A 
ATOM     26  H   UNL     1       1.688  -1.225  -1.851  0.00  0.00    +0.167 HD
ENDBRANCH  12  17
ENDBRANCH   8  12
BRANCH   7  13
ATOM     13  C   UNL     1      -4.255   0.045   1.805  0.00  0.00    +0.085 C 
BRANCH  13   2
ATOM      2  N   UNL     1      -4.825   1.256   2.370  0.00  0.00    -0.329 NA
ATOM     24  H   UNL     1      -5.072   1.092   3.345  0.00  0.00    +0.118 HD
ATOM     25  H   UNL     1      -4.134   2.004   2.378  0.00  0.00    +0.118 HD
ENDBRANCH  13   2
ENDBRANCH   7  13
TORSDOF 5
