REMARK  Name = 75536594
REMARK  6 active torsions:
REMARK  status: ('A' for Active; 'I' for Inactive)
REMARK    1  A    between atoms: O_3  and  C_9
REMARK    2  A    between atoms: N_5  and  C_8
REMARK    3  A    between atoms: N_5  and  C_10
REMARK    4  A    between atoms: N_7  and  C_17
REMARK    5  A    between atoms: C_11  and  C_17
REMARK    6  A    between atoms: C_18  and  C_19
REMARK                            x       y       z     vdW  Elec       q    Type
REMARK                         _______ _______ _______ _____ _____    ______ ____
ROOT
ATOM      2  O   UNL     1       0.167   0.729  -0.818  0.00  0.00    -0.371 OA
ATOM      8  C   UNL     1      -1.902  -0.278  -0.231  0.00  0.00    +0.111 C 
ATOM      9  C   UNL     1      -0.884  -1.367  -0.515  0.00  0.00    +0.164 C 
ATOM     11  C   UNL     1       0.421  -0.603  -0.341  0.00  0.00    +0.165 C 
ATOM     12  C   UNL     1      -1.256   0.921  -0.905  0.00  0.00    +0.181 C 
ENDROOT
BRANCH   9   3
ATOM      3  O   UNL     1      -0.983  -2.455   0.384  0.00  0.00    -0.388 OA
ATOM     25  H   UNL     1      -0.893  -2.112   1.289  0.00  0.00    +0.210 HD
ENDBRANCH   9   3
BRANCH   8   5
ATOM      5  N   UNL     1      -3.229  -0.570  -0.747  0.00  0.00    -0.306 NA
ATOM     23  H   UNL     1      -3.477  -1.539  -0.549  0.00  0.00    +0.123 HD
BRANCH   5  10
ATOM      6  N   UNL     1      -6.898   0.733   0.969  0.00  0.00    -0.316 NA
ATOM     10  C   UNL     1      -4.223   0.323  -0.157  0.00  0.00    +0.056 C 
ATOM     13  C   UNL     1      -5.479   0.373  -1.033  0.00  0.00    +0.034 C 
ATOM     14  C   UNL     1      -4.589  -0.123   1.264  0.00  0.00    +0.034 C 
ATOM     15  C   UNL     1      -6.570   1.218  -0.374  0.00  0.00    +0.082 C 
ATOM     16  C   UNL     1      -5.715   0.741   1.833  0.00  0.00    +0.082 C 
ATOM     24  H   UNL     1      -7.615   1.332   1.377  0.00  0.00    +0.122 HD
ENDBRANCH   5  10
ENDBRANCH   8   5
BRANCH  11  17
ATOM     17  C   UNL     1       1.581  -1.211  -1.108  0.00  0.00    +0.138 C 
BRANCH  17   7
ATOM      4  O   UNL     1       3.546  -1.611   0.946  0.00  0.00    -0.270 OA
ATOM      7  N   UNL     1       2.786  -0.457  -0.917  0.00  0.00    -0.308 N 
ATOM     18  C   UNL     1       3.686  -0.722   0.110  0.00  0.00    +0.251 C 
ATOM     26  H   UNL     1       2.959   0.305  -1.564  0.00  0.00    +0.149 HD
BRANCH  18  19
ATOM      1  S   UNL     1       6.029  -0.092   1.424  0.00  0.00    -0.092 S 
ATOM     19  C   UNL     1       4.873   0.168   0.188  0.00  0.00    +0.074 A 
ATOM     20  C   UNL     1       5.213   1.228  -0.623  0.00  0.00    +0.021 A 
ATOM     21  C   UNL     1       6.438   1.836  -0.224  0.00  0.00    +0.008 A 
ATOM     22  C   UNL     1       6.988   1.217   0.877  0.00  0.00    +0.046 A 
ENDBRANCH  18  19
ENDBRANCH  17   7
ENDBRANCH  11  17
TORSDOF 6
