MODEL 1
REMARK VINA RESULT:      -7.2      0.000      0.000
REMARK  Name = 45361144
REMARK  7 active torsions:
REMARK  status: ('A' for Active; 'I' for Inactive)
REMARK    1  A    between atoms: N_4  and  C_18
REMARK    2  A    between atoms: N_5  and  C_17
REMARK    3  A    between atoms: N_8  and  C_30
REMARK    4  A    between atoms: C_13  and  C_16
REMARK    5  A    between atoms: C_16  and  C_19
REMARK    6  A    between atoms: C_17  and  C_20
REMARK    7  A    between atoms: C_19  and  C_21
REMARK                            x       y       z     vdW  Elec       q    Type
REMARK                         _______ _______ _______ _____ _____    ______ ____
ROOT
ATOM      2  O   UNL     1     -13.591   5.070  22.489  0.00  0.00    -0.274 OA
ATOM      4  N   UNL     1     -17.192   3.655  22.621  0.00  0.00    -0.296 NA
ATOM      5  N   UNL     1     -15.349   6.249  20.812  0.00  0.00    -0.286 NA
ATOM      6  N   UNL     1     -15.083   4.823  24.206  0.00  0.00    -0.312 N 
ATOM      9  C   UNL     1     -17.090   4.922  21.863  0.00  0.00    +0.084 C 
ATOM     10  C   UNL     1     -15.869   5.850  22.134  0.00  0.00    +0.161 C 
ATOM     11  C   UNL     1     -17.017   4.735  20.336  0.00  0.00    +0.036 C 
ATOM     12  C   UNL     1     -16.424   6.040  19.848  0.00  0.00    +0.087 C 
ATOM     13  C   UNL     1     -17.348   3.827  24.091  0.00  0.00    +0.074 C 
ATOM     14  C   UNL     1     -14.733   5.209  22.925  0.00  0.00    +0.232 C 
ATOM     15  C   UNL     1     -16.437   4.898  24.720  0.00  0.00    +0.123 C 
ATOM     18  C   UNL     1     -18.277   2.813  22.087  0.00  0.00    +0.105 C 
ATOM     32  H   UNL     1     -14.353   4.462  24.811  0.00  0.00    +0.149 HD
ENDROOT
BRANCH  13  16
ATOM     16  C   UNL     1     -17.073   2.496  24.823  0.00  0.00    +0.029 C 
BRANCH  16  19
ATOM     19  C   UNL     1     -17.518   2.543  26.271  0.00  0.00    +0.097 C 
BRANCH  19  21
ATOM      3  O   UNL     1     -16.837   0.299  26.614  0.00  0.00    -0.276 OA
ATOM      7  N   UNL     1     -16.348   1.801  28.316  0.00  0.00    -0.299 N 
ATOM      8  N   UNL     1     -14.600   2.581  30.448  0.00  0.00    -0.302 NA
ATOM     21  C   UNL     1     -16.874   1.442  27.076  0.00  0.00    +0.216 C 
ATOM     22  C   UNL     1     -16.492   3.115  28.949  0.00  0.00    +0.123 C 
ATOM     23  C   UNL     1     -15.703   0.792  29.154  0.00  0.00    +0.123 C 
ATOM     26  C   UNL     1     -15.164   3.591  29.542  0.00  0.00    +0.103 C 
ATOM     27  C   UNL     1     -14.389   1.312  29.737  0.00  0.00    +0.103 C 
ATOM     30  C   UNL     1     -13.347   3.057  31.032  0.00  0.00    +0.105 C 
ENDBRANCH  19  21
ENDBRANCH  16  19
ENDBRANCH  13  16
BRANCH   5  17
ATOM     17  C   UNL     1     -14.840   7.614  20.779  0.00  0.00    +0.120 C 
BRANCH  17  20
ATOM      1 CL   UNL     1     -12.571   8.463  16.165  0.00  0.00    -0.084 Cl
ATOM     20  C   UNL     1     -13.578   7.722  19.964  0.00  0.00    -0.032 A 
ATOM     24  C   UNL     1     -13.651   8.009  18.601  0.00  0.00    +0.025 A 
ATOM     25  C   UNL     1     -12.337   7.534  20.572  0.00  0.00    +0.005 A 
ATOM     28  C   UNL     1     -12.483   8.110  17.847  0.00  0.00    +0.041 A 
ATOM     29  C   UNL     1     -11.169   7.634  19.818  0.00  0.00    +0.002 A 
ATOM     31  C   UNL     1     -11.240   7.923  18.455  0.00  0.00    +0.020 A 
ENDBRANCH  17  20
ENDBRANCH   5  17
TORSDOF 5
ENDMDL
MODEL 2
REMARK VINA RESULT:      -7.2     17.493     19.011
REMARK  Name = 45361144
REMARK  7 active torsions:
REMARK  status: ('A' for Active; 'I' for Inactive)
REMARK    1  A    between atoms: N_4  and  C_18
REMARK    2  A    between atoms: N_5  and  C_17
REMARK    3  A    between atoms: N_8  and  C_30
REMARK    4  A    between atoms: C_13  and  C_16
REMARK    5  A    between atoms: C_16  and  C_19
REMARK    6  A    between atoms: C_17  and  C_20
REMARK    7  A    between atoms: C_19  and  C_21
REMARK                            x       y       z     vdW  Elec       q    Type
REMARK                         _______ _______ _______ _____ _____    ______ ____
ROOT
ATOM      2  O   UNL     1      -5.706  -9.277  16.142  0.00  0.00    -0.274 OA
ATOM      4  N   UNL     1      -8.614 -10.617  18.319  0.00  0.00    -0.296 NA
ATOM      5  N   UNL     1      -5.460 -11.849  16.928  0.00  0.00    -0.286 NA
ATOM      6  N   UNL     1      -7.964  -9.388  15.790  0.00  0.00    -0.312 N 
ATOM      9  C   UNL     1      -7.705 -11.682  17.838  0.00  0.00    +0.084 C 
ATOM     10  C   UNL     1      -6.822 -11.394  16.589  0.00  0.00    +0.161 C 
ATOM     11  C   UNL     1      -6.656 -12.125  18.876  0.00  0.00    +0.036 C 
ATOM     12  C   UNL     1      -5.587 -12.790  18.035  0.00  0.00    +0.087 C 
ATOM     13  C   UNL     1      -9.685 -10.241  17.355  0.00  0.00    +0.074 C 
ATOM     14  C   UNL     1      -6.750  -9.927  16.172  0.00  0.00    +0.232 C 
ATOM     15  C   UNL     1      -9.223 -10.101  15.892  0.00  0.00    +0.123 C 
ATOM     18  C   UNL     1      -9.202 -10.979  19.620  0.00  0.00    +0.105 C 
ATOM     32  H   UNL     1      -7.972  -8.440  15.428  0.00  0.00    +0.149 HD
ENDROOT
BRANCH  13  16
ATOM     16  C   UNL     1     -10.334  -8.902  17.766  0.00  0.00    +0.029 C 
BRANCH  16  19
ATOM     19  C   UNL     1     -11.528  -8.560  16.896  0.00  0.00    +0.097 C 
BRANCH  19  21
ATOM      3  O   UNL     1     -10.110  -6.948  15.892  0.00  0.00    -0.276 OA
ATOM      7  N   UNL     1     -12.394  -6.656  15.583  0.00  0.00    -0.299 N 
ATOM      8  N   UNL     1     -14.525  -5.715  13.915  0.00  0.00    -0.302 NA
ATOM     21  C   UNL     1     -11.272  -7.317  16.082  0.00  0.00    +0.216 C 
ATOM     22  C   UNL     1     -13.785  -6.991  15.899  0.00  0.00    +0.123 C 
ATOM     23  C   UNL     1     -12.229  -5.446  14.780  0.00  0.00    +0.123 C 
ATOM     26  C   UNL     1     -14.654  -6.988  14.640  0.00  0.00    +0.103 C 
ATOM     27  C   UNL     1     -13.123  -5.477  13.541  0.00  0.00    +0.103 C 
ATOM     30  C   UNL     1     -15.381  -5.711  12.730  0.00  0.00    +0.105 C 
ENDBRANCH  19  21
ENDBRANCH  16  19
ENDBRANCH  13  16
BRANCH   5  17
ATOM     17  C   UNL     1      -4.746 -12.426  15.797  0.00  0.00    +0.120 C 
BRANCH  17  20
ATOM      1 CL   UNL     1      -1.860 -10.245  12.045  0.00  0.00    -0.084 Cl
ATOM     20  C   UNL     1      -3.549 -11.598  15.409  0.00  0.00    -0.032 A 
ATOM     24  C   UNL     1      -3.289 -11.335  14.064  0.00  0.00    +0.025 A 
ATOM     25  C   UNL     1      -2.701 -11.093  16.395  0.00  0.00    +0.005 A 
ATOM     28  C   UNL     1      -2.182 -10.568  13.705  0.00  0.00    +0.041 A 
ATOM     29  C   UNL     1      -1.593 -10.326  16.035  0.00  0.00    +0.002 A 
ATOM     31  C   UNL     1      -1.333 -10.062  14.690  0.00  0.00    +0.020 A 
ENDBRANCH  17  20
ENDBRANCH   5  17
TORSDOF 5
ENDMDL
MODEL 3
REMARK VINA RESULT:      -7.0     19.934     20.813
REMARK  Name = 45361144
REMARK  7 active torsions:
REMARK  status: ('A' for Active; 'I' for Inactive)
REMARK    1  A    between atoms: N_4  and  C_18
REMARK    2  A    between atoms: N_5  and  C_17
REMARK    3  A    between atoms: N_8  and  C_30
REMARK    4  A    between atoms: C_13  and  C_16
REMARK    5  A    between atoms: C_16  and  C_19
REMARK    6  A    between atoms: C_17  and  C_20
REMARK    7  A    between atoms: C_19  and  C_21
REMARK                            x       y       z     vdW  Elec       q    Type
REMARK                         _______ _______ _______ _____ _____    ______ ____
ROOT
ATOM      2  O   UNL     1      -1.148 -10.719  15.538  0.00  0.00    -0.274 OA
ATOM      4  N   UNL     1      -4.399 -12.642  16.390  0.00  0.00    -0.296 NA
ATOM      5  N   UNL     1      -2.170 -12.195  13.521  0.00  0.00    -0.286 NA
ATOM      6  N   UNL     1      -3.179 -10.027  16.332  0.00  0.00    -0.312 N 
ATOM      9  C   UNL     1      -4.090 -12.628  14.942  0.00  0.00    +0.084 C 
ATOM     10  C   UNL     1      -3.145 -11.518  14.397  0.00  0.00    +0.161 C 
ATOM     11  C   UNL     1      -3.404 -13.910  14.436  0.00  0.00    +0.036 C 
ATOM     12  C   UNL     1      -2.757 -13.475  13.138  0.00  0.00    +0.087 C 
ATOM     13  C   UNL     1      -5.138 -11.444  16.874  0.00  0.00    +0.074 C 
ATOM     14  C   UNL     1      -2.376 -10.743  15.464  0.00  0.00    +0.232 C 
ATOM     15  C   UNL     1      -4.627 -10.098  16.323  0.00  0.00    +0.123 C 
ATOM     18  C   UNL     1      -5.121 -13.871  16.759  0.00  0.00    +0.105 C 
ATOM     32  H   UNL     1      -2.727  -9.429  17.016  0.00  0.00    +0.149 HD
ENDROOT
BRANCH  13  16
ATOM     16  C   UNL     1      -5.085 -11.363  18.415  0.00  0.00    +0.029 C 
BRANCH  16  19
ATOM     19  C   UNL     1      -6.021 -10.302  18.959  0.00  0.00    +0.097 C 
BRANCH  19  21
ATOM      3  O   UNL     1      -7.592 -11.670  20.087  0.00  0.00    -0.276 OA
ATOM      7  N   UNL     1      -8.406 -10.395  18.325  0.00  0.00    -0.299 N 
ATOM      8  N   UNL     1     -10.598  -8.959  17.167  0.00  0.00    -0.302 NA
ATOM     21  C   UNL     1      -7.406 -10.856  19.180  0.00  0.00    +0.216 C 
ATOM     22  C   UNL     1      -8.194  -9.534  17.158  0.00  0.00    +0.123 C 
ATOM     23  C   UNL     1      -9.776 -10.882  18.477  0.00  0.00    +0.123 C 
ATOM     26  C   UNL     1      -9.234  -8.414  17.102  0.00  0.00    +0.103 C 
ATOM     27  C   UNL     1     -10.784  -9.735  18.402  0.00  0.00    +0.103 C 
ATOM     30  C   UNL     1     -11.585  -7.884  17.082  0.00  0.00    +0.105 C 
ENDBRANCH  19  21
ENDBRANCH  16  19
ENDBRANCH  13  16
BRANCH   5  17
ATOM     17  C   UNL     1      -1.785 -11.400  12.362  0.00  0.00    +0.120 C 
BRANCH  17  20
ATOM      1 CL   UNL     1      -5.229  -8.067  10.316  0.00  0.00    -0.084 Cl
ATOM     20  C   UNL     1      -2.949 -11.155  11.438  0.00  0.00    -0.032 A 
ATOM     24  C   UNL     1      -3.487  -9.874  11.319  0.00  0.00    +0.025 A 
ATOM     25  C   UNL     1      -3.489 -12.210  10.702  0.00  0.00    +0.005 A 
ATOM     28  C   UNL     1      -4.564  -9.647  10.463  0.00  0.00    +0.041 A 
ATOM     29  C   UNL     1      -4.567 -11.983   9.847  0.00  0.00    +0.002 A 
ATOM     31  C   UNL     1      -5.105 -10.702   9.726  0.00  0.00    +0.020 A 
ENDBRANCH  17  20
ENDBRANCH   5  17
TORSDOF 5
ENDMDL
MODEL 4
REMARK VINA RESULT:      -6.9     29.191     32.802
REMARK  Name = 45361144
REMARK  7 active torsions:
REMARK  status: ('A' for Active; 'I' for Inactive)
REMARK    1  A    between atoms: N_4  and  C_18
REMARK    2  A    between atoms: N_5  and  C_17
REMARK    3  A    between atoms: N_8  and  C_30
REMARK    4  A    between atoms: C_13  and  C_16
REMARK    5  A    between atoms: C_16  and  C_19
REMARK    6  A    between atoms: C_17  and  C_20
REMARK    7  A    between atoms: C_19  and  C_21
REMARK                            x       y       z     vdW  Elec       q    Type
REMARK                         _______ _______ _______ _____ _____    ______ ____
ROOT
ATOM      2  O   UNL     1      15.455  10.805  19.032  0.00  0.00    -0.274 OA
ATOM      4  N   UNL     1      16.721   7.190  19.596  0.00  0.00    -0.296 NA
ATOM      5  N   UNL     1      13.694   8.861  18.394  0.00  0.00    -0.286 NA
ATOM      6  N   UNL     1      16.278   9.735  20.880  0.00  0.00    -0.312 N 
ATOM      9  C   UNL     1      15.267   7.266  19.330  0.00  0.00    +0.084 C 
ATOM     10  C   UNL     1      14.537   8.618  19.580  0.00  0.00    +0.161 C 
ATOM     11  C   UNL     1      14.880   6.957  17.872  0.00  0.00    +0.036 C 
ATOM     12  C   UNL     1      13.503   7.574  17.735  0.00  0.00    +0.087 C 
ATOM     13  C   UNL     1      17.099   7.403  21.020  0.00  0.00    +0.074 C 
ATOM     14  C   UNL     1      15.456   9.822  19.771  0.00  0.00    +0.232 C 
ATOM     15  C   UNL     1      16.361   8.558  21.722  0.00  0.00    +0.123 C 
ATOM     18  C   UNL     1      17.277   5.918  19.103  0.00  0.00    +0.105 C 
ATOM     32  H   UNL     1      16.857  10.537  21.108  0.00  0.00    +0.149 HD
ENDROOT
BRANCH  13  16
ATOM     16  C   UNL     1      18.613   7.678  21.140  0.00  0.00    +0.029 C 
BRANCH  16  19
ATOM     19  C   UNL     1      19.290   6.717  22.097  0.00  0.00    +0.097 C 
BRANCH  19  21
ATOM      3  O   UNL     1      21.299   7.879  22.577  0.00  0.00    -0.276 OA
ATOM      7  N   UNL     1      21.514   5.861  21.446  0.00  0.00    -0.299 N 
ATOM      8  N   UNL     1      23.080   3.521  20.916  0.00  0.00    -0.302 NA
ATOM     21  C   UNL     1      20.789   6.879  22.065  0.00  0.00    +0.216 C 
ATOM     22  C   UNL     1      20.934   4.732  20.714  0.00  0.00    +0.123 C 
ATOM     23  C   UNL     1      22.972   5.943  21.377  0.00  0.00    +0.123 C 
ATOM     26  C   UNL     1      21.623   3.419  21.088  0.00  0.00    +0.103 C 
ATOM     27  C   UNL     1      23.620   4.609  21.745  0.00  0.00    +0.103 C 
ATOM     30  C   UNL     1      23.726   2.253  21.248  0.00  0.00    +0.105 C 
ENDBRANCH  19  21
ENDBRANCH  16  19
ENDBRANCH  13  16
BRANCH   5  17
ATOM     17  C   UNL     1      12.427   9.509  18.709  0.00  0.00    +0.120 C 
BRANCH  17  20
ATOM      1 CL   UNL     1      10.824   5.517  21.651  0.00  0.00    -0.084 Cl
ATOM     20  C   UNL     1      11.855   9.017  20.013  0.00  0.00    -0.032 A 
ATOM     24  C   UNL     1      11.631   7.654  20.206  0.00  0.00    +0.025 A 
ATOM     25  C   UNL     1      11.550   9.925  21.027  0.00  0.00    +0.005 A 
ATOM     28  C   UNL     1      11.103   7.199  21.413  0.00  0.00    +0.041 A 
ATOM     29  C   UNL     1      11.020   9.470  22.234  0.00  0.00    +0.002 A 
ATOM     31  C   UNL     1      10.796   8.106  22.428  0.00  0.00    +0.020 A 
ENDBRANCH  17  20
ENDBRANCH   5  17
TORSDOF 5
ENDMDL
MODEL 5
REMARK VINA RESULT:      -6.9     31.020     34.819
REMARK  Name = 45361144
REMARK  7 active torsions:
REMARK  status: ('A' for Active; 'I' for Inactive)
REMARK    1  A    between atoms: N_4  and  C_18
REMARK    2  A    between atoms: N_5  and  C_17
REMARK    3  A    between atoms: N_8  and  C_30
REMARK    4  A    between atoms: C_13  and  C_16
REMARK    5  A    between atoms: C_16  and  C_19
REMARK    6  A    between atoms: C_17  and  C_20
REMARK    7  A    between atoms: C_19  and  C_21
REMARK                            x       y       z     vdW  Elec       q    Type
REMARK                         _______ _______ _______ _____ _____    ______ ____
ROOT
ATOM      2  O   UNL     1      20.196   6.493  23.783  0.00  0.00    -0.274 OA
ATOM      4  N   UNL     1      17.867   6.836  20.709  0.00  0.00    -0.296 NA
ATOM      5  N   UNL     1      21.189   5.503  21.475  0.00  0.00    -0.286 NA
ATOM      6  N   UNL     1      19.191   8.304  22.811  0.00  0.00    -0.312 N 
ATOM      9  C   UNL     1      19.247   6.436  20.355  0.00  0.00    +0.084 C 
ATOM     10  C   UNL     1      20.389   6.738  21.369  0.00  0.00    +0.161 C 
ATOM     11  C   UNL     1      19.420   4.924  20.119  0.00  0.00    +0.036 C 
ATOM     12  C   UNL     1      20.910   4.710  20.283  0.00  0.00    +0.087 C 
ATOM     13  C   UNL     1      17.669   8.304  20.856  0.00  0.00    +0.074 C 
ATOM     14  C   UNL     1      19.924   7.133  22.768  0.00  0.00    +0.232 C 
ATOM     15  C   UNL     1      18.785   9.036  21.627  0.00  0.00    +0.123 C 
ATOM     18  C   UNL     1      16.899   6.284  19.746  0.00  0.00    +0.105 C 
ATOM     32  H   UNL     1      18.919   8.662  23.721  0.00  0.00    +0.149 HD
ENDROOT
BRANCH  13  16
ATOM     16  C   UNL     1      16.337   8.600  21.578  0.00  0.00    +0.029 C 
BRANCH  16  19
ATOM     19  C   UNL     1      15.374   9.370  20.696  0.00  0.00    +0.097 C 
BRANCH  19  21
ATOM      3  O   UNL     1      13.475   8.171  21.453  0.00  0.00    -0.276 OA
ATOM      7  N   UNL     1      13.696   8.417  19.154  0.00  0.00    -0.299 N 
ATOM      8  N   UNL     1      12.425   8.673  16.599  0.00  0.00    -0.302 NA
ATOM     21  C   UNL     1      14.097   8.597  20.478  0.00  0.00    +0.216 C 
ATOM     22  C   UNL     1      14.477   8.793  17.973  0.00  0.00    +0.123 C 
ATOM     23  C   UNL     1      12.467   7.682  18.859  0.00  0.00    +0.123 C 
ATOM     26  C   UNL     1      13.601   9.491  16.931  0.00  0.00    +0.103 C 
ATOM     27  C   UNL     1      11.628   8.405  17.805  0.00  0.00    +0.103 C 
ATOM     30  C   UNL     1      11.610   9.334  15.581  0.00  0.00    +0.105 C 
ENDBRANCH  19  21
ENDBRANCH  16  19
ENDBRANCH  13  16
BRANCH   5  17
ATOM     17  C   UNL     1      22.614   5.751  21.649  0.00  0.00    +0.120 C 
BRANCH  17  20
ATOM      1 CL   UNL     1      25.905   1.710  21.598  0.00  0.00    -0.084 Cl
ATOM     20  C   UNL     1      23.291   4.630  22.394  0.00  0.00    -0.032 A 
ATOM     24  C   UNL     1      24.181   3.788  21.729  0.00  0.00    +0.025 A 
ATOM     25  C   UNL     1      23.027   4.436  23.750  0.00  0.00    +0.005 A 
ATOM     28  C   UNL     1      24.808   2.751  22.419  0.00  0.00    +0.041 A 
ATOM     29  C   UNL     1      23.654   3.399  24.440  0.00  0.00    +0.002 A 
ATOM     31  C   UNL     1      24.545   2.556  23.776  0.00  0.00    +0.020 A 
ENDBRANCH  17  20
ENDBRANCH   5  17
TORSDOF 5
ENDMDL
MODEL 6
REMARK VINA RESULT:      -6.7     20.403     22.437
REMARK  Name = 45361144
REMARK  7 active torsions:
REMARK  status: ('A' for Active; 'I' for Inactive)
REMARK    1  A    between atoms: N_4  and  C_18
REMARK    2  A    between atoms: N_5  and  C_17
REMARK    3  A    between atoms: N_8  and  C_30
REMARK    4  A    between atoms: C_13  and  C_16
REMARK    5  A    between atoms: C_16  and  C_19
REMARK    6  A    between atoms: C_17  and  C_20
REMARK    7  A    between atoms: C_19  and  C_21
REMARK                            x       y       z     vdW  Elec       q    Type
REMARK                         _______ _______ _______ _____ _____    ______ ____
ROOT
ATOM      2  O   UNL     1      -5.467  -9.877  15.051  0.00  0.00    -0.274 OA
ATOM      4  N   UNL     1      -3.601 -13.246  14.662  0.00  0.00    -0.296 NA
ATOM      5  N   UNL     1      -6.029 -11.724  16.939  0.00  0.00    -0.286 NA
ATOM      6  N   UNL     1      -3.242 -10.395  14.917  0.00  0.00    -0.312 N 
ATOM      9  C   UNL     1      -4.283 -13.104  15.968  0.00  0.00    +0.084 C 
ATOM     10  C   UNL     1      -4.632 -11.671  16.468  0.00  0.00    +0.161 C 
ATOM     11  C   UNL     1      -5.649 -13.810  16.041  0.00  0.00    +0.036 C 
ATOM     12  C   UNL     1      -6.339 -13.125  17.202  0.00  0.00    +0.087 C 
ATOM     13  C   UNL     1      -2.242 -12.640  14.607  0.00  0.00    +0.074 C 
ATOM     14  C   UNL     1      -4.520 -10.573  15.414  0.00  0.00    +0.232 C 
ATOM     15  C   UNL     1      -2.124 -11.251  15.263  0.00  0.00    +0.123 C 
ATOM     18  C   UNL     1      -3.546 -14.660  14.252  0.00  0.00    +0.105 C 
ATOM     32  H   UNL     1      -3.085  -9.628  14.270  0.00  0.00    +0.149 HD
ENDROOT
BRANCH  13  16
ATOM     16  C   UNL     1      -1.771 -12.503  13.143  0.00  0.00    +0.029 C 
BRANCH  16  19
ATOM     19  C   UNL     1      -2.924 -12.214  12.202  0.00  0.00    +0.097 C 
BRANCH  19  21
ATOM      3  O   UNL     1      -1.844 -10.127  11.896  0.00  0.00    -0.276 OA
ATOM      7  N   UNL     1      -3.906 -10.388  10.859  0.00  0.00    -0.299 N 
ATOM      8  N   UNL     1      -5.627  -9.737   8.663  0.00  0.00    -0.302 NA
ATOM     21  C   UNL     1      -2.835 -10.816  11.644  0.00  0.00    +0.216 C 
ATOM     22  C   UNL     1      -5.153 -11.129  10.651  0.00  0.00    +0.123 C 
ATOM     23  C   UNL     1      -3.893  -9.047  10.278  0.00  0.00    +0.123 C 
ATOM     26  C   UNL     1      -5.566 -11.112   9.178  0.00  0.00    +0.103 C 
ATOM     27  C   UNL     1      -4.324  -9.074   8.811  0.00  0.00    +0.103 C 
ATOM     30  C   UNL     1      -6.051  -9.731   7.264  0.00  0.00    +0.105 C 
ENDBRANCH  19  21
ENDBRANCH  16  19
ENDBRANCH  13  16
BRANCH   5  17
ATOM     17  C   UNL     1      -6.281 -10.879  18.099  0.00  0.00    +0.120 C 
BRANCH  17  20
ATOM      1 CL   UNL     1      -9.797  -7.498  16.264  0.00  0.00    -0.084 Cl
ATOM     20  C   UNL     1      -7.692 -10.353  18.113  0.00  0.00    -0.032 A 
ATOM     24  C   UNL     1      -8.049  -9.294  17.279  0.00  0.00    +0.025 A 
ATOM     25  C   UNL     1      -8.641 -10.925  18.960  0.00  0.00    +0.005 A 
ATOM     28  C   UNL     1      -9.355  -8.807  17.292  0.00  0.00    +0.041 A 
ATOM     29  C   UNL     1      -9.947 -10.437  18.973  0.00  0.00    +0.002 A 
ATOM     31  C   UNL     1     -10.306  -9.378  18.139  0.00  0.00    +0.020 A 
ENDBRANCH  17  20
ENDBRANCH   5  17
TORSDOF 5
ENDMDL
MODEL 7
REMARK VINA RESULT:      -6.6     19.872     20.831
REMARK  Name = 45361144
REMARK  7 active torsions:
REMARK  status: ('A' for Active; 'I' for Inactive)
REMARK    1  A    between atoms: N_4  and  C_18
REMARK    2  A    between atoms: N_5  and  C_17
REMARK    3  A    between atoms: N_8  and  C_30
REMARK    4  A    between atoms: C_13  and  C_16
REMARK    5  A    between atoms: C_16  and  C_19
REMARK    6  A    between atoms: C_17  and  C_20
REMARK    7  A    between atoms: C_19  and  C_21
REMARK                            x       y       z     vdW  Elec       q    Type
REMARK                         _______ _______ _______ _____ _____    ______ ____
ROOT
ATOM      2  O   UNL     1      -6.794  -8.812  12.001  0.00  0.00    -0.274 OA
ATOM      4  N   UNL     1      -3.321 -10.354  12.742  0.00  0.00    -0.296 NA
ATOM      5  N   UNL     1      -5.466  -9.738   9.840  0.00  0.00    -0.286 NA
ATOM      6  N   UNL     1      -6.129 -10.505  13.389  0.00  0.00    -0.312 N 
ATOM      9  C   UNL     1      -3.800 -10.625  11.368  0.00  0.00    +0.084 C 
ATOM     10  C   UNL     1      -5.327 -10.523  11.082  0.00  0.00    +0.161 C 
ATOM     11  C   UNL     1      -3.211  -9.682  10.302  0.00  0.00    +0.036 C 
ATOM     12  C   UNL     1      -4.184  -9.803   9.148  0.00  0.00    +0.087 C 
ATOM     13  C   UNL     1      -3.818 -11.312  13.768  0.00  0.00    +0.074 C 
ATOM     14  C   UNL     1      -6.145  -9.842  12.176  0.00  0.00    +0.232 C 
ATOM     15  C   UNL     1      -5.311 -11.674  13.650  0.00  0.00    +0.123 C 
ATOM     18  C   UNL     1      -1.850 -10.283  12.778  0.00  0.00    +0.105 C 
ATOM     32  H   UNL     1      -6.716 -10.147  14.136  0.00  0.00    +0.149 HD
ENDROOT
BRANCH  13  16
ATOM     16  C   UNL     1      -3.587 -10.751  15.187  0.00  0.00    +0.029 C 
BRANCH  16  19
ATOM     19  C   UNL     1      -4.463 -11.436  16.216  0.00  0.00    +0.097 C 
BRANCH  19  21
ATOM      3  O   UNL     1      -5.588  -9.353  16.327  0.00  0.00    -0.276 OA
ATOM      7  N   UNL     1      -6.123 -10.908  17.967  0.00  0.00    -0.299 N 
ATOM      8  N   UNL     1      -8.086 -11.980  19.759  0.00  0.00    -0.302 NA
ATOM     21  C   UNL     1      -5.438 -10.467  16.836  0.00  0.00    +0.216 C 
ATOM     22  C   UNL     1      -5.873 -12.168  18.672  0.00  0.00    +0.123 C 
ATOM     23  C   UNL     1      -7.089 -10.028  18.623  0.00  0.00    +0.123 C 
ATOM     26  C   UNL     1      -7.184 -12.876  19.021  0.00  0.00    +0.103 C 
ATOM     27  C   UNL     1      -8.377 -10.776  18.967  0.00  0.00    +0.103 C 
ATOM     30  C   UNL     1      -9.322 -12.674  20.113  0.00  0.00    +0.105 C 
ENDBRANCH  19  21
ENDBRANCH  16  19
ENDBRANCH  13  16
BRANCH   5  17
ATOM     17  C   UNL     1      -6.568 -10.181   8.997  0.00  0.00    +0.120 C 
BRANCH  17  20
ATOM      1 CL   UNL     1      -7.963  -8.223   4.373  0.00  0.00    -0.084 Cl
ATOM     20  C   UNL     1      -7.159  -9.046   8.204  0.00  0.00    -0.032 A 
ATOM     24  C   UNL     1      -7.274  -9.148   6.818  0.00  0.00    +0.025 A 
ATOM     25  C   UNL     1      -7.592  -7.891   8.856  0.00  0.00    +0.005 A 
ATOM     28  C   UNL     1      -7.822  -8.097   6.084  0.00  0.00    +0.041 A 
ATOM     29  C   UNL     1      -8.139  -6.839   8.122  0.00  0.00    +0.002 A 
ATOM     31  C   UNL     1      -8.255  -6.942   6.735  0.00  0.00    +0.020 A 
ENDBRANCH  17  20
ENDBRANCH   5  17
TORSDOF 5
ENDMDL
MODEL 8
REMARK VINA RESULT:      -6.6     27.644     30.011
REMARK  Name = 45361144
REMARK  7 active torsions:
REMARK  status: ('A' for Active; 'I' for Inactive)
REMARK    1  A    between atoms: N_4  and  C_18
REMARK    2  A    between atoms: N_5  and  C_17
REMARK    3  A    between atoms: N_8  and  C_30
REMARK    4  A    between atoms: C_13  and  C_16
REMARK    5  A    between atoms: C_16  and  C_19
REMARK    6  A    between atoms: C_17  and  C_20
REMARK    7  A    between atoms: C_19  and  C_21
REMARK                            x       y       z     vdW  Elec       q    Type
REMARK                         _______ _______ _______ _____ _____    ______ ____
ROOT
ATOM      2  O   UNL     1      10.535   8.467  19.373  0.00  0.00    -0.274 OA
ATOM      4  N   UNL     1      12.370  11.712  20.419  0.00  0.00    -0.296 NA
ATOM      5  N   UNL     1      13.082   8.677  18.500  0.00  0.00    -0.286 NA
ATOM      6  N   UNL     1      10.943   9.411  21.417  0.00  0.00    -0.312 N 
ATOM      9  C   UNL     1      13.273  10.688  19.847  0.00  0.00    +0.084 C 
ATOM     10  C   UNL     1      12.805   9.203  19.851  0.00  0.00    +0.161 C 
ATOM     11  C   UNL     1      13.614  10.913  18.362  0.00  0.00    +0.036 C 
ATOM     12  C   UNL     1      14.083   9.550  17.898  0.00  0.00    +0.087 C 
ATOM     13  C   UNL     1      12.101  11.553  21.875  0.00  0.00    +0.074 C 
ATOM     14  C   UNL     1      11.325   8.992  20.156  0.00  0.00    +0.232 C 
ATOM     15  C   UNL     1      11.829  10.107  22.331  0.00  0.00    +0.123 C 
ATOM     18  C   UNL     1      12.871  13.068  20.137  0.00  0.00    +0.105 C 
ATOM     32  H   UNL     1       9.989   9.228  21.711  0.00  0.00    +0.149 HD
ENDROOT
BRANCH  13  16
ATOM     16  C   UNL     1      10.887  12.408  22.295  0.00  0.00    +0.029 C 
BRANCH  16  19
ATOM     19  C   UNL     1      11.270  13.487  23.288  0.00  0.00    +0.097 C 
BRANCH  19  21
ATOM      3  O   UNL     1      11.085  12.173  25.252  0.00  0.00    -0.276 OA
ATOM      7  N   UNL     1      13.139  13.190  24.876  0.00  0.00    -0.299 N 
ATOM      8  N   UNL     1      15.987  13.112  25.181  0.00  0.00    -0.302 NA
ATOM     21  C   UNL     1      11.814  12.889  24.562  0.00  0.00    +0.216 C 
ATOM     22  C   UNL     1      13.988  14.140  24.151  0.00  0.00    +0.123 C 
ATOM     23  C   UNL     1      13.741  12.645  26.092  0.00  0.00    +0.123 C 
ATOM     26  C   UNL     1      15.386  13.564  23.918  0.00  0.00    +0.103 C 
ATOM     27  C   UNL     1      15.140  12.093  25.818  0.00  0.00    +0.103 C 
ATOM     30  C   UNL     1      17.333  12.591  24.952  0.00  0.00    +0.105 C 
ENDBRANCH  19  21
ENDBRANCH  16  19
ENDBRANCH  13  16
BRANCH   5  17
ATOM     17  C   UNL     1      13.498   7.281  18.498  0.00  0.00    +0.120 C 
BRANCH  17  20
ATOM      1 CL   UNL     1      18.411   5.783  19.380  0.00  0.00    -0.084 Cl
ATOM     20  C   UNL     1      14.611   7.027  19.481  0.00  0.00    -0.032 A 
ATOM     24  C   UNL     1      15.851   6.576  19.029  0.00  0.00    +0.025 A 
ATOM     25  C   UNL     1      14.402   7.243  20.843  0.00  0.00    +0.005 A 
ATOM     28  C   UNL     1      16.882   6.341  19.938  0.00  0.00    +0.041 A 
ATOM     29  C   UNL     1      15.432   7.007  21.753  0.00  0.00    +0.002 A 
ATOM     31  C   UNL     1      16.673   6.557  21.301  0.00  0.00    +0.020 A 
ENDBRANCH  17  20
ENDBRANCH   5  17
TORSDOF 5
ENDMDL
MODEL 9
REMARK VINA RESULT:      -6.5     18.415     20.056
REMARK  Name = 45361144
REMARK  7 active torsions:
REMARK  status: ('A' for Active; 'I' for Inactive)
REMARK    1  A    between atoms: N_4  and  C_18
REMARK    2  A    between atoms: N_5  and  C_17
REMARK    3  A    between atoms: N_8  and  C_30
REMARK    4  A    between atoms: C_13  and  C_16
REMARK    5  A    between atoms: C_16  and  C_19
REMARK    6  A    between atoms: C_17  and  C_20
REMARK    7  A    between atoms: C_19  and  C_21
REMARK                            x       y       z     vdW  Elec       q    Type
REMARK                         _______ _______ _______ _____ _____    ______ ____
ROOT
ATOM      2  O   UNL     1      -8.915  -9.424  14.813  0.00  0.00    -0.274 OA
ATOM      4  N   UNL     1      -7.170 -11.584  17.510  0.00  0.00    -0.296 NA
ATOM      5  N   UNL     1      -9.776  -9.019  17.340  0.00  0.00    -0.286 NA
ATOM      6  N   UNL     1      -6.715  -9.684  15.387  0.00  0.00    -0.312 N 
ATOM      9  C   UNL     1      -7.992 -10.492  18.078  0.00  0.00    +0.084 C 
ATOM     10  C   UNL     1      -8.332  -9.273  17.171  0.00  0.00    +0.161 C 
ATOM     11  C   UNL     1      -9.388 -10.940  18.549  0.00  0.00    +0.036 C 
ATOM     12  C   UNL     1     -10.176  -9.648  18.594  0.00  0.00    +0.087 C 
ATOM     13  C   UNL     1      -5.788 -11.181  17.129  0.00  0.00    +0.074 C 
ATOM     14  C   UNL     1      -8.049  -9.474  15.685  0.00  0.00    +0.232 C 
ATOM     15  C   UNL     1      -5.684  -9.830  16.397  0.00  0.00    +0.123 C 
ATOM     18  C   UNL     1      -7.132 -12.739  18.424  0.00  0.00    +0.105 C 
ATOM     32  H   UNL     1      -6.450  -9.747  14.409  0.00  0.00    +0.149 HD
ENDROOT
BRANCH  13  16
ATOM     16  C   UNL     1      -5.145 -12.251  16.222  0.00  0.00    +0.029 C 
BRANCH  16  19
ATOM     19  C   UNL     1      -3.785 -11.818  15.711  0.00  0.00    +0.097 C 
BRANCH  19  21
ATOM      3  O   UNL     1      -3.217 -13.875  14.680  0.00  0.00    -0.276 OA
ATOM      7  N   UNL     1      -3.126 -11.982  13.336  0.00  0.00    -0.299 N 
ATOM      8  N   UNL     1      -3.402 -10.833  10.726  0.00  0.00    -0.302 NA
ATOM     21  C   UNL     1      -3.350 -12.657  14.536  0.00  0.00    +0.216 C 
ATOM     22  C   UNL     1      -3.146 -10.526  13.166  0.00  0.00    +0.123 C 
ATOM     23  C   UNL     1      -2.707 -12.725  12.150  0.00  0.00    +0.123 C 
ATOM     26  C   UNL     1      -3.919 -10.128  11.908  0.00  0.00    +0.103 C 
ATOM     27  C   UNL     1      -3.494 -12.288  10.914  0.00  0.00    +0.103 C 
ATOM     30  C   UNL     1      -4.128 -10.423   9.526  0.00  0.00    +0.105 C 
ENDBRANCH  19  21
ENDBRANCH  16  19
ENDBRANCH  13  16
BRANCH   5  17
ATOM     17  C   UNL     1     -10.122  -7.605  17.300  0.00  0.00    +0.120 C 
BRANCH  17  20
ATOM      1 CL   UNL     1     -12.201  -4.695  13.509  0.00  0.00    -0.084 Cl
ATOM     20  C   UNL     1     -11.273  -7.336  16.367  0.00  0.00    -0.032 A 
ATOM     24  C   UNL     1     -11.211  -6.266  15.475  0.00  0.00    +0.025 A 
ATOM     25  C   UNL     1     -12.400  -8.157  16.394  0.00  0.00    +0.005 A 
ATOM     28  C   UNL     1     -12.276  -6.017  14.609  0.00  0.00    +0.041 A 
ATOM     29  C   UNL     1     -13.465  -7.908  15.529  0.00  0.00    +0.002 A 
ATOM     31  C   UNL     1     -13.404  -6.838  14.636  0.00  0.00    +0.020 A 
ENDBRANCH  17  20
ENDBRANCH   5  17
TORSDOF 5
ENDMDL
MODEL 10
REMARK VINA RESULT:      -6.5     20.986     23.460
REMARK  Name = 45361144
REMARK  7 active torsions:
REMARK  status: ('A' for Active; 'I' for Inactive)
REMARK    1  A    between atoms: N_4  and  C_18
REMARK    2  A    between atoms: N_5  and  C_17
REMARK    3  A    between atoms: N_8  and  C_30
REMARK    4  A    between atoms: C_13  and  C_16
REMARK    5  A    between atoms: C_16  and  C_19
REMARK    6  A    between atoms: C_17  and  C_20
REMARK    7  A    between atoms: C_19  and  C_21
REMARK                            x       y       z     vdW  Elec       q    Type
REMARK                         _______ _______ _______ _____ _____    ______ ____
ROOT
ATOM      2  O   UNL     1      -5.845  -9.924  13.443  0.00  0.00    -0.274 OA
ATOM      4  N   UNL     1      -4.047 -12.127  10.816  0.00  0.00    -0.296 NA
ATOM      5  N   UNL     1      -3.876 -11.494  14.417  0.00  0.00    -0.286 NA
ATOM      6  N   UNL     1      -4.755  -9.414  11.497  0.00  0.00    -0.312 N 
ATOM      9  C   UNL     1      -3.352 -12.091  12.123  0.00  0.00    +0.084 C 
ATOM     10  C   UNL     1      -3.646 -10.903  13.085  0.00  0.00    +0.161 C 
ATOM     11  C   UNL     1      -3.643 -13.309  13.020  0.00  0.00    +0.036 C 
ATOM     12  C   UNL     1      -3.274 -12.822  14.405  0.00  0.00    +0.087 C 
ATOM     13  C   UNL     1      -3.707 -10.999   9.906  0.00  0.00    +0.074 C 
ATOM     14  C   UNL     1      -4.862 -10.058  12.716  0.00  0.00    +0.232 C 
ATOM     15  C   UNL     1      -3.648  -9.615  10.582  0.00  0.00    +0.123 C 
ATOM     18  C   UNL     1      -3.820 -13.416  10.138  0.00  0.00    +0.105 C 
ATOM     32  H   UNL     1      -5.496  -8.775  11.229  0.00  0.00    +0.149 HD
ENDROOT
BRANCH  13  16
ATOM     16  C   UNL     1      -4.730 -10.908   8.754  0.00  0.00    +0.029 C 
BRANCH  16  19
ATOM     19  C   UNL     1      -4.982  -9.474   8.332  0.00  0.00    +0.097 C 
BRANCH  19  21
ATOM      3  O   UNL     1      -6.904  -8.869   9.581  0.00  0.00    -0.276 OA
ATOM      7  N   UNL     1      -7.184  -9.079   7.285  0.00  0.00    -0.299 N 
ATOM      8  N   UNL     1      -8.552  -8.239   4.911  0.00  0.00    -0.302 NA
ATOM     21  C   UNL     1      -6.441  -9.114   8.464  0.00  0.00    +0.216 C 
ATOM     22  C   UNL     1      -6.700  -9.493   5.965  0.00  0.00    +0.123 C 
ATOM     23  C   UNL     1      -8.604  -8.735   7.328  0.00  0.00    +0.123 C 
ATOM     26  C   UNL     1      -7.103  -8.484   4.888  0.00  0.00    +0.103 C 
ATOM     27  C   UNL     1      -8.967  -7.737   6.229  0.00  0.00    +0.103 C 
ATOM     30  C   UNL     1      -8.931  -7.297   3.860  0.00  0.00    +0.105 C 
ENDBRANCH  19  21
ENDBRANCH  16  19
ENDBRANCH  13  16
BRANCH   5  17
ATOM     17  C   UNL     1      -3.370 -10.672  15.508  0.00  0.00    +0.120 C 
BRANCH  17  20
ATOM      1 CL   UNL     1      -7.893  -9.547  17.839  0.00  0.00    -0.084 Cl
ATOM     20  C   UNL     1      -4.247 -10.760  16.729  0.00  0.00    -0.032 A 
ATOM     24  C   UNL     1      -5.515 -10.181  16.720  0.00  0.00    +0.025 A 
ATOM     25  C   UNL     1      -3.791 -11.422  17.869  0.00  0.00    +0.005 A 
ATOM     28  C   UNL     1      -6.328 -10.263  17.850  0.00  0.00    +0.041 A 
ATOM     29  C   UNL     1      -4.603 -11.503  19.000  0.00  0.00    +0.002 A 
ATOM     31  C   UNL     1      -5.873 -10.924  18.991  0.00  0.00    +0.020 A 
ENDBRANCH  17  20
ENDBRANCH   5  17
TORSDOF 5
ENDMDL
