MODEL 1
REMARK VINA RESULT:      -6.9      0.000      0.000
REMARK  Name = 28961736
REMARK  10 active torsions:
REMARK  status: ('A' for Active; 'I' for Inactive)
REMARK    1  A    between atoms: S_1  and  N_9
REMARK    2  A    between atoms: S_1  and  C_25
REMARK    3  A    between atoms: O_3  and  C_12
REMARK    4  A    between atoms: O_4  and  C_18
REMARK    5  A    between atoms: O_7  and  C_30
REMARK    6  A    between atoms: O_7  and  C_31
REMARK    7  A    between atoms: N_8  and  C_10
REMARK    8  A    between atoms: N_9  and  C_15
REMARK    9  A    between atoms: C_11  and  C_15
REMARK   10  A    between atoms: C_13  and  C_18
REMARK                            x       y       z     vdW  Elec       q    Type
REMARK                         _______ _______ _______ _____ _____    ______ ____
ROOT
ATOM      2  O   UNL     1     -18.236   2.980  24.109  0.00  0.00    -0.366 OA
ATOM     10  C   UNL     1     -17.704   2.443  26.366  0.00  0.00    +0.118 C 
ATOM     11  C   UNL     1     -17.686   3.558  25.314  0.00  0.00    +0.154 C 
ATOM     12  C   UNL     1     -17.647   1.177  25.525  0.00  0.00    +0.165 C 
ATOM     13  C   UNL     1     -18.515   1.585  24.342  0.00  0.00    +0.174 C 
ENDROOT
BRANCH  10   8
ATOM      8  N   UNL     1     -16.698   2.535  27.423  0.00  0.00    -0.290 NA
ATOM     14  C   UNL     1     -16.868   3.769  28.199  0.00  0.00    +0.090 C 
ATOM     16  C   UNL     1     -16.776   1.362  28.311  0.00  0.00    +0.120 C 
ATOM     17  C   UNL     1     -15.687   3.950  29.158  0.00  0.00    +0.051 C 
ATOM     19  C   UNL     1     -15.859   1.454  29.509  0.00  0.00    -0.030 A 
ATOM     20  C   UNL     1     -15.373   2.700  29.941  0.00  0.00    -0.042 A 
ATOM     21  C   UNL     1     -15.539   0.300  30.235  0.00  0.00    +0.005 A 
ATOM     22  C   UNL     1     -14.546   2.769  31.069  0.00  0.00    +0.004 A 
ATOM     23  C   UNL     1     -14.722   0.379  31.363  0.00  0.00    +0.000 A 
ATOM     24  C   UNL     1     -14.223   1.612  31.777  0.00  0.00    +0.000 A 
ENDBRANCH  10   8
BRANCH  12   3
ATOM      3  O   UNL     1     -16.321   0.898  25.093  0.00  0.00    -0.388 OA
ATOM     32  H   UNL     1     -16.317   0.086  24.565  0.00  0.00    +0.210 HD
ENDBRANCH  12   3
BRANCH  11  15
ATOM     15  C   UNL     1     -16.322   4.137  24.955  0.00  0.00    +0.139 C 
BRANCH  15   9
ATOM      9  N   UNL     1     -16.031   3.862  23.537  0.00  0.00    -0.187 NA
ATOM     33  H   UNL     1     -15.217   3.261  23.354  0.00  0.00    +0.148 HD
BRANCH   9   1
ATOM      1  S   UNL     1     -16.506   4.972  22.336  0.00  0.00    +0.058 S 
ATOM      5  O   UNL     1     -17.270   6.042  22.947  0.00  0.00    -0.153 OA
ATOM      6  O   UNL     1     -17.047   4.243  21.205  0.00  0.00    -0.153 OA
BRANCH   1  25
ATOM     25  C   UNL     1     -14.950   5.637  21.824  0.00  0.00    +0.105 A 
ATOM     26  C   UNL     1     -13.763   5.062  22.278  0.00  0.00    +0.032 A 
ATOM     27  C   UNL     1     -14.910   6.738  20.968  0.00  0.00    +0.032 A 
ATOM     28  C   UNL     1     -12.535   5.588  21.876  0.00  0.00    +0.047 A 
ATOM     29  C   UNL     1     -13.682   7.263  20.566  0.00  0.00    +0.047 A 
ATOM     30  C   UNL     1     -12.495   6.689  21.019  0.00  0.00    +0.120 A 
BRANCH  30   7
ATOM      7  O   UNL     1     -11.296   7.202  20.627  0.00  0.00    -0.495 OA
ATOM     31  C   UNL     1     -11.297   8.051  19.481  0.00  0.00    +0.277 C 
ENDBRANCH  30   7
ENDBRANCH   1  25
ENDBRANCH   9   1
ENDBRANCH  15   9
ENDBRANCH  11  15
BRANCH  13  18
ATOM     18  C   UNL     1     -18.282   0.808  23.060  0.00  0.00    +0.190 C 
BRANCH  18   4
ATOM      4  O   UNL     1     -17.217   1.411  22.345  0.00  0.00    -0.392 OA
ATOM     34  H   UNL     1     -16.477   0.779  22.343  0.00  0.00    +0.210 HD
ENDBRANCH  18   4
ENDBRANCH  13  18
TORSDOF 9
ENDMDL
MODEL 2
REMARK VINA RESULT:      -6.4     28.064     31.718
REMARK  Name = 28961736
REMARK  10 active torsions:
REMARK  status: ('A' for Active; 'I' for Inactive)
REMARK    1  A    between atoms: S_1  and  N_9
REMARK    2  A    between atoms: S_1  and  C_25
REMARK    3  A    between atoms: O_3  and  C_12
REMARK    4  A    between atoms: O_4  and  C_18
REMARK    5  A    between atoms: O_7  and  C_30
REMARK    6  A    between atoms: O_7  and  C_31
REMARK    7  A    between atoms: N_8  and  C_10
REMARK    8  A    between atoms: N_9  and  C_15
REMARK    9  A    between atoms: C_11  and  C_15
REMARK   10  A    between atoms: C_13  and  C_18
REMARK                            x       y       z     vdW  Elec       q    Type
REMARK                         _______ _______ _______ _____ _____    ______ ____
ROOT
ATOM      2  O   UNL     1      11.358  11.869  22.091  0.00  0.00    -0.366 OA
ATOM     10  C   UNL     1      13.673  12.397  21.917  0.00  0.00    +0.118 C 
ATOM     11  C   UNL     1      12.418  12.018  21.120  0.00  0.00    +0.154 C 
ATOM     12  C   UNL     1      13.397  11.806  23.291  0.00  0.00    +0.165 C 
ATOM     13  C   UNL     1      11.900  12.061  23.413  0.00  0.00    +0.174 C 
ENDROOT
BRANCH  10   8
ATOM      8  N   UNL     1      14.954  12.021  21.322  0.00  0.00    -0.290 NA
ATOM     14  C   UNL     1      15.229  12.825  20.125  0.00  0.00    +0.090 C 
ATOM     16  C   UNL     1      16.043  12.181  22.302  0.00  0.00    +0.120 C 
ATOM     17  C   UNL     1      16.463  12.278  19.401  0.00  0.00    +0.051 C 
ATOM     19  C   UNL     1      17.416  11.944  21.717  0.00  0.00    -0.030 A 
ATOM     20  C   UNL     1      17.625  12.034  20.330  0.00  0.00    -0.042 A 
ATOM     21  C   UNL     1      18.503  11.694  22.564  0.00  0.00    +0.005 A 
ATOM     22  C   UNL     1      18.910  11.838  19.808  0.00  0.00    +0.004 A 
ATOM     23  C   UNL     1      19.781  11.509  22.037  0.00  0.00    +0.000 A 
ATOM     24  C   UNL     1      19.984  11.577  20.660  0.00  0.00    +0.000 A 
ENDBRANCH  10   8
BRANCH  12   3
ATOM      3  O   UNL     1      13.666  10.410  23.321  0.00  0.00    -0.388 OA
ATOM     32  H   UNL     1      14.614  10.260  23.196  0.00  0.00    +0.210 HD
ENDBRANCH  12   3
BRANCH  11  15
ATOM     15  C   UNL     1      12.482  10.723  20.319  0.00  0.00    +0.139 C 
BRANCH  15   9
ATOM      9  N   UNL     1      11.597   9.720  20.938  0.00  0.00    -0.187 NA
ATOM     33  H   UNL     1      11.553   9.735  21.965  0.00  0.00    +0.148 HD
BRANCH   9   1
ATOM      1  S   UNL     1      11.269   8.257  20.133  0.00  0.00    +0.058 S 
ATOM      5  O   UNL     1      10.629   8.541  18.863  0.00  0.00    -0.153 OA
ATOM      6  O   UNL     1      10.657   7.330  21.066  0.00  0.00    -0.153 OA
BRANCH   1  25
ATOM     25  C   UNL     1      12.897   7.655  19.801  0.00  0.00    +0.105 A 
ATOM     26  C   UNL     1      13.425   7.747  18.513  0.00  0.00    +0.032 A 
ATOM     27  C   UNL     1      13.654   7.086  20.826  0.00  0.00    +0.032 A 
ATOM     28  C   UNL     1      14.709   7.270  18.249  0.00  0.00    +0.047 A 
ATOM     29  C   UNL     1      14.937   6.609  20.562  0.00  0.00    +0.047 A 
ATOM     30  C   UNL     1      15.466   6.701  19.275  0.00  0.00    +0.120 A 
BRANCH  30   7
ATOM      7  O   UNL     1      16.718   6.235  19.017  0.00  0.00    -0.495 OA
ATOM     31  C   UNL     1      17.675   6.328  20.071  0.00  0.00    +0.277 C 
ENDBRANCH  30   7
ENDBRANCH   1  25
ENDBRANCH   9   1
ENDBRANCH  15   9
ENDBRANCH  11  15
BRANCH  13  18
ATOM     18  C   UNL     1      11.162  11.166  24.391  0.00  0.00    +0.190 C 
BRANCH  18   4
ATOM      4  O   UNL     1      11.074   9.861  23.843  0.00  0.00    -0.392 OA
ATOM     34  H   UNL     1      11.097   9.954  22.875  0.00  0.00    +0.210 HD
ENDBRANCH  18   4
ENDBRANCH  13  18
TORSDOF 9
ENDMDL
MODEL 3
REMARK VINA RESULT:      -6.3     30.969     35.775
REMARK  Name = 28961736
REMARK  10 active torsions:
REMARK  status: ('A' for Active; 'I' for Inactive)
REMARK    1  A    between atoms: S_1  and  N_9
REMARK    2  A    between atoms: S_1  and  C_25
REMARK    3  A    between atoms: O_3  and  C_12
REMARK    4  A    between atoms: O_4  and  C_18
REMARK    5  A    between atoms: O_7  and  C_30
REMARK    6  A    between atoms: O_7  and  C_31
REMARK    7  A    between atoms: N_8  and  C_10
REMARK    8  A    between atoms: N_9  and  C_15
REMARK    9  A    between atoms: C_11  and  C_15
REMARK   10  A    between atoms: C_13  and  C_18
REMARK                            x       y       z     vdW  Elec       q    Type
REMARK                         _______ _______ _______ _____ _____    ______ ____
ROOT
ATOM      2  O   UNL     1       9.186   5.504   6.592  0.00  0.00    -0.366 OA
ATOM     10  C   UNL     1      10.836   7.135   6.058  0.00  0.00    +0.118 C 
ATOM     11  C   UNL     1       9.910   6.062   5.473  0.00  0.00    +0.154 C 
ATOM     12  C   UNL     1      11.044   6.664   7.489  0.00  0.00    +0.165 C 
ATOM     13  C   UNL     1       9.660   6.114   7.810  0.00  0.00    +0.174 C 
ENDROOT
BRANCH  10   8
ATOM      8  N   UNL     1      12.060   7.412   5.308  0.00  0.00    -0.290 NA
ATOM     14  C   UNL     1      11.843   8.488   4.334  0.00  0.00    +0.090 C 
ATOM     16  C   UNL     1      13.155   7.770   6.226  0.00  0.00    +0.120 C 
ATOM     17  C   UNL     1      13.065   8.620   3.421  0.00  0.00    +0.051 C 
ATOM     19  C   UNL     1      14.416   8.205   5.514  0.00  0.00    -0.030 A 
ATOM     20  C   UNL     1      14.365   8.654   4.183  0.00  0.00    -0.042 A 
ATOM     21  C   UNL     1      15.636   8.222   6.201  0.00  0.00    +0.005 A 
ATOM     22  C   UNL     1      15.539   9.078   3.549  0.00  0.00    +0.004 A 
ATOM     23  C   UNL     1      16.799   8.655   5.565  0.00  0.00    +0.000 A 
ATOM     24  C   UNL     1      16.751   9.079   4.238  0.00  0.00    +0.000 A 
ENDBRANCH  10   8
BRANCH  12   3
ATOM      3  O   UNL     1      12.017   5.630   7.561  0.00  0.00    -0.388 OA
ATOM     32  H   UNL     1      11.729   4.957   8.195  0.00  0.00    +0.210 HD
ENDBRANCH  12   3
BRANCH  11  15
ATOM     15  C   UNL     1      10.581   4.902   4.746  0.00  0.00    +0.139 C 
BRANCH  15   9
ATOM      9  N   UNL     1      10.736   5.242   3.320  0.00  0.00    -0.187 NA
ATOM     33  H   UNL     1      10.243   6.086   3.005  0.00  0.00    +0.148 HD
BRANCH   9   1
ATOM      1  S   UNL     1      11.062   4.019   2.182  0.00  0.00    +0.058 S 
ATOM      5  O   UNL     1      10.107   4.110   1.094  0.00  0.00    -0.153 OA
ATOM      6  O   UNL     1      11.255   2.762   2.879  0.00  0.00    -0.153 OA
BRANCH   1  25
ATOM     25  C   UNL     1      12.642   4.513   1.563  0.00  0.00    +0.105 A 
ATOM     26  C   UNL     1      12.835   5.817   1.106  0.00  0.00    +0.032 A 
ATOM     27  C   UNL     1      13.696   3.599   1.531  0.00  0.00    +0.032 A 
ATOM     28  C   UNL     1      14.081   6.207   0.615  0.00  0.00    +0.047 A 
ATOM     29  C   UNL     1      14.942   3.989   1.040  0.00  0.00    +0.047 A 
ATOM     30  C   UNL     1      15.135   5.293   0.583  0.00  0.00    +0.120 A 
BRANCH  30   7
ATOM      7  O   UNL     1      16.351   5.674   0.104  0.00  0.00    -0.495 OA
ATOM     31  C   UNL     1      16.785   6.998   0.411  0.00  0.00    +0.277 C 
ENDBRANCH  30   7
ENDBRANCH   1  25
ENDBRANCH   9   1
ENDBRANCH  15   9
ENDBRANCH  11  15
BRANCH  13  18
ATOM     18  C   UNL     1       9.606   5.096   8.933  0.00  0.00    +0.190 C 
BRANCH  18   4
ATOM      4  O   UNL     1      10.173   3.879   8.478  0.00  0.00    -0.392 OA
ATOM     34  H   UNL     1      10.214   3.277   9.241  0.00  0.00    +0.210 HD
ENDBRANCH  18   4
ENDBRANCH  13  18
TORSDOF 9
ENDMDL
MODEL 4
REMARK VINA RESULT:      -6.3     18.796     20.563
REMARK  Name = 28961736
REMARK  10 active torsions:
REMARK  status: ('A' for Active; 'I' for Inactive)
REMARK    1  A    between atoms: S_1  and  N_9
REMARK    2  A    between atoms: S_1  and  C_25
REMARK    3  A    between atoms: O_3  and  C_12
REMARK    4  A    between atoms: O_4  and  C_18
REMARK    5  A    between atoms: O_7  and  C_30
REMARK    6  A    between atoms: O_7  and  C_31
REMARK    7  A    between atoms: N_8  and  C_10
REMARK    8  A    between atoms: N_9  and  C_15
REMARK    9  A    between atoms: C_11  and  C_15
REMARK   10  A    between atoms: C_13  and  C_18
REMARK                            x       y       z     vdW  Elec       q    Type
REMARK                         _______ _______ _______ _____ _____    ______ ____
ROOT
ATOM      2  O   UNL     1      -4.805 -13.232  17.621  0.00  0.00    -0.366 OA
ATOM     10  C   UNL     1      -6.855 -12.034  17.456  0.00  0.00    +0.118 C 
ATOM     11  C   UNL     1      -5.863 -12.917  16.688  0.00  0.00    +0.154 C 
ATOM     12  C   UNL     1      -5.986 -11.391  18.526  0.00  0.00    +0.165 C 
ATOM     13  C   UNL     1      -5.054 -12.548  18.865  0.00  0.00    +0.174 C 
ENDROOT
BRANCH  10   8
ATOM      8  N   UNL     1      -7.647 -11.103  16.653  0.00  0.00    -0.290 NA
ATOM     14  C   UNL     1      -8.607 -11.827  15.811  0.00  0.00    +0.090 C 
ATOM     16  C   UNL     1      -8.353 -10.147  17.523  0.00  0.00    +0.120 C 
ATOM     17  C   UNL     1      -9.276 -10.858  14.832  0.00  0.00    +0.051 C 
ATOM     19  C   UNL     1      -9.302  -9.241  16.772  0.00  0.00    -0.030 A 
ATOM     20  C   UNL     1      -9.778  -9.603  15.501  0.00  0.00    -0.042 A 
ATOM     21  C   UNL     1      -9.761  -8.060  17.370  0.00  0.00    +0.005 A 
ATOM     22  C   UNL     1     -10.677  -8.764  14.831  0.00  0.00    +0.004 A 
ATOM     23  C   UNL     1     -10.664  -7.234  16.700  0.00  0.00    +0.000 A 
ATOM     24  C   UNL     1     -11.119  -7.584  15.430  0.00  0.00    +0.000 A 
ENDBRANCH  10   8
BRANCH  12   3
ATOM      3  O   UNL     1      -5.244 -10.295  18.006  0.00  0.00    -0.388 OA
ATOM     32  H   UNL     1      -5.131 -10.405  17.051  0.00  0.00    +0.210 HD
ENDBRANCH  12   3
BRANCH  11  15
ATOM     15  C   UNL     1      -5.209 -12.299  15.457  0.00  0.00    +0.139 C 
BRANCH  15   9
ATOM      9  N   UNL     1      -3.746 -12.445  15.554  0.00  0.00    -0.187 NA
ATOM     33  H   UNL     1      -3.411 -13.236  16.119  0.00  0.00    +0.148 HD
BRANCH   9   1
ATOM      1  S   UNL     1      -2.739 -11.083  15.388  0.00  0.00    +0.058 S 
ATOM      5  O   UNL     1      -1.357 -11.484  15.562  0.00  0.00    -0.153 OA
ATOM      6  O   UNL     1      -3.286  -9.992  16.173  0.00  0.00    -0.153 OA
BRANCH   1  25
ATOM     25  C   UNL     1      -2.976 -10.664  13.688  0.00  0.00    +0.105 A 
ATOM     26  C   UNL     1      -4.242 -10.299  13.229  0.00  0.00    +0.032 A 
ATOM     27  C   UNL     1      -1.897 -10.699  12.804  0.00  0.00    +0.032 A 
ATOM     28  C   UNL     1      -4.429  -9.971  11.886  0.00  0.00    +0.047 A 
ATOM     29  C   UNL     1      -2.084 -10.370  11.461  0.00  0.00    +0.047 A 
ATOM     30  C   UNL     1      -3.350 -10.005  11.002  0.00  0.00    +0.120 A 
BRANCH  30   7
ATOM      7  O   UNL     1      -3.534  -9.685   9.692  0.00  0.00    -0.495 OA
ATOM     31  C   UNL     1      -4.696  -8.924   9.366  0.00  0.00    +0.277 C 
ENDBRANCH  30   7
ENDBRANCH   1  25
ENDBRANCH   9   1
ENDBRANCH  15   9
ENDBRANCH  11  15
BRANCH  13  18
ATOM     18  C   UNL     1      -3.731 -12.159  19.496  0.00  0.00    +0.190 C 
BRANCH  18   4
ATOM      4  O   UNL     1      -2.830 -11.771  18.471  0.00  0.00    -0.392 OA
ATOM     34  H   UNL     1      -3.177 -10.952  18.078  0.00  0.00    +0.210 HD
ENDBRANCH  18   4
ENDBRANCH  13  18
TORSDOF 9
ENDMDL
MODEL 5
REMARK VINA RESULT:      -6.2     19.344     21.140
REMARK  Name = 28961736
REMARK  10 active torsions:
REMARK  status: ('A' for Active; 'I' for Inactive)
REMARK    1  A    between atoms: S_1  and  N_9
REMARK    2  A    between atoms: S_1  and  C_25
REMARK    3  A    between atoms: O_3  and  C_12
REMARK    4  A    between atoms: O_4  and  C_18
REMARK    5  A    between atoms: O_7  and  C_30
REMARK    6  A    between atoms: O_7  and  C_31
REMARK    7  A    between atoms: N_8  and  C_10
REMARK    8  A    between atoms: N_9  and  C_15
REMARK    9  A    between atoms: C_11  and  C_15
REMARK   10  A    between atoms: C_13  and  C_18
REMARK                            x       y       z     vdW  Elec       q    Type
REMARK                         _______ _______ _______ _____ _____    ______ ____
ROOT
ATOM      2  O   UNL     1      -4.015 -11.968  15.232  0.00  0.00    -0.366 OA
ATOM     10  C   UNL     1      -6.216 -11.215  15.734  0.00  0.00    +0.118 C 
ATOM     11  C   UNL     1      -5.297 -11.719  14.614  0.00  0.00    +0.154 C 
ATOM     12  C   UNL     1      -5.240 -10.606  16.730  0.00  0.00    +0.165 C 
ATOM     13  C   UNL     1      -4.078 -11.585  16.620  0.00  0.00    +0.174 C 
ENDROOT
BRANCH  10   8
ATOM      8  N   UNL     1      -7.314 -10.341  15.324  0.00  0.00    -0.290 NA
ATOM     14  C   UNL     1      -8.299 -11.082  14.526  0.00  0.00    +0.090 C 
ATOM     16  C   UNL     1      -7.963  -9.743  16.505  0.00  0.00    +0.120 C 
ATOM     17  C   UNL     1      -9.326 -10.112  13.934  0.00  0.00    +0.051 C 
ATOM     19  C   UNL     1      -9.196  -8.937  16.167  0.00  0.00    -0.030 A 
ATOM     20  C   UNL     1      -9.875  -9.146  14.954  0.00  0.00    -0.042 A 
ATOM     21  C   UNL     1      -9.707  -8.019  17.094  0.00  0.00    +0.005 A 
ATOM     22  C   UNL     1     -11.031  -8.409  14.670  0.00  0.00    +0.004 A 
ATOM     23  C   UNL     1     -10.865  -7.296  16.806  0.00  0.00    +0.000 A 
ATOM     24  C   UNL     1     -11.524  -7.488  15.594  0.00  0.00    +0.000 A 
ENDBRANCH  10   8
BRANCH  12   3
ATOM      3  O   UNL     1      -4.831  -9.304  16.330  0.00  0.00    -0.388 OA
ATOM     32  H   UNL     1      -3.912  -9.333  16.026  0.00  0.00    +0.210 HD
ENDBRANCH  12   3
BRANCH  11  15
ATOM     15  C   UNL     1      -5.059 -10.770  13.446  0.00  0.00    +0.139 C 
BRANCH  15   9
ATOM      9  N   UNL     1      -3.663 -10.297  13.477  0.00  0.00    -0.187 NA
ATOM     33  H   UNL     1      -3.508  -9.388  13.931  0.00  0.00    +0.148 HD
BRANCH   9   1
ATOM      1  S   UNL     1      -2.563 -10.805  12.282  0.00  0.00    +0.058 S 
ATOM      5  O   UNL     1      -2.380 -12.241  12.378  0.00  0.00    -0.153 OA
ATOM      6  O   UNL     1      -1.411  -9.923  12.292  0.00  0.00    -0.153 OA
BRANCH   1  25
ATOM     25  C   UNL     1      -3.459 -10.467  10.797  0.00  0.00    +0.105 A 
ATOM     26  C   UNL     1      -4.041 -11.513  10.080  0.00  0.00    +0.032 A 
ATOM     27  C   UNL     1      -3.584  -9.154  10.341  0.00  0.00    +0.032 A 
ATOM     28  C   UNL     1      -4.746 -11.247   8.907  0.00  0.00    +0.047 A 
ATOM     29  C   UNL     1      -4.290  -8.889   9.168  0.00  0.00    +0.047 A 
ATOM     30  C   UNL     1      -4.871  -9.934   8.451  0.00  0.00    +0.120 A 
BRANCH  30   7
ATOM      7  O   UNL     1      -5.560  -9.675   7.305  0.00  0.00    -0.495 OA
ATOM     31  C   UNL     1      -5.523 -10.672   6.285  0.00  0.00    +0.277 C 
ENDBRANCH  30   7
ENDBRANCH   1  25
ENDBRANCH   9   1
ENDBRANCH  15   9
ENDBRANCH  11  15
BRANCH  13  18
ATOM     18  C   UNL     1      -2.727 -11.047  17.053  0.00  0.00    +0.190 C 
BRANCH  18   4
ATOM      4  O   UNL     1      -2.186 -10.265  16.000  0.00  0.00    -0.392 OA
ATOM     34  H   UNL     1      -2.586 -10.582  15.172  0.00  0.00    +0.210 HD
ENDBRANCH  18   4
ENDBRANCH  13  18
TORSDOF 9
ENDMDL
MODEL 6
REMARK VINA RESULT:      -6.2     18.508     20.811
REMARK  Name = 28961736
REMARK  10 active torsions:
REMARK  status: ('A' for Active; 'I' for Inactive)
REMARK    1  A    between atoms: S_1  and  N_9
REMARK    2  A    between atoms: S_1  and  C_25
REMARK    3  A    between atoms: O_3  and  C_12
REMARK    4  A    between atoms: O_4  and  C_18
REMARK    5  A    between atoms: O_7  and  C_30
REMARK    6  A    between atoms: O_7  and  C_31
REMARK    7  A    between atoms: N_8  and  C_10
REMARK    8  A    between atoms: N_9  and  C_15
REMARK    9  A    between atoms: C_11  and  C_15
REMARK   10  A    between atoms: C_13  and  C_18
REMARK                            x       y       z     vdW  Elec       q    Type
REMARK                         _______ _______ _______ _____ _____    ______ ____
ROOT
ATOM      2  O   UNL     1     -10.107 -11.521  15.440  0.00  0.00    -0.366 OA
ATOM     10  C   UNL     1      -8.562 -11.064  13.688  0.00  0.00    +0.118 C 
ATOM     11  C   UNL     1      -8.864 -11.990  14.872  0.00  0.00    +0.154 C 
ATOM     12  C   UNL     1      -9.285  -9.779  14.065  0.00  0.00    +0.165 C 
ATOM     13  C   UNL     1     -10.535 -10.343  14.728  0.00  0.00    +0.174 C 
ENDROOT
BRANCH  10   8
ATOM      8  N   UNL     1      -7.153 -10.906  13.334  0.00  0.00    -0.290 NA
ATOM     14  C   UNL     1      -6.536 -12.208  13.054  0.00  0.00    +0.090 C 
ATOM     16  C   UNL     1      -7.013 -10.016  12.167  0.00  0.00    +0.120 C 
ATOM     17  C   UNL     1      -5.022 -12.044  12.891  0.00  0.00    +0.051 C 
ATOM     19  C   UNL     1      -5.594  -9.916  11.657  0.00  0.00    -0.030 A 
ATOM     20  C   UNL     1      -4.652 -10.912  11.968  0.00  0.00    -0.042 A 
ATOM     21  C   UNL     1      -5.226  -8.858  10.815  0.00  0.00    +0.005 A 
ATOM     22  C   UNL     1      -3.349 -10.816  11.464  0.00  0.00    +0.004 A 
ATOM     23  C   UNL     1      -3.929  -8.775  10.310  0.00  0.00    +0.000 A 
ATOM     24  C   UNL     1      -2.990  -9.752  10.637  0.00  0.00    +0.000 A 
ENDBRANCH  10   8
BRANCH  12   3
ATOM      3  O   UNL     1      -8.533  -9.013  14.997  0.00  0.00    -0.388 OA
ATOM     32  H   UNL     1      -7.627  -9.353  15.040  0.00  0.00    +0.210 HD
ENDBRANCH  12   3
BRANCH  11  15
ATOM     15  C   UNL     1      -7.836 -12.018  15.998  0.00  0.00    +0.139 C 
BRANCH  15   9
ATOM      9  N   UNL     1      -8.444 -11.482  17.229  0.00  0.00    -0.187 NA
ATOM     33  H   UNL     1      -9.472 -11.481  17.257  0.00  0.00    +0.148 HD
BRANCH   9   1
ATOM      1  S   UNL     1      -7.605 -10.337  18.168  0.00  0.00    +0.058 S 
ATOM      5  O   UNL     1      -7.655 -10.731  19.563  0.00  0.00    -0.153 OA
ATOM      6  O   UNL     1      -8.020  -9.005  17.772  0.00  0.00    -0.153 OA
BRANCH   1  25
ATOM     25  C   UNL     1      -5.945 -10.551  17.601  0.00  0.00    +0.105 A 
ATOM     26  C   UNL     1      -5.524  -9.927  16.427  0.00  0.00    +0.032 A 
ATOM     27  C   UNL     1      -5.056 -11.345  18.327  0.00  0.00    +0.032 A 
ATOM     28  C   UNL     1      -4.215 -10.097  15.977  0.00  0.00    +0.047 A 
ATOM     29  C   UNL     1      -3.747 -11.514  17.877  0.00  0.00    +0.047 A 
ATOM     30  C   UNL     1      -3.325 -10.890  16.703  0.00  0.00    +0.120 A 
BRANCH  30   7
ATOM      7  O   UNL     1      -2.048 -11.056  16.264  0.00  0.00    -0.495 OA
ATOM     31  C   UNL     1      -1.782 -10.734  14.900  0.00  0.00    +0.277 C 
ENDBRANCH  30   7
ENDBRANCH   1  25
ENDBRANCH   9   1
ENDBRANCH  15   9
ENDBRANCH  11  15
BRANCH  13  18
ATOM     18  C   UNL     1     -11.244  -9.408  15.689  0.00  0.00    +0.190 C 
BRANCH  18   4
ATOM      4  O   UNL     1     -10.783  -9.667  17.005  0.00  0.00    -0.392 OA
ATOM     34  H   UNL     1     -11.569  -9.760  17.572  0.00  0.00    +0.210 HD
ENDBRANCH  18   4
ENDBRANCH  13  18
TORSDOF 9
ENDMDL
MODEL 7
REMARK VINA RESULT:      -6.1     32.729     36.913
REMARK  Name = 28961736
REMARK  10 active torsions:
REMARK  status: ('A' for Active; 'I' for Inactive)
REMARK    1  A    between atoms: S_1  and  N_9
REMARK    2  A    between atoms: S_1  and  C_25
REMARK    3  A    between atoms: O_3  and  C_12
REMARK    4  A    between atoms: O_4  and  C_18
REMARK    5  A    between atoms: O_7  and  C_30
REMARK    6  A    between atoms: O_7  and  C_31
REMARK    7  A    between atoms: N_8  and  C_10
REMARK    8  A    between atoms: N_9  and  C_15
REMARK    9  A    between atoms: C_11  and  C_15
REMARK   10  A    between atoms: C_13  and  C_18
REMARK                            x       y       z     vdW  Elec       q    Type
REMARK                         _______ _______ _______ _____ _____    ______ ____
ROOT
ATOM      2  O   UNL     1      11.456   7.922   5.556  0.00  0.00    -0.366 OA
ATOM     10  C   UNL     1      13.765   8.492   5.666  0.00  0.00    +0.118 C 
ATOM     11  C   UNL     1      12.582   8.264   4.717  0.00  0.00    +0.154 C 
ATOM     12  C   UNL     1      13.401   7.645   6.876  0.00  0.00    +0.165 C 
ATOM     13  C   UNL     1      11.894   7.859   6.928  0.00  0.00    +0.174 C 
ENDROOT
BRANCH  10   8
ATOM      8  N   UNL     1      15.095   8.249   5.111  0.00  0.00    -0.290 NA
ATOM     14  C   UNL     1      15.265   8.956   3.836  0.00  0.00    +0.090 C 
ATOM     16  C   UNL     1      16.135   8.668   6.067  0.00  0.00    +0.120 C 
ATOM     17  C   UNL     1      16.576   8.525   3.171  0.00  0.00    +0.051 C 
ATOM     19  C   UNL     1      17.536   8.575   5.507  0.00  0.00    -0.030 A 
ATOM     20  C   UNL     1      17.749   8.551   4.118  0.00  0.00    -0.042 A 
ATOM     21  C   UNL     1      18.637   8.577   6.373  0.00  0.00    +0.005 A 
ATOM     22  C   UNL     1      19.055   8.493   3.617  0.00  0.00    +0.004 A 
ATOM     23  C   UNL     1      19.935   8.528   5.866  0.00  0.00    +0.000 A 
ATOM     24  C   UNL     1      20.144   8.482   4.489  0.00  0.00    +0.000 A 
ENDBRANCH  10   8
BRANCH  12   3
ATOM      3  O   UNL     1      13.699   6.271   6.659  0.00  0.00    -0.388 OA
ATOM     32  H   UNL     1      13.352   5.745   7.394  0.00  0.00    +0.210 HD
ENDBRANCH  12   3
BRANCH  11  15
ATOM     15  C   UNL     1      12.735   7.148   3.689  0.00  0.00    +0.139 C 
BRANCH  15   9
ATOM      9  N   UNL     1      12.046   5.939   4.174  0.00  0.00    -0.187 NA
ATOM     33  H   UNL     1      12.637   5.249   4.654  0.00  0.00    +0.148 HD
BRANCH   9   1
ATOM      1  S   UNL     1      10.628   5.398   3.404  0.00  0.00    +0.058 S 
ATOM      5  O   UNL     1       9.838   6.542   2.992  0.00  0.00    -0.153 OA
ATOM      6  O   UNL     1      10.027   4.347   4.203  0.00  0.00    -0.153 OA
BRANCH   1  25
ATOM     25  C   UNL     1      11.277   4.632   1.949  0.00  0.00    +0.105 A 
ATOM     26  C   UNL     1      10.625   4.793   0.726  0.00  0.00    +0.032 A 
ATOM     27  C   UNL     1      12.441   3.865   2.023  0.00  0.00    +0.032 A 
ATOM     28  C   UNL     1      11.135   4.188  -0.422  0.00  0.00    +0.047 A 
ATOM     29  C   UNL     1      12.951   3.260   0.875  0.00  0.00    +0.047 A 
ATOM     30  C   UNL     1      12.299   3.421  -0.347  0.00  0.00    +0.120 A 
BRANCH  30   7
ATOM      7  O   UNL     1      12.797   2.830  -1.468  0.00  0.00    -0.495 OA
ATOM     31  C   UNL     1      11.852   2.343  -2.420  0.00  0.00    +0.277 C 
ENDBRANCH  30   7
ENDBRANCH   1  25
ENDBRANCH   9   1
ENDBRANCH  15   9
ENDBRANCH  11  15
BRANCH  13  18
ATOM     18  C   UNL     1      11.106   6.786   7.656  0.00  0.00    +0.190 C 
BRANCH  18   4
ATOM      4  O   UNL     1      11.070   5.618   6.853  0.00  0.00    -0.392 OA
ATOM     34  H   UNL     1      10.164   5.535   6.507  0.00  0.00    +0.210 HD
ENDBRANCH  18   4
ENDBRANCH  13  18
TORSDOF 9
ENDMDL
MODEL 8
REMARK VINA RESULT:      -6.1     31.304     34.668
REMARK  Name = 28961736
REMARK  10 active torsions:
REMARK  status: ('A' for Active; 'I' for Inactive)
REMARK    1  A    between atoms: S_1  and  N_9
REMARK    2  A    between atoms: S_1  and  C_25
REMARK    3  A    between atoms: O_3  and  C_12
REMARK    4  A    between atoms: O_4  and  C_18
REMARK    5  A    between atoms: O_7  and  C_30
REMARK    6  A    between atoms: O_7  and  C_31
REMARK    7  A    between atoms: N_8  and  C_10
REMARK    8  A    between atoms: N_9  and  C_15
REMARK    9  A    between atoms: C_11  and  C_15
REMARK   10  A    between atoms: C_13  and  C_18
REMARK                            x       y       z     vdW  Elec       q    Type
REMARK                         _______ _______ _______ _____ _____    ______ ____
ROOT
ATOM      2  O   UNL     1      11.163   5.862   0.401  0.00  0.00    -0.366 OA
ATOM     10  C   UNL     1      10.162   5.496   2.530  0.00  0.00    +0.118 C 
ATOM     11  C   UNL     1      10.534   6.566   1.496  0.00  0.00    +0.154 C 
ATOM     12  C   UNL     1      11.166   4.387   2.252  0.00  0.00    +0.165 C 
ATOM     13  C   UNL     1      11.257   4.463   0.733  0.00  0.00    +0.174 C 
ENDROOT
BRANCH  10   8
ATOM      8  N   UNL     1      10.091   5.939   3.921  0.00  0.00    -0.290 NA
ATOM     14  C   UNL     1       8.949   6.838   4.124  0.00  0.00    +0.090 C 
ATOM     16  C   UNL     1       9.992   4.780   4.825  0.00  0.00    +0.120 C 
ATOM     17  C   UNL     1       9.012   7.453   5.525  0.00  0.00    +0.051 C 
ATOM     19  C   UNL     1       9.775   5.164   6.271  0.00  0.00    -0.030 A 
ATOM     20  C   UNL     1       9.263   6.430   6.603  0.00  0.00    -0.042 A 
ATOM     21  C   UNL     1      10.024   4.232   7.287  0.00  0.00    +0.005 A 
ATOM     22  C   UNL     1       9.042   6.759   7.947  0.00  0.00    +0.004 A 
ATOM     23  C   UNL     1       9.793   4.565   8.622  0.00  0.00    +0.000 A 
ATOM     24  C   UNL     1       9.306   5.828   8.951  0.00  0.00    +0.000 A 
ENDBRANCH  10   8
BRANCH  12   3
ATOM      3  O   UNL     1      12.430   4.671   2.839  0.00  0.00    -0.388 OA
ATOM     32  H   UNL     1      12.384   5.512   3.316  0.00  0.00    +0.210 HD
ENDBRANCH  12   3
BRANCH  11  15
ATOM     15  C   UNL     1      11.505   7.649   1.952  0.00  0.00    +0.139 C 
BRANCH  15   9
ATOM      9  N   UNL     1      12.851   7.352   1.430  0.00  0.00    -0.187 NA
ATOM     33  H   UNL     1      12.897   6.638   0.691  0.00  0.00    +0.148 HD
BRANCH   9   1
ATOM      1  S   UNL     1      14.220   7.594   2.411  0.00  0.00    +0.058 S 
ATOM      5  O   UNL     1      14.981   8.720   1.903  0.00  0.00    -0.153 OA
ATOM      6  O   UNL     1      14.871   6.318   2.640  0.00  0.00    -0.153 OA
BRANCH   1  25
ATOM     25  C   UNL     1      13.485   8.080   3.943  0.00  0.00    +0.105 A 
ATOM     26  C   UNL     1      13.302   7.140   4.957  0.00  0.00    +0.032 A 
ATOM     27  C   UNL     1      13.088   9.404   4.138  0.00  0.00    +0.032 A 
ATOM     28  C   UNL     1      12.720   7.523   6.166  0.00  0.00    +0.047 A 
ATOM     29  C   UNL     1      12.506   9.786   5.347  0.00  0.00    +0.047 A 
ATOM     30  C   UNL     1      12.323   8.846   6.361  0.00  0.00    +0.120 A 
BRANCH  30   7
ATOM      7  O   UNL     1      11.755   9.219   7.541  0.00  0.00    -0.495 OA
ATOM     31  C   UNL     1      10.688  10.164   7.478  0.00  0.00    +0.277 C 
ENDBRANCH  30   7
ENDBRANCH   1  25
ENDBRANCH   9   1
ENDBRANCH  15   9
ENDBRANCH  11  15
BRANCH  13  18
ATOM     18  C   UNL     1      12.523   3.888   0.125  0.00  0.00    +0.190 C 
BRANCH  18   4
ATOM      4  O   UNL     1      13.556   4.855   0.216  0.00  0.00    -0.392 OA
ATOM     34  H   UNL     1      13.385   5.523  -0.471  0.00  0.00    +0.210 HD
ENDBRANCH  18   4
ENDBRANCH  13  18
TORSDOF 9
ENDMDL
MODEL 9
REMARK VINA RESULT:      -6.0     34.564     38.841
REMARK  Name = 28961736
REMARK  10 active torsions:
REMARK  status: ('A' for Active; 'I' for Inactive)
REMARK    1  A    between atoms: S_1  and  N_9
REMARK    2  A    between atoms: S_1  and  C_25
REMARK    3  A    between atoms: O_3  and  C_12
REMARK    4  A    between atoms: O_4  and  C_18
REMARK    5  A    between atoms: O_7  and  C_30
REMARK    6  A    between atoms: O_7  and  C_31
REMARK    7  A    between atoms: N_8  and  C_10
REMARK    8  A    between atoms: N_9  and  C_15
REMARK    9  A    between atoms: C_11  and  C_15
REMARK   10  A    between atoms: C_13  and  C_18
REMARK                            x       y       z     vdW  Elec       q    Type
REMARK                         _______ _______ _______ _____ _____    ______ ____
ROOT
ATOM      2  O   UNL     1      12.814   7.374   3.298  0.00  0.00    -0.366 OA
ATOM     10  C   UNL     1      14.945   8.228   3.927  0.00  0.00    +0.118 C 
ATOM     11  C   UNL     1      14.173   7.499   2.821  0.00  0.00    +0.154 C 
ATOM     12  C   UNL     1      14.155   7.884   5.181  0.00  0.00    +0.165 C 
ATOM     13  C   UNL     1      12.733   7.909   4.633  0.00  0.00    +0.174 C 
ENDROOT
BRANCH  10   8
ATOM      8  N   UNL     1      16.380   7.956   4.000  0.00  0.00    -0.290 NA
ATOM     14  C   UNL     1      17.082   8.547   2.854  0.00  0.00    +0.090 C 
ATOM     16  C   UNL     1      16.938   8.476   5.261  0.00  0.00    +0.120 C 
ATOM     17  C   UNL     1      18.540   8.078   2.837  0.00  0.00    +0.051 C 
ATOM     19  C   UNL     1      18.442   8.356   5.346  0.00  0.00    -0.030 A 
ATOM     20  C   UNL     1      19.213   8.209   4.179  0.00  0.00    -0.042 A 
ATOM     21  C   UNL     1      19.083   8.453   6.588  0.00  0.00    +0.005 A 
ATOM     22  C   UNL     1      20.607   8.126   4.275  0.00  0.00    +0.004 A 
ATOM     23  C   UNL     1      20.473   8.379   6.673  0.00  0.00    +0.000 A 
ATOM     24  C   UNL     1      21.234   8.212   5.518  0.00  0.00    +0.000 A 
ENDBRANCH  10   8
BRANCH  12   3
ATOM      3  O   UNL     1      14.478   6.584   5.660  0.00  0.00    -0.388 OA
ATOM     32  H   UNL     1      14.922   6.083   4.961  0.00  0.00    +0.210 HD
ENDBRANCH  12   3
BRANCH  11  15
ATOM     15  C   UNL     1      14.655   6.099   2.458  0.00  0.00    +0.139 C 
BRANCH  15   9
ATOM      9  N   UNL     1      13.492   5.236   2.186  0.00  0.00    -0.187 NA
ATOM     33  H   UNL     1      12.628   5.477   2.690  0.00  0.00    +0.148 HD
BRANCH   9   1
ATOM      1  S   UNL     1      13.721   3.624   1.694  0.00  0.00    +0.058 S 
ATOM      5  O   UNL     1      12.575   2.831   2.097  0.00  0.00    -0.153 OA
ATOM      6  O   UNL     1      15.062   3.204   2.056  0.00  0.00    -0.153 OA
BRANCH   1  25
ATOM     25  C   UNL     1      13.687   3.775  -0.067  0.00  0.00    +0.105 A 
ATOM     26  C   UNL     1      14.692   4.483  -0.726  0.00  0.00    +0.032 A 
ATOM     27  C   UNL     1      12.653   3.187  -0.798  0.00  0.00    +0.032 A 
ATOM     28  C   UNL     1      14.664   4.605  -2.115  0.00  0.00    +0.047 A 
ATOM     29  C   UNL     1      12.626   3.309  -2.187  0.00  0.00    +0.047 A 
ATOM     30  C   UNL     1      13.631   4.017  -2.846  0.00  0.00    +0.120 A 
BRANCH  30   7
ATOM      7  O   UNL     1      13.603   4.137  -4.202  0.00  0.00    -0.495 OA
ATOM     31  C   UNL     1      14.485   5.093  -4.787  0.00  0.00    +0.277 C 
ENDBRANCH  30   7
ENDBRANCH   1  25
ENDBRANCH   9   1
ENDBRANCH  15   9
ENDBRANCH  11  15
BRANCH  13  18
ATOM     18  C   UNL     1      11.712   7.118   5.429  0.00  0.00    +0.190 C 
BRANCH  18   4
ATOM      4  O   UNL     1      11.666   5.793   4.926  0.00  0.00    -0.392 OA
ATOM     34  H   UNL     1      11.197   5.824   4.075  0.00  0.00    +0.210 HD
ENDBRANCH  18   4
ENDBRANCH  13  18
TORSDOF 9
ENDMDL
MODEL 10
REMARK VINA RESULT:      -6.0     19.848     21.443
REMARK  Name = 28961736
REMARK  10 active torsions:
REMARK  status: ('A' for Active; 'I' for Inactive)
REMARK    1  A    between atoms: S_1  and  N_9
REMARK    2  A    between atoms: S_1  and  C_25
REMARK    3  A    between atoms: O_3  and  C_12
REMARK    4  A    between atoms: O_4  and  C_18
REMARK    5  A    between atoms: O_7  and  C_30
REMARK    6  A    between atoms: O_7  and  C_31
REMARK    7  A    between atoms: N_8  and  C_10
REMARK    8  A    between atoms: N_9  and  C_15
REMARK    9  A    between atoms: C_11  and  C_15
REMARK   10  A    between atoms: C_13  and  C_18
REMARK                            x       y       z     vdW  Elec       q    Type
REMARK                         _______ _______ _______ _____ _____    ______ ____
ROOT
ATOM      2  O   UNL     1      -2.333 -11.888  14.699  0.00  0.00    -0.366 OA
ATOM     10  C   UNL     1      -4.149 -12.181  16.210  0.00  0.00    +0.118 C 
ATOM     11  C   UNL     1      -3.675 -12.420  14.771  0.00  0.00    +0.154 C 
ATOM     12  C   UNL     1      -3.323 -10.981  16.648  0.00  0.00    +0.165 C 
ATOM     13  C   UNL     1      -1.996 -11.287  15.964  0.00  0.00    +0.174 C 
ENDROOT
BRANCH  10   8
ATOM      8  N   UNL     1      -5.592 -12.048  16.402  0.00  0.00    -0.290 NA
ATOM     14  C   UNL     1      -6.283 -13.291  16.038  0.00  0.00    +0.090 C 
ATOM     16  C   UNL     1      -5.894 -11.688  17.799  0.00  0.00    +0.120 C 
ATOM     17  C   UNL     1      -7.798 -13.066  16.045  0.00  0.00    +0.051 C 
ATOM     19  C   UNL     1      -7.374 -11.669  18.106  0.00  0.00    -0.030 A 
ATOM     20  C   UNL     1      -8.281 -12.367  17.290  0.00  0.00    -0.042 A 
ATOM     21  C   UNL     1      -7.842 -11.006  19.247  0.00  0.00    +0.005 A 
ATOM     22  C   UNL     1      -9.645 -12.361  17.606  0.00  0.00    +0.004 A 
ATOM     23  C   UNL     1      -9.202 -11.012  19.560  0.00  0.00    +0.000 A 
ATOM     24  C   UNL     1     -10.103 -11.686  18.738  0.00  0.00    +0.000 A 
ENDBRANCH  10   8
BRANCH  12   3
ATOM      3  O   UNL     1      -3.867  -9.764  16.150  0.00  0.00    -0.388 OA
ATOM     32  H   UNL     1      -4.191  -9.900  15.248  0.00  0.00    +0.210 HD
ENDBRANCH  12   3
BRANCH  11  15
ATOM     15  C   UNL     1      -4.485 -11.754  13.665  0.00  0.00    +0.139 C 
BRANCH  15   9
ATOM      9  N   UNL     1      -3.706 -10.644  13.088  0.00  0.00    -0.187 NA
ATOM     33  H   UNL     1      -3.914  -9.709  13.462  0.00  0.00    +0.148 HD
BRANCH   9   1
ATOM      1  S   UNL     1      -3.084 -10.767  11.509  0.00  0.00    +0.058 S 
ATOM      5  O   UNL     1      -2.976 -12.166  11.144  0.00  0.00    -0.153 OA
ATOM      6  O   UNL     1      -1.936  -9.889  11.382  0.00  0.00    -0.153 OA
BRANCH   1  25
ATOM     25  C   UNL     1      -4.387 -10.054  10.551  0.00  0.00    +0.105 A 
ATOM     26  C   UNL     1      -5.353 -10.874   9.967  0.00  0.00    +0.032 A 
ATOM     27  C   UNL     1      -4.450  -8.670  10.378  0.00  0.00    +0.032 A 
ATOM     28  C   UNL     1      -6.380 -10.311   9.210  0.00  0.00    +0.047 A 
ATOM     29  C   UNL     1      -5.477  -8.108   9.621  0.00  0.00    +0.047 A 
ATOM     30  C   UNL     1      -6.443  -8.928   9.037  0.00  0.00    +0.120 A 
BRANCH  30   7
ATOM      7  O   UNL     1      -7.445  -8.380   8.297  0.00  0.00    -0.495 OA
ATOM     31  C   UNL     1      -8.703  -9.053   8.307  0.00  0.00    +0.277 C 
ENDBRANCH  30   7
ENDBRANCH   1  25
ENDBRANCH   9   1
ENDBRANCH  15   9
ENDBRANCH  11  15
BRANCH  13  18
ATOM     18  C   UNL     1      -1.092 -10.092  15.726  0.00  0.00    +0.190 C 
BRANCH  18   4
ATOM      4  O   UNL     1      -1.369  -9.557  14.442  0.00  0.00    -0.392 OA
ATOM     34  H   UNL     1      -1.812 -10.254  13.929  0.00  0.00    +0.210 HD
ENDBRANCH  18   4
ENDBRANCH  13  18
TORSDOF 9
ENDMDL
