MODEL 1
REMARK VINA RESULT:      -7.0      0.000      0.000
REMARK  Name = 75536871
REMARK  6 active torsions:
REMARK  status: ('A' for Active; 'I' for Inactive)
REMARK    1  A    between atoms: O_5  and  C_10
REMARK    2  A    between atoms: O_5  and  C_16
REMARK    3  A    between atoms: N_6  and  C_13
REMARK    4  A    between atoms: N_7  and  C_21
REMARK    5  A    between atoms: C_13  and  C_15
REMARK    6  A    between atoms: C_24  and  C_25
REMARK                            x       y       z     vdW  Elec       q    Type
REMARK                         _______ _______ _______ _____ _____    ______ ____
ROOT
ATOM      4  O   UNL     1      13.307   8.946  17.170  0.00  0.00    -0.375 OA
ATOM      6  N   UNL     1      11.924   8.433  19.642  0.00  0.00    -0.292 NA
ATOM      9  C   UNL     1      12.702   7.198  19.540  0.00  0.00    +0.131 C 
ATOM     10  C   UNL     1      14.104   7.477  18.985  0.00  0.00    +0.213 C 
ATOM     11  C   UNL     1      11.211   8.805  18.415  0.00  0.00    +0.113 C 
ATOM     12  C   UNL     1      14.161   7.859  17.508  0.00  0.00    +0.205 C 
ATOM     14  C   UNL     1      11.941   8.554  17.098  0.00  0.00    +0.175 C 
ENDROOT
BRANCH  10   5
ATOM      5  O   UNL     1      14.895   6.303  19.179  0.00  0.00    -0.485 OA
BRANCH   5  16
ATOM     16  C   UNL     1      16.140   6.488  19.714  0.00  0.00    +0.121 A 
ATOM     19  C   UNL     1      16.328   7.412  20.741  0.00  0.00    +0.046 A 
ATOM     20  C   UNL     1      17.222   5.752  19.230  0.00  0.00    +0.046 A 
ATOM     22  C   UNL     1      17.598   7.600  21.285  0.00  0.00    +0.016 A 
ATOM     23  C   UNL     1      18.492   5.940  19.774  0.00  0.00    +0.016 A 
ATOM     24  C   UNL     1      18.680   6.865  20.802  0.00  0.00    +0.055 A 
BRANCH  24  25
ATOM      1  F   UNL     1      21.042   7.027  20.457  0.00  0.00    -0.166 F 
ATOM      2  F   UNL     1      20.379   6.129  22.317  0.00  0.00    -0.166 F 
ATOM      3  F   UNL     1      20.168   8.272  22.012  0.00  0.00    -0.166 F 
ATOM     25  C   UNL     1      20.039   7.066  21.384  0.00  0.00    +0.417 C 
ENDBRANCH  24  25
ENDBRANCH   5  16
ENDBRANCH  10   5
BRANCH   6  13
ATOM     13  C   UNL     1      10.991   8.388  20.768  0.00  0.00    +0.122 C 
BRANCH  13  15
ATOM      7  N   UNL     1      11.207  10.884  23.432  0.00  0.00    -0.274 N 
ATOM      8  N   UNL     1      11.736  11.639  22.455  0.00  0.00    -0.180 NA
ATOM     15  C   UNL     1      11.176   9.558  21.697  0.00  0.00    +0.004 A 
ATOM     17  C   UNL     1      10.855   9.629  23.032  0.00  0.00    +0.112 A 
ATOM     18  C   UNL     1      11.714  10.824  21.398  0.00  0.00    +0.139 A 
ATOM     21  C   UNL     1      11.060  11.431  24.761  0.00  0.00    +0.172 C 
ENDBRANCH  13  15
ENDBRANCH   6  13
TORSDOF 5
ENDMDL
MODEL 2
REMARK VINA RESULT:      -6.9      3.186      5.136
REMARK  Name = 75536871
REMARK  6 active torsions:
REMARK  status: ('A' for Active; 'I' for Inactive)
REMARK    1  A    between atoms: O_5  and  C_10
REMARK    2  A    between atoms: O_5  and  C_16
REMARK    3  A    between atoms: N_6  and  C_13
REMARK    4  A    between atoms: N_7  and  C_21
REMARK    5  A    between atoms: C_13  and  C_15
REMARK    6  A    between atoms: C_24  and  C_25
REMARK                            x       y       z     vdW  Elec       q    Type
REMARK                         _______ _______ _______ _____ _____    ______ ____
ROOT
ATOM      4  O   UNL     1      12.240   7.267  17.419  0.00  0.00    -0.375 OA
ATOM      6  N   UNL     1      13.920   9.605  17.395  0.00  0.00    -0.292 NA
ATOM      9  C   UNL     1      14.116   9.182  18.782  0.00  0.00    +0.131 C 
ATOM     10  C   UNL     1      14.187   7.653  18.885  0.00  0.00    +0.213 C 
ATOM     11  C   UNL     1      12.518   9.651  16.965  0.00  0.00    +0.113 C 
ATOM     12  C   UNL     1      12.872   6.917  18.645  0.00  0.00    +0.205 C 
ATOM     14  C   UNL     1      11.608   8.541  17.485  0.00  0.00    +0.175 C 
ENDROOT
BRANCH  10   5
ATOM      5  O   UNL     1      14.659   7.322  20.191  0.00  0.00    -0.485 OA
BRANCH   5  16
ATOM     16  C   UNL     1      15.973   6.953  20.291  0.00  0.00    +0.121 A 
ATOM     19  C   UNL     1      16.557   6.178  19.290  0.00  0.00    +0.046 A 
ATOM     20  C   UNL     1      16.727   7.354  21.394  0.00  0.00    +0.046 A 
ATOM     22  C   UNL     1      17.896   5.802  19.392  0.00  0.00    +0.016 A 
ATOM     23  C   UNL     1      18.066   6.978  21.496  0.00  0.00    +0.016 A 
ATOM     24  C   UNL     1      18.651   6.201  20.495  0.00  0.00    +0.055 A 
BRANCH  24  25
ATOM      1  F   UNL     1      20.387   4.661  19.914  0.00  0.00    -0.166 F 
ATOM      2  F   UNL     1      20.486   5.556  21.887  0.00  0.00    -0.166 F 
ATOM      3  F   UNL     1      20.934   6.755  20.130  0.00  0.00    -0.166 F 
ATOM     25  C   UNL     1      20.083   5.800  20.605  0.00  0.00    +0.417 C 
ENDBRANCH  24  25
ENDBRANCH   5  16
ENDBRANCH  10   5
BRANCH   6  13
ATOM     13  C   UNL     1      14.567  10.890  17.130  0.00  0.00    +0.122 C 
BRANCH  13  15
ATOM      7  N   UNL     1      14.540  12.028  13.655  0.00  0.00    -0.274 N 
ATOM      8  N   UNL     1      15.277  10.922  13.461  0.00  0.00    -0.180 NA
ATOM     15  C   UNL     1      14.689  11.164  15.655  0.00  0.00    +0.004 A 
ATOM     17  C   UNL     1      14.161  12.220  14.951  0.00  0.00    +0.112 A 
ATOM     18  C   UNL     1      15.364  10.398  14.686  0.00  0.00    +0.139 A 
ATOM     21  C   UNL     1      14.221  12.883  12.535  0.00  0.00    +0.172 C 
ENDBRANCH  13  15
ENDBRANCH   6  13
TORSDOF 5
ENDMDL
MODEL 3
REMARK VINA RESULT:      -6.3      5.019      7.872
REMARK  Name = 75536871
REMARK  6 active torsions:
REMARK  status: ('A' for Active; 'I' for Inactive)
REMARK    1  A    between atoms: O_5  and  C_10
REMARK    2  A    between atoms: O_5  and  C_16
REMARK    3  A    between atoms: N_6  and  C_13
REMARK    4  A    between atoms: N_7  and  C_21
REMARK    5  A    between atoms: C_13  and  C_15
REMARK    6  A    between atoms: C_24  and  C_25
REMARK                            x       y       z     vdW  Elec       q    Type
REMARK                         _______ _______ _______ _____ _____    ______ ____
ROOT
ATOM      4  O   UNL     1      15.473   7.877  21.333  0.00  0.00    -0.375 OA
ATOM      6  N   UNL     1      13.752   7.874  19.026  0.00  0.00    -0.292 NA
ATOM      9  C   UNL     1      12.741   7.792  20.080  0.00  0.00    +0.131 C 
ATOM     10  C   UNL     1      13.133   8.657  21.284  0.00  0.00    +0.213 C 
ATOM     11  C   UNL     1      14.860   6.923  19.170  0.00  0.00    +0.113 C 
ATOM     12  C   UNL     1      14.310   8.142  22.109  0.00  0.00    +0.205 C 
ATOM     14  C   UNL     1      15.361   6.669  20.590  0.00  0.00    +0.175 C 
ENDROOT
BRANCH  10   5
ATOM      5  O   UNL     1      11.994   8.763  22.140  0.00  0.00    -0.485 OA
BRANCH   5  16
ATOM     16  C   UNL     1      11.596  10.028  22.473  0.00  0.00    +0.121 A 
ATOM     19  C   UNL     1      11.623  11.043  21.517  0.00  0.00    +0.046 A 
ATOM     20  C   UNL     1      11.162  10.303  23.771  0.00  0.00    +0.046 A 
ATOM     22  C   UNL     1      11.218  12.333  21.858  0.00  0.00    +0.016 A 
ATOM     23  C   UNL     1      10.757  11.593  24.112  0.00  0.00    +0.016 A 
ATOM     24  C   UNL     1      10.785  12.609  23.155  0.00  0.00    +0.055 A 
BRANCH  24  25
ATOM      1  F   UNL     1      11.264  14.952  23.197  0.00  0.00    -0.166 F 
ATOM      2  F   UNL     1      10.118  14.153  24.856  0.00  0.00    -0.166 F 
ATOM      3  F   UNL     1       9.194  14.356  22.898  0.00  0.00    -0.166 F 
ATOM     25  C   UNL     1      10.352  13.988  23.521  0.00  0.00    +0.417 C 
ENDBRANCH  24  25
ENDBRANCH   5  16
ENDBRANCH  10   5
BRANCH   6  13
ATOM     13  C   UNL     1      13.152   7.745  17.697  0.00  0.00    +0.122 C 
BRANCH  13  15
ATOM      7  N   UNL     1      14.259  10.786  15.993  0.00  0.00    -0.274 N 
ATOM      8  N   UNL     1      13.296  10.447  15.119  0.00  0.00    -0.180 NA
ATOM     15  C   UNL     1      13.439   8.944  16.833  0.00  0.00    +0.004 A 
ATOM     17  C   UNL     1      14.386   9.919  17.039  0.00  0.00    +0.112 A 
ATOM     18  C   UNL     1      12.799   9.322  15.638  0.00  0.00    +0.139 A 
ATOM     21  C   UNL     1      15.043  11.978  15.770  0.00  0.00    +0.172 C 
ENDBRANCH  13  15
ENDBRANCH   6  13
TORSDOF 5
ENDMDL
MODEL 4
REMARK VINA RESULT:      -6.2      2.372      4.401
REMARK  Name = 75536871
REMARK  6 active torsions:
REMARK  status: ('A' for Active; 'I' for Inactive)
REMARK    1  A    between atoms: O_5  and  C_10
REMARK    2  A    between atoms: O_5  and  C_16
REMARK    3  A    between atoms: N_6  and  C_13
REMARK    4  A    between atoms: N_7  and  C_21
REMARK    5  A    between atoms: C_13  and  C_15
REMARK    6  A    between atoms: C_24  and  C_25
REMARK                            x       y       z     vdW  Elec       q    Type
REMARK                         _______ _______ _______ _____ _____    ______ ____
ROOT
ATOM      4  O   UNL     1      12.273   8.726  21.978  0.00  0.00    -0.375 OA
ATOM      6  N   UNL     1      12.696   7.871  19.262  0.00  0.00    -0.292 NA
ATOM      9  C   UNL     1      13.871   8.725  19.432  0.00  0.00    +0.131 C 
ATOM     10  C   UNL     1      14.457   8.579  20.841  0.00  0.00    +0.213 C 
ATOM     11  C   UNL     1      11.434   8.480  19.698  0.00  0.00    +0.113 C 
ATOM     12  C   UNL     1      13.621   9.182  21.966  0.00  0.00    +0.205 C 
ATOM     14  C   UNL     1      11.489   9.337  20.960  0.00  0.00    +0.175 C 
ENDROOT
BRANCH  10   5
ATOM      5  O   UNL     1      15.743   9.202  20.850  0.00  0.00    -0.485 OA
BRANCH   5  16
ATOM     16  C   UNL     1      16.826   8.368  20.823  0.00  0.00    +0.121 A 
ATOM     19  C   UNL     1      18.021   8.756  21.427  0.00  0.00    +0.046 A 
ATOM     20  C   UNL     1      16.734   7.128  20.190  0.00  0.00    +0.046 A 
ATOM     22  C   UNL     1      19.125   7.905  21.398  0.00  0.00    +0.016 A 
ATOM     23  C   UNL     1      17.839   6.277  20.161  0.00  0.00    +0.016 A 
ATOM     24  C   UNL     1      19.035   6.666  20.765  0.00  0.00    +0.055 A 
BRANCH  24  25
ATOM      1  F   UNL     1      20.021   4.632  19.980  0.00  0.00    -0.166 F 
ATOM      2  F   UNL     1      20.586   5.297  21.966  0.00  0.00    -0.166 F 
ATOM      3  F   UNL     1      21.328   6.355  20.218  0.00  0.00    -0.166 F 
ATOM     25  C   UNL     1      20.215   5.755  20.734  0.00  0.00    +0.417 C 
ENDBRANCH  24  25
ENDBRANCH   5  16
ENDBRANCH  10   5
BRANCH   6  13
ATOM     13  C   UNL     1      12.572   7.396  17.884  0.00  0.00    +0.122 C 
BRANCH  13  15
ATOM      7  N   UNL     1      14.112   9.804  15.601  0.00  0.00    -0.274 N 
ATOM      8  N   UNL     1      12.833  10.117  15.334  0.00  0.00    -0.180 NA
ATOM     15  C   UNL     1      12.981   8.450  16.889  0.00  0.00    +0.004 A 
ATOM     17  C   UNL     1      14.256   8.812  16.526  0.00  0.00    +0.112 A 
ATOM     18  C   UNL     1      12.147   9.287  16.124  0.00  0.00    +0.139 A 
ATOM     21  C   UNL     1      15.178  10.505  14.926  0.00  0.00    +0.172 C 
ENDBRANCH  13  15
ENDBRANCH   6  13
TORSDOF 5
ENDMDL
MODEL 5
REMARK VINA RESULT:      -6.1     30.768     32.217
REMARK  Name = 75536871
REMARK  6 active torsions:
REMARK  status: ('A' for Active; 'I' for Inactive)
REMARK    1  A    between atoms: O_5  and  C_10
REMARK    2  A    between atoms: O_5  and  C_16
REMARK    3  A    between atoms: N_6  and  C_13
REMARK    4  A    between atoms: N_7  and  C_21
REMARK    5  A    between atoms: C_13  and  C_15
REMARK    6  A    between atoms: C_24  and  C_25
REMARK                            x       y       z     vdW  Elec       q    Type
REMARK                         _______ _______ _______ _____ _____    ______ ____
ROOT
ATOM      4  O   UNL     1     -13.427   1.438  30.555  0.00  0.00    -0.375 OA
ATOM      6  N   UNL     1     -15.908   1.930  29.182  0.00  0.00    -0.292 NA
ATOM      9  C   UNL     1     -16.312   2.282  30.543  0.00  0.00    +0.131 C 
ATOM     10  C   UNL     1     -15.182   3.013  31.279  0.00  0.00    +0.213 C 
ATOM     11  C   UNL     1     -15.199   0.651  29.070  0.00  0.00    +0.113 C 
ATOM     12  C   UNL     1     -13.979   2.152  31.655  0.00  0.00    +0.205 C 
ATOM     14  C   UNL     1     -14.219   0.313  30.191  0.00  0.00    +0.175 C 
ENDROOT
BRANCH  10   5
ATOM      5  O   UNL     1     -15.727   3.575  32.474  0.00  0.00    -0.485 OA
BRANCH   5  16
ATOM     16  C   UNL     1     -15.064   4.649  33.001  0.00  0.00    +0.121 A 
ATOM     19  C   UNL     1     -14.760   5.745  32.194  0.00  0.00    +0.046 A 
ATOM     20  C   UNL     1     -14.693   4.648  34.346  0.00  0.00    +0.046 A 
ATOM     22  C   UNL     1     -14.084   6.840  32.731  0.00  0.00    +0.016 A 
ATOM     23  C   UNL     1     -14.017   5.743  34.883  0.00  0.00    +0.016 A 
ATOM     24  C   UNL     1     -13.712   6.839  34.075  0.00  0.00    +0.055 A 
BRANCH  24  25
ATOM      1  F   UNL     1     -12.372   7.742  35.840  0.00  0.00    -0.166 F 
ATOM      2  F   UNL     1     -13.795   9.083  34.901  0.00  0.00    -0.166 F 
ATOM      3  F   UNL     1     -12.005   8.476  33.826  0.00  0.00    -0.166 F 
ATOM     25  C   UNL     1     -12.989   8.010  34.650  0.00  0.00    +0.417 C 
ENDBRANCH  24  25
ENDBRANCH   5  16
ENDBRANCH  10   5
BRANCH   6  13
ATOM     13  C   UNL     1     -17.046   1.953  28.262  0.00  0.00    +0.122 C 
BRANCH  13  15
ATOM      7  N   UNL     1     -15.864   3.227  25.045  0.00  0.00    -0.274 N 
ATOM      8  N   UNL     1     -16.232   2.008  24.615  0.00  0.00    -0.180 NA
ATOM     15  C   UNL     1     -16.621   2.262  26.851  0.00  0.00    +0.004 A 
ATOM     17  C   UNL     1     -16.076   3.431  26.376  0.00  0.00    +0.112 A 
ATOM     18  C   UNL     1     -16.694   1.424  25.723  0.00  0.00    +0.139 A 
ATOM     21  C   UNL     1     -15.303   4.177  24.113  0.00  0.00    +0.172 C 
ENDBRANCH  13  15
ENDBRANCH   6  13
TORSDOF 5
ENDMDL
MODEL 6
REMARK VINA RESULT:      -6.0     27.853     29.588
REMARK  Name = 75536871
REMARK  6 active torsions:
REMARK  status: ('A' for Active; 'I' for Inactive)
REMARK    1  A    between atoms: O_5  and  C_10
REMARK    2  A    between atoms: O_5  and  C_16
REMARK    3  A    between atoms: N_6  and  C_13
REMARK    4  A    between atoms: N_7  and  C_21
REMARK    5  A    between atoms: C_13  and  C_15
REMARK    6  A    between atoms: C_24  and  C_25
REMARK                            x       y       z     vdW  Elec       q    Type
REMARK                         _______ _______ _______ _____ _____    ______ ____
ROOT
ATOM      4  O   UNL     1      -9.472 -13.697  19.705  0.00  0.00    -0.375 OA
ATOM      6  N   UNL     1     -10.672 -11.176  19.005  0.00  0.00    -0.292 NA
ATOM      9  C   UNL     1      -9.453 -10.692  19.654  0.00  0.00    +0.131 C 
ATOM     10  C   UNL     1      -8.256 -11.587  19.313  0.00  0.00    +0.213 C 
ATOM     11  C   UNL     1     -11.400 -12.199  19.765  0.00  0.00    +0.113 C 
ATOM     12  C   UNL     1      -8.271 -12.975  19.949  0.00  0.00    +0.205 C 
ATOM     14  C   UNL     1     -10.553 -13.231  20.505  0.00  0.00    +0.175 C 
ENDROOT
BRANCH  10   5
ATOM      5  O   UNL     1      -7.069 -10.912  19.730  0.00  0.00    -0.485 OA
BRANCH   5  16
ATOM     16  C   UNL     1      -6.018 -10.927  18.854  0.00  0.00    +0.121 A 
ATOM     19  C   UNL     1      -6.126 -10.280  17.624  0.00  0.00    +0.046 A 
ATOM     20  C   UNL     1      -4.839 -11.592  19.192  0.00  0.00    +0.046 A 
ATOM     22  C   UNL     1      -5.055 -10.297  16.731  0.00  0.00    +0.016 A 
ATOM     23  C   UNL     1      -3.768 -11.609  18.300  0.00  0.00    +0.016 A 
ATOM     24  C   UNL     1      -3.876 -10.962  17.068  0.00  0.00    +0.055 A 
BRANCH  24  25
ATOM      1  F   UNL     1      -2.776  -9.981  15.183  0.00  0.00    -0.166 F 
ATOM      2  F   UNL     1      -2.637 -12.135  15.391  0.00  0.00    -0.166 F 
ATOM      3  F   UNL     1      -1.524 -10.842  16.739  0.00  0.00    -0.166 F 
ATOM     25  C   UNL     1      -2.730 -10.980  16.114  0.00  0.00    +0.417 C 
ENDBRANCH  24  25
ENDBRANCH   5  16
ENDBRANCH  10   5
BRANCH   6  13
ATOM     13  C   UNL     1     -11.571 -10.074  18.661  0.00  0.00    +0.122 C 
BRANCH  13  15
ATOM      7  N   UNL     1     -10.540  -7.697  16.081  0.00  0.00    -0.274 N 
ATOM      8  N   UNL     1     -10.129  -8.812  15.452  0.00  0.00    -0.180 NA
ATOM     15  C   UNL     1     -11.069  -9.288  17.479  0.00  0.00    +0.004 A 
ATOM     17  C   UNL     1     -11.110  -7.927  17.298  0.00  0.00    +0.112 A 
ATOM     18  C   UNL     1     -10.456  -9.780  16.312  0.00  0.00    +0.139 A 
ATOM     21  C   UNL     1     -10.356  -6.410  15.451  0.00  0.00    +0.172 C 
ENDBRANCH  13  15
ENDBRANCH   6  13
TORSDOF 5
ENDMDL
MODEL 7
REMARK VINA RESULT:      -5.8     27.093     28.750
REMARK  Name = 75536871
REMARK  6 active torsions:
REMARK  status: ('A' for Active; 'I' for Inactive)
REMARK    1  A    between atoms: O_5  and  C_10
REMARK    2  A    between atoms: O_5  and  C_16
REMARK    3  A    between atoms: N_6  and  C_13
REMARK    4  A    between atoms: N_7  and  C_21
REMARK    5  A    between atoms: C_13  and  C_15
REMARK    6  A    between atoms: C_24  and  C_25
REMARK                            x       y       z     vdW  Elec       q    Type
REMARK                         _______ _______ _______ _____ _____    ______ ____
ROOT
ATOM      4  O   UNL     1      -6.944 -13.404  17.133  0.00  0.00    -0.375 OA
ATOM      6  N   UNL     1      -7.231 -10.545  17.308  0.00  0.00    -0.292 NA
ATOM      9  C   UNL     1      -5.789 -10.629  17.075  0.00  0.00    +0.131 C 
ATOM     10  C   UNL     1      -5.458 -11.743  16.075  0.00  0.00    +0.213 C 
ATOM     11  C   UNL     1      -7.731 -11.441  18.356  0.00  0.00    +0.113 C 
ATOM     12  C   UNL     1      -5.651 -13.167  16.591  0.00  0.00    +0.205 C 
ATOM     14  C   UNL     1      -7.099 -12.829  18.426  0.00  0.00    +0.175 C 
ENDROOT
BRANCH  10   5
ATOM      5  O   UNL     1      -4.095 -11.587  15.677  0.00  0.00    -0.485 OA
BRANCH   5  16
ATOM     16  C   UNL     1      -3.879 -11.082  14.425  0.00  0.00    +0.121 A 
ATOM     19  C   UNL     1      -2.576 -10.883  13.969  0.00  0.00    +0.046 A 
ATOM     20  C   UNL     1      -4.962 -10.765  13.605  0.00  0.00    +0.046 A 
ATOM     22  C   UNL     1      -2.357 -10.367  12.692  0.00  0.00    +0.016 A 
ATOM     23  C   UNL     1      -4.743 -10.249  12.328  0.00  0.00    +0.016 A 
ATOM     24  C   UNL     1      -3.439 -10.049  11.871  0.00  0.00    +0.055 A 
BRANCH  24  25
ATOM      1  F   UNL     1      -3.499 -10.376   9.502  0.00  0.00    -0.166 F 
ATOM      2  F   UNL     1      -1.911  -9.122  10.281  0.00  0.00    -0.166 F 
ATOM      3  F   UNL     1      -3.957  -8.387  10.252  0.00  0.00    -0.166 F 
ATOM     25  C   UNL     1      -3.205  -9.498  10.506  0.00  0.00    +0.417 C 
ENDBRANCH  24  25
ENDBRANCH   5  16
ENDBRANCH  10   5
BRANCH   6  13
ATOM     13  C   UNL     1      -7.651  -9.170  17.583  0.00  0.00    +0.122 C 
BRANCH  13  15
ATOM      7  N   UNL     1     -10.729  -7.902  16.069  0.00  0.00    -0.274 N 
ATOM      8  N   UNL     1     -10.322  -8.641  15.023  0.00  0.00    -0.180 NA
ATOM     15  C   UNL     1      -8.853  -8.777  16.767  0.00  0.00    +0.004 A 
ATOM     17  C   UNL     1      -9.885  -7.949  17.140  0.00  0.00    +0.112 A 
ATOM     18  C   UNL     1      -9.176  -9.172  15.456  0.00  0.00    +0.139 A 
ATOM     21  C   UNL     1     -11.962  -7.156  15.984  0.00  0.00    +0.172 C 
ENDBRANCH  13  15
ENDBRANCH   6  13
TORSDOF 5
ENDMDL
MODEL 8
REMARK VINA RESULT:      -5.8     27.279     28.731
REMARK  Name = 75536871
REMARK  6 active torsions:
REMARK  status: ('A' for Active; 'I' for Inactive)
REMARK    1  A    between atoms: O_5  and  C_10
REMARK    2  A    between atoms: O_5  and  C_16
REMARK    3  A    between atoms: N_6  and  C_13
REMARK    4  A    between atoms: N_7  and  C_21
REMARK    5  A    between atoms: C_13  and  C_15
REMARK    6  A    between atoms: C_24  and  C_25
REMARK                            x       y       z     vdW  Elec       q    Type
REMARK                         _______ _______ _______ _____ _____    ______ ____
ROOT
ATOM      4  O   UNL     1      -2.995 -13.248  12.503  0.00  0.00    -0.375 OA
ATOM      6  N   UNL     1      -2.872 -11.374  14.685  0.00  0.00    -0.292 NA
ATOM      9  C   UNL     1      -2.485 -10.490  13.586  0.00  0.00    +0.131 C 
ATOM     10  C   UNL     1      -3.289 -10.805  12.319  0.00  0.00    +0.213 C 
ATOM     11  C   UNL     1      -2.154 -12.653  14.718  0.00  0.00    +0.113 C 
ATOM     12  C   UNL     1      -2.943 -12.124  11.632  0.00  0.00    +0.205 C 
ATOM     14  C   UNL     1      -1.868 -13.310  13.370  0.00  0.00    +0.175 C 
ENDROOT
BRANCH  10   5
ATOM      5  O   UNL     1      -3.079  -9.743  11.388  0.00  0.00    -0.485 OA
BRANCH   5  16
ATOM     16  C   UNL     1      -4.142  -9.405  10.595  0.00  0.00    +0.121 A 
ATOM     19  C   UNL     1      -5.342  -8.998  11.176  0.00  0.00    +0.046 A 
ATOM     20  C   UNL     1      -4.023  -9.469   9.207  0.00  0.00    +0.046 A 
ATOM     22  C   UNL     1      -6.426  -8.655  10.367  0.00  0.00    +0.016 A 
ATOM     23  C   UNL     1      -5.106  -9.126   8.398  0.00  0.00    +0.016 A 
ATOM     24  C   UNL     1      -6.308  -8.720   8.979  0.00  0.00    +0.055 A 
BRANCH  24  25
ATOM      1  F   UNL     1      -7.286  -8.666   6.796  0.00  0.00    -0.166 F 
ATOM      2  F   UNL     1      -7.759  -7.019   8.126  0.00  0.00    -0.166 F 
ATOM      3  F   UNL     1      -8.619  -8.983   8.485  0.00  0.00    -0.166 F 
ATOM     25  C   UNL     1      -7.466  -8.353   8.114  0.00  0.00    +0.417 C 
ENDBRANCH  24  25
ENDBRANCH   5  16
ENDBRANCH  10   5
BRANCH   6  13
ATOM     13  C   UNL     1      -2.756 -10.702  15.980  0.00  0.00    +0.122 C 
BRANCH  13  15
ATOM      7  N   UNL     1      -6.133 -10.091  17.244  0.00  0.00    -0.274 N 
ATOM      8  N   UNL     1      -5.737 -10.921  18.224  0.00  0.00    -0.180 NA
ATOM     15  C   UNL     1      -4.086 -10.599  16.679  0.00  0.00    +0.004 A 
ATOM     17  C   UNL     1      -5.181  -9.864  16.294  0.00  0.00    +0.112 A 
ATOM     18  C   UNL     1      -4.486 -11.227  17.873  0.00  0.00    +0.139 A 
ATOM     21  C   UNL     1      -7.465  -9.532  17.271  0.00  0.00    +0.172 C 
ENDBRANCH  13  15
ENDBRANCH   6  13
TORSDOF 5
ENDMDL
MODEL 9
REMARK VINA RESULT:      -5.7      4.559      5.715
REMARK  Name = 75536871
REMARK  6 active torsions:
REMARK  status: ('A' for Active; 'I' for Inactive)
REMARK    1  A    between atoms: O_5  and  C_10
REMARK    2  A    between atoms: O_5  and  C_16
REMARK    3  A    between atoms: N_6  and  C_13
REMARK    4  A    between atoms: N_7  and  C_21
REMARK    5  A    between atoms: C_13  and  C_15
REMARK    6  A    between atoms: C_24  and  C_25
REMARK                            x       y       z     vdW  Elec       q    Type
REMARK                         _______ _______ _______ _____ _____    ______ ____
ROOT
ATOM      4  O   UNL     1      10.631   8.052  20.334  0.00  0.00    -0.375 OA
ATOM      6  N   UNL     1      12.214   9.772  22.013  0.00  0.00    -0.292 NA
ATOM      9  C   UNL     1      13.282   9.150  21.230  0.00  0.00    +0.131 C 
ATOM     10  C   UNL     1      12.853   8.961  19.770  0.00  0.00    +0.213 C 
ATOM     11  C   UNL     1      11.239   8.827  22.568  0.00  0.00    +0.113 C 
ATOM     12  C   UNL     1      11.793   7.890  19.529  0.00  0.00    +0.205 C 
ATOM     14  C   UNL     1      10.848   7.648  21.681  0.00  0.00    +0.175 C 
ENDROOT
BRANCH  10   5
ATOM      5  O   UNL     1      14.015   8.626  19.010  0.00  0.00    -0.485 OA
BRANCH   5  16
ATOM     16  C   UNL     1      14.317   9.449  17.960  0.00  0.00    +0.121 A 
ATOM     19  C   UNL     1      14.099   9.018  16.651  0.00  0.00    +0.046 A 
ATOM     20  C   UNL     1      14.842  10.719  18.199  0.00  0.00    +0.046 A 
ATOM     22  C   UNL     1      14.408   9.857  15.581  0.00  0.00    +0.016 A 
ATOM     23  C   UNL     1      15.150  11.559  17.128  0.00  0.00    +0.016 A 
ATOM     24  C   UNL     1      14.934  11.127  15.819  0.00  0.00    +0.055 A 
BRANCH  24  25
ATOM      1  F   UNL     1      16.573  11.962  14.289  0.00  0.00    -0.166 F 
ATOM      2  F   UNL     1      15.031  13.347  14.931  0.00  0.00    -0.166 F 
ATOM      3  F   UNL     1      14.538  11.737  13.555  0.00  0.00    -0.166 F 
ATOM     25  C   UNL     1      15.264  12.025  14.675  0.00  0.00    +0.417 C 
ENDBRANCH  24  25
ENDBRANCH   5  16
ENDBRANCH  10   5
BRANCH   6  13
ATOM     13  C   UNL     1      12.754  10.617  23.079  0.00  0.00    +0.122 C 
BRANCH  13  15
ATOM      7  N   UNL     1      10.326  13.277  23.719  0.00  0.00    -0.274 N 
ATOM      8  N   UNL     1      10.303  12.732  24.947  0.00  0.00    -0.180 NA
ATOM     15  C   UNL     1      11.742  11.621  23.564  0.00  0.00    +0.004 A 
ATOM     17  C   UNL     1      11.173  12.650  22.852  0.00  0.00    +0.112 A 
ATOM     18  C   UNL     1      11.170  11.721  24.846  0.00  0.00    +0.139 A 
ATOM     21  C   UNL     1       9.499  14.423  23.427  0.00  0.00    +0.172 C 
ENDBRANCH  13  15
ENDBRANCH   6  13
TORSDOF 5
ENDMDL
MODEL 10
REMARK VINA RESULT:      -5.7     25.274     28.248
REMARK  Name = 75536871
REMARK  6 active torsions:
REMARK  status: ('A' for Active; 'I' for Inactive)
REMARK    1  A    between atoms: O_5  and  C_10
REMARK    2  A    between atoms: O_5  and  C_16
REMARK    3  A    between atoms: N_6  and  C_13
REMARK    4  A    between atoms: N_7  and  C_21
REMARK    5  A    between atoms: C_13  and  C_15
REMARK    6  A    between atoms: C_24  and  C_25
REMARK                            x       y       z     vdW  Elec       q    Type
REMARK                         _______ _______ _______ _____ _____    ______ ____
ROOT
ATOM      4  O   UNL     1       5.435   7.722  -6.967  0.00  0.00    -0.375 OA
ATOM      6  N   UNL     1       6.491   7.192  -4.342  0.00  0.00    -0.292 NA
ATOM      9  C   UNL     1       5.060   7.164  -4.037  0.00  0.00    +0.131 C 
ATOM     10  C   UNL     1       4.270   6.498  -5.169  0.00  0.00    +0.213 C 
ATOM     11  C   UNL     1       6.921   8.350  -5.134  0.00  0.00    +0.113 C 
ATOM     12  C   UNL     1       4.172   7.302  -6.464  0.00  0.00    +0.205 C 
ATOM     14  C   UNL     1       5.970   8.817  -6.233  0.00  0.00    +0.175 C 
ENDROOT
BRANCH  10   5
ATOM      5  O   UNL     1       2.947   6.245  -4.694  0.00  0.00    -0.485 OA
BRANCH   5  16
ATOM     16  C   UNL     1       2.485   4.964  -4.825  0.00  0.00    +0.121 A 
ATOM     19  C   UNL     1       1.236   4.617  -4.312  0.00  0.00    +0.046 A 
ATOM     20  C   UNL     1       3.265   4.006  -5.474  0.00  0.00    +0.046 A 
ATOM     22  C   UNL     1       0.766   3.311  -4.446  0.00  0.00    +0.016 A 
ATOM     23  C   UNL     1       2.795   2.700  -5.608  0.00  0.00    +0.016 A 
ATOM     24  C   UNL     1       1.546   2.352  -5.093  0.00  0.00    +0.055 A 
BRANCH  24  25
ATOM      1  F   UNL     1       1.936   0.007  -4.822  0.00  0.00    -0.166 F 
ATOM      2  F   UNL     1       0.735   0.613  -6.522  0.00  0.00    -0.166 F 
ATOM      3  F   UNL     1      -0.093   0.728  -4.515  0.00  0.00    -0.166 F 
ATOM     25  C   UNL     1       1.044   0.955  -5.237  0.00  0.00    +0.417 C 
ENDBRANCH  24  25
ENDBRANCH   5  16
ENDBRANCH  10   5
BRANCH   6  13
ATOM     13  C   UNL     1       7.300   7.088  -3.128  0.00  0.00    +0.122 C 
BRANCH  13  15
ATOM      7  N   UNL     1       9.143   3.973  -3.652  0.00  0.00    -0.274 N 
ATOM      8  N   UNL     1       9.675   4.281  -2.458  0.00  0.00    -0.180 NA
ATOM     15  C   UNL     1       8.160   5.852  -3.131  0.00  0.00    +0.004 A 
ATOM     17  C   UNL     1       8.230   4.881  -4.101  0.00  0.00    +0.112 A 
ATOM     18  C   UNL     1       9.071   5.430  -2.145  0.00  0.00    +0.139 A 
ATOM     21  C   UNL     1       9.556   2.768  -4.333  0.00  0.00    +0.172 C 
ENDBRANCH  13  15
ENDBRANCH   6  13
TORSDOF 5
ENDMDL
