REMARK  Name = 38026613
REMARK  10 active torsions:
REMARK  status: ('A' for Active; 'I' for Inactive)
REMARK    1  A    between atoms: O_2  and  C_10
REMARK    2  A    between atoms: O_3  and  C_16
REMARK    3  A    between atoms: N_5  and  C_8
REMARK    4  A    between atoms: N_6  and  C_14
REMARK    5  A    between atoms: N_7  and  C_29
REMARK    6  A    between atoms: N_7  and  C_30
REMARK    7  A    between atoms: N_7  and  C_31
REMARK    8  A    between atoms: C_9  and  C_14
REMARK    9  A    between atoms: C_11  and  C_16
REMARK   10  A    between atoms: C_23  and  C_24
REMARK                            x       y       z     vdW  Elec       q    Type
REMARK                         _______ _______ _______ _____ _____    ______ ____
ROOT
ATOM      1  O   UNL     1      -0.111  -2.354  -0.685  0.00  0.00    -0.365 OA
ATOM      8  C   UNL     1      -2.144  -1.126  -0.843  0.00  0.00    +0.118 C 
ATOM      9  C   UNL     1      -0.620  -1.002  -0.713  0.00  0.00    +0.155 C 
ATOM     10  C   UNL     1      -2.431  -2.489  -0.232  0.00  0.00    +0.165 C 
ATOM     11  C   UNL     1      -1.219  -3.275  -0.717  0.00  0.00    +0.174 C 
ENDROOT
BRANCH   8   5
ATOM      5  N   UNL     1      -2.931  -0.020  -0.299  0.00  0.00    -0.290 NA
ATOM     12  C   UNL     1      -2.546   1.251  -0.925  0.00  0.00    +0.090 C 
ATOM     13  C   UNL     1      -4.370  -0.269  -0.494  0.00  0.00    +0.120 C 
ATOM     15  C   UNL     1      -3.227   2.416  -0.200  0.00  0.00    +0.051 C 
ATOM     17  C   UNL     1      -5.240   0.896  -0.082  0.00  0.00    -0.030 A 
ATOM     18  C   UNL     1      -4.701   2.190   0.016  0.00  0.00    -0.042 A 
ATOM     19  C   UNL     1      -6.609   0.700   0.144  0.00  0.00    +0.005 A 
ATOM     20  C   UNL     1      -5.529   3.261   0.375  0.00  0.00    +0.004 A 
ATOM     21  C   UNL     1      -7.428   1.774   0.491  0.00  0.00    +0.000 A 
ATOM     22  C   UNL     1      -6.888   3.053   0.609  0.00  0.00    +0.000 A 
ENDBRANCH   8   5
BRANCH  10   2
ATOM      2  O   UNL     1      -2.447  -2.429   1.188  0.00  0.00    -0.388 OA
ATOM     32  H   UNL     1      -1.546  -2.295   1.517  0.00  0.00    +0.210 HD
ENDBRANCH  10   2
BRANCH   9  14
ATOM     14  C   UNL     1      -0.095  -0.295   0.531  0.00  0.00    +0.137 C 
BRANCH  14   6
ATOM      4  O   UNL     1       2.310  -1.755   1.102  0.00  0.00    -0.270 OA
ATOM      6  N   UNL     1       1.248   0.161   0.337  0.00  0.00    -0.309 N 
ATOM     23  C   UNL     1       2.362  -0.618   0.643  0.00  0.00    +0.244 C 
ATOM     33  H   UNL     1       1.362   1.114   0.011  0.00  0.00    +0.149 HD
BRANCH  23  24
ATOM     24  C   UNL     1       3.688   0.010   0.408  0.00  0.00    +0.037 A 
ATOM     25  C   UNL     1       4.793  -0.393   1.158  0.00  0.00    +0.015 A 
ATOM     26  C   UNL     1       3.828   1.004  -0.561  0.00  0.00    +0.015 A 
ATOM     27  C   UNL     1       6.038   0.196   0.938  0.00  0.00    +0.024 A 
ATOM     28  C   UNL     1       5.073   1.593  -0.780  0.00  0.00    +0.024 A 
ATOM     29  C   UNL     1       6.178   1.189  -0.031  0.00  0.00    +0.029 A 
BRANCH  29   7
ATOM      7  N   UNL     1       7.437   1.785  -0.254  0.00  0.00    -0.336 N 
ATOM     30  C   UNL     1       8.591   1.373   0.519  0.00  0.00    +0.129 C 
ATOM     31  C   UNL     1       7.594   2.813  -1.264  0.00  0.00    +0.129 C 
ENDBRANCH  29   7
ENDBRANCH  23  24
ENDBRANCH  14   6
ENDBRANCH   9  14
BRANCH  11  16
ATOM     16  C   UNL     1      -0.870  -4.507   0.098  0.00  0.00    +0.190 C 
BRANCH  16   3
ATOM      3  O   UNL     1       0.264  -5.133  -0.479  0.00  0.00    -0.392 OA
ATOM     34  H   UNL     1       0.461  -5.920   0.058  0.00  0.00    +0.210 HD
ENDBRANCH  16   3
ENDBRANCH  11  16
TORSDOF 8
