MODEL 1
REMARK VINA RESULT:      -7.8      0.000      0.000
REMARK  Name = 11884147
REMARK  9 active torsions:
REMARK  status: ('A' for Active; 'I' for Inactive)
REMARK    1  A    between atoms: O_3  and  C_13
REMARK    2  A    between atoms: O_3  and  C_17
REMARK    3  A    between atoms: O_6  and  C_24
REMARK    4  A    between atoms: O_6  and  C_31
REMARK    5  A    between atoms: N_8  and  C_12
REMARK    6  A    between atoms: N_9  and  C_21
REMARK    7  A    between atoms: C_16  and  C_18
REMARK    8  A    between atoms: C_29  and  C_30
REMARK    9  A    between atoms: C_30  and  C_32
REMARK                            x       y       z     vdW  Elec       q    Type
REMARK                         _______ _______ _______ _____ _____    ______ ____
ROOT
ATOM      1  O   UNL     1     -17.316   4.706  25.329  0.00  0.00    -0.368 OA
ATOM      2  O   UNL     1     -16.745   1.913  24.199  0.00  0.00    -0.368 OA
ATOM     10  C   UNL     1     -16.209   2.608  25.344  0.00  0.00    +0.173 C 
ATOM     11  C   UNL     1     -16.084   4.067  24.953  0.00  0.00    +0.192 C 
ATOM     12  C   UNL     1     -17.223   2.620  26.465  0.00  0.00    +0.130 C 
ATOM     13  C   UNL     1     -15.930   3.991  23.453  0.00  0.00    +0.235 C 
ATOM     14  C   UNL     1     -18.121   3.781  26.075  0.00  0.00    +0.185 C 
ATOM     15  C   UNL     1     -16.830   2.829  23.098  0.00  0.00    +0.207 C 
ENDROOT
BRANCH  12   8
ATOM      4  O   UNL     1     -16.189   0.625  28.253  0.00  0.00    -0.270 OA
ATOM      8  N   UNL     1     -16.589   2.851  27.740  0.00  0.00    -0.304 N 
ATOM     16  C   UNL     1     -16.119   1.817  28.538  0.00  0.00    +0.244 C 
ATOM     33  H   UNL     1     -16.593   3.803  28.091  0.00  0.00    +0.149 HD
BRANCH  16  18
ATOM     18  C   UNL     1     -15.515   2.220  29.835  0.00  0.00    +0.037 A 
ATOM     19  C   UNL     1     -15.198   3.557  30.071  0.00  0.00    +0.016 A 
ATOM     20  C   UNL     1     -15.266   1.260  30.816  0.00  0.00    +0.016 A 
ATOM     22  C   UNL     1     -14.632   3.935  31.288  0.00  0.00    +0.046 A 
ATOM     23  C   UNL     1     -14.699   1.638  32.033  0.00  0.00    +0.046 A 
ATOM     24  C   UNL     1     -14.383   2.975  32.269  0.00  0.00    +0.120 A 
BRANCH  24   6
ATOM      6  O   UNL     1     -13.831   3.345  33.458  0.00  0.00    -0.495 OA
ATOM     31  C   UNL     1     -14.403   4.477  34.114  0.00  0.00    +0.277 C 
ENDBRANCH  24   6
ENDBRANCH  16  18
ENDBRANCH  12   8
BRANCH  13   3
ATOM      3  O   UNL     1     -16.304   5.176  22.787  0.00  0.00    -0.442 OA
BRANCH   3  17
ATOM      5  O   UNL     1     -15.983   5.015  20.529  0.00  0.00    -0.226 OA
ATOM      9  N   UNL     1     -14.585   6.320  21.880  0.00  0.00    -0.251 N 
ATOM     17  C   UNL     1     -15.640   5.470  21.614  0.00  0.00    +0.405 C 
ATOM     34  H   UNL     1     -14.460   6.591  22.852  0.00  0.00    +0.158 HD
BRANCH   9  21
ATOM     21  C   UNL     1     -13.655   6.865  20.965  0.00  0.00    +0.036 A 
ATOM     25  C   UNL     1     -14.101   7.638  19.894  0.00  0.00    +0.024 A 
ATOM     26  C   UNL     1     -12.290   6.628  21.135  0.00  0.00    +0.024 A 
ATOM     27  C   UNL     1     -13.183   8.175  18.992  0.00  0.00    +0.013 A 
ATOM     28  C   UNL     1     -11.373   7.164  20.231  0.00  0.00    +0.013 A 
ATOM     29  C   UNL     1     -11.819   7.939  19.160  0.00  0.00    +0.017 A 
BRANCH  29  30
ATOM      7  O   UNL     1     -10.602   7.930  17.139  0.00  0.00    -0.292 OA
ATOM     30  C   UNL     1     -10.863   8.498  18.219  0.00  0.00    +0.160 C 
ATOM     32  C   UNL     1     -10.148   9.807  18.536  0.00  0.00    +0.091 C 
ENDBRANCH  29  30
ENDBRANCH   9  21
ENDBRANCH   3  17
ENDBRANCH  13   3
TORSDOF 7
ENDMDL
MODEL 2
REMARK VINA RESULT:      -7.2     17.932     19.812
REMARK  Name = 11884147
REMARK  9 active torsions:
REMARK  status: ('A' for Active; 'I' for Inactive)
REMARK    1  A    between atoms: O_3  and  C_13
REMARK    2  A    between atoms: O_3  and  C_17
REMARK    3  A    between atoms: O_6  and  C_24
REMARK    4  A    between atoms: O_6  and  C_31
REMARK    5  A    between atoms: N_8  and  C_12
REMARK    6  A    between atoms: N_9  and  C_21
REMARK    7  A    between atoms: C_16  and  C_18
REMARK    8  A    between atoms: C_29  and  C_30
REMARK    9  A    between atoms: C_30  and  C_32
REMARK                            x       y       z     vdW  Elec       q    Type
REMARK                         _______ _______ _______ _____ _____    ______ ____
ROOT
ATOM      1  O   UNL     1      -6.801 -11.658  17.203  0.00  0.00    -0.368 OA
ATOM      2  O   UNL     1      -6.375 -10.940  20.154  0.00  0.00    -0.368 OA
ATOM     10  C   UNL     1      -6.957 -10.196  19.063  0.00  0.00    +0.173 C 
ATOM     11  C   UNL     1      -6.155 -10.533  17.823  0.00  0.00    +0.192 C 
ATOM     12  C   UNL     1      -8.340 -10.722  18.755  0.00  0.00    +0.130 C 
ATOM     13  C   UNL     1      -4.810 -10.909  18.397  0.00  0.00    +0.235 C 
ATOM     14  C   UNL     1      -8.038 -11.927  17.880  0.00  0.00    +0.185 C 
ATOM     15  C   UNL     1      -5.194 -11.605  19.683  0.00  0.00    +0.207 C 
ENDROOT
BRANCH  12   8
ATOM      4  O   UNL     1     -11.175 -10.320  18.964  0.00  0.00    -0.270 OA
ATOM      8  N   UNL     1      -9.126  -9.743  18.046  0.00  0.00    -0.304 N 
ATOM     16  C   UNL     1     -10.498  -9.623  18.214  0.00  0.00    +0.244 C 
ATOM     33  H   UNL     1      -8.652  -9.203  17.328  0.00  0.00    +0.149 HD
BRANCH  16  18
ATOM     18  C   UNL     1     -11.167  -8.582  17.390  0.00  0.00    +0.037 A 
ATOM     19  C   UNL     1     -12.487  -8.763  16.976  0.00  0.00    +0.016 A 
ATOM     20  C   UNL     1     -10.475  -7.426  17.032  0.00  0.00    +0.016 A 
ATOM     22  C   UNL     1     -13.114  -7.785  16.204  0.00  0.00    +0.046 A 
ATOM     23  C   UNL     1     -11.103  -6.449  16.259  0.00  0.00    +0.046 A 
ATOM     24  C   UNL     1     -12.422  -6.628  15.846  0.00  0.00    +0.120 A 
BRANCH  24   6
ATOM      6  O   UNL     1     -13.036  -5.674  15.093  0.00  0.00    -0.495 OA
ATOM     31  C   UNL     1     -12.356  -5.239  13.916  0.00  0.00    +0.277 C 
ENDBRANCH  24   6
ENDBRANCH  16  18
ENDBRANCH  12   8
BRANCH  13   3
ATOM      3  O   UNL     1      -4.048 -11.740  17.550  0.00  0.00    -0.442 OA
BRANCH   3  17
ATOM      5  O   UNL     1      -2.543 -10.487  16.371  0.00  0.00    -0.226 OA
ATOM      9  N   UNL     1      -4.378 -11.503  15.332  0.00  0.00    -0.251 N 
ATOM     17  C   UNL     1      -3.558 -11.172  16.393  0.00  0.00    +0.405 C 
ATOM     34  H   UNL     1      -5.181 -12.088  15.550  0.00  0.00    +0.158 HD
BRANCH   9  21
ATOM     21  C   UNL     1      -4.239 -11.130  13.975  0.00  0.00    +0.036 A 
ATOM     25  C   UNL     1      -3.134 -11.564  13.243  0.00  0.00    +0.024 A 
ATOM     26  C   UNL     1      -5.207 -10.328  13.370  0.00  0.00    +0.024 A 
ATOM     27  C   UNL     1      -2.997 -11.196  11.905  0.00  0.00    +0.013 A 
ATOM     28  C   UNL     1      -5.069  -9.959  12.032  0.00  0.00    +0.013 A 
ATOM     29  C   UNL     1      -3.964 -10.394  11.299  0.00  0.00    +0.017 A 
BRANCH  29  30
ATOM      7  O   UNL     1      -3.233  -8.960   9.574  0.00  0.00    -0.292 OA
ATOM     30  C   UNL     1      -3.821 -10.010   9.904  0.00  0.00    +0.160 C 
ATOM     32  C   UNL     1      -4.393 -10.893   8.800  0.00  0.00    +0.091 C 
ENDBRANCH  29  30
ENDBRANCH   9  21
ENDBRANCH   3  17
ENDBRANCH  13   3
TORSDOF 7
ENDMDL
MODEL 3
REMARK VINA RESULT:      -7.1     19.998     21.685
REMARK  Name = 11884147
REMARK  9 active torsions:
REMARK  status: ('A' for Active; 'I' for Inactive)
REMARK    1  A    between atoms: O_3  and  C_13
REMARK    2  A    between atoms: O_3  and  C_17
REMARK    3  A    between atoms: O_6  and  C_24
REMARK    4  A    between atoms: O_6  and  C_31
REMARK    5  A    between atoms: N_8  and  C_12
REMARK    6  A    between atoms: N_9  and  C_21
REMARK    7  A    between atoms: C_16  and  C_18
REMARK    8  A    between atoms: C_29  and  C_30
REMARK    9  A    between atoms: C_30  and  C_32
REMARK                            x       y       z     vdW  Elec       q    Type
REMARK                         _______ _______ _______ _____ _____    ______ ____
ROOT
ATOM      1  O   UNL     1      -3.995 -12.168  14.638  0.00  0.00    -0.368 OA
ATOM      2  O   UNL     1      -2.046 -10.775  16.553  0.00  0.00    -0.368 OA
ATOM     10  C   UNL     1      -3.405 -10.465  16.179  0.00  0.00    +0.173 C 
ATOM     11  C   UNL     1      -3.545 -10.804  14.709  0.00  0.00    +0.192 C 
ATOM     12  C   UNL     1      -4.361 -11.414  16.863  0.00  0.00    +0.130 C 
ATOM     13  C   UNL     1      -2.129 -10.657  14.204  0.00  0.00    +0.235 C 
ATOM     14  C   UNL     1      -4.304 -12.635  15.960  0.00  0.00    +0.185 C 
ATOM     15  C   UNL     1      -1.318 -11.158  15.377  0.00  0.00    +0.207 C 
ENDROOT
BRANCH  12   8
ATOM      4  O   UNL     1      -5.937 -10.972  19.222  0.00  0.00    -0.270 OA
ATOM      8  N   UNL     1      -5.693 -10.864  16.918  0.00  0.00    -0.304 N 
ATOM     16  C   UNL     1      -6.379 -10.687  18.112  0.00  0.00    +0.244 C 
ATOM     33  H   UNL     1      -6.164 -10.706  16.033  0.00  0.00    +0.149 HD
BRANCH  16  18
ATOM     18  C   UNL     1      -7.753 -10.133  17.998  0.00  0.00    +0.037 A 
ATOM     19  C   UNL     1      -8.002  -9.060  17.142  0.00  0.00    +0.016 A 
ATOM     20  C   UNL     1      -8.792 -10.686  18.745  0.00  0.00    +0.016 A 
ATOM     22  C   UNL     1      -9.292  -8.540  17.035  0.00  0.00    +0.046 A 
ATOM     23  C   UNL     1     -10.082 -10.166  18.638  0.00  0.00    +0.046 A 
ATOM     24  C   UNL     1     -10.332  -9.094  17.782  0.00  0.00    +0.120 A 
BRANCH  24   6
ATOM      6  O   UNL     1     -11.591  -8.586  17.675  0.00  0.00    -0.495 OA
ATOM     31  C   UNL     1     -11.877  -7.799  16.520  0.00  0.00    +0.277 C 
ENDBRANCH  24   6
ENDBRANCH  16  18
ENDBRANCH  12   8
BRANCH  13   3
ATOM      3  O   UNL     1      -1.872 -11.391  13.028  0.00  0.00    -0.442 OA
BRANCH   3  17
ATOM      5  O   UNL     1      -1.638  -9.773  11.429  0.00  0.00    -0.226 OA
ATOM      9  N   UNL     1      -3.204 -11.499  11.211  0.00  0.00    -0.251 N 
ATOM     17  C   UNL     1      -2.196 -10.787  11.831  0.00  0.00    +0.405 C 
ATOM     34  H   UNL     1      -3.541 -12.323  11.704  0.00  0.00    +0.158 HD
BRANCH   9  21
ATOM     21  C   UNL     1      -3.828 -11.227   9.972  0.00  0.00    +0.036 A 
ATOM     25  C   UNL     1      -4.030 -12.256   9.052  0.00  0.00    +0.024 A 
ATOM     26  C   UNL     1      -4.240  -9.929   9.670  0.00  0.00    +0.024 A 
ATOM     27  C   UNL     1      -4.645 -11.986   7.830  0.00  0.00    +0.013 A 
ATOM     28  C   UNL     1      -4.854  -9.660   8.446  0.00  0.00    +0.013 A 
ATOM     29  C   UNL     1      -5.057 -10.689   7.526  0.00  0.00    +0.017 A 
BRANCH  29  30
ATOM      7  O   UNL     1      -5.416 -11.058   5.224  0.00  0.00    -0.292 OA
ATOM     30  C   UNL     1      -5.698 -10.409   6.252  0.00  0.00    +0.160 C 
ATOM     32  C   UNL     1      -6.739  -9.301   6.141  0.00  0.00    +0.091 C 
ENDBRANCH  29  30
ENDBRANCH   9  21
ENDBRANCH   3  17
ENDBRANCH  13   3
TORSDOF 7
ENDMDL
MODEL 4
REMARK VINA RESULT:      -6.8     32.323     36.667
REMARK  Name = 11884147
REMARK  9 active torsions:
REMARK  status: ('A' for Active; 'I' for Inactive)
REMARK    1  A    between atoms: O_3  and  C_13
REMARK    2  A    between atoms: O_3  and  C_17
REMARK    3  A    between atoms: O_6  and  C_24
REMARK    4  A    between atoms: O_6  and  C_31
REMARK    5  A    between atoms: N_8  and  C_12
REMARK    6  A    between atoms: N_9  and  C_21
REMARK    7  A    between atoms: C_16  and  C_18
REMARK    8  A    between atoms: C_29  and  C_30
REMARK    9  A    between atoms: C_30  and  C_32
REMARK                            x       y       z     vdW  Elec       q    Type
REMARK                         _______ _______ _______ _____ _____    ______ ____
ROOT
ATOM      1  O   UNL     1      20.826   5.162  22.008  0.00  0.00    -0.368 OA
ATOM      2  O   UNL     1      22.202   7.082  20.052  0.00  0.00    -0.368 OA
ATOM     10  C   UNL     1      22.739   6.119  20.982  0.00  0.00    +0.173 C 
ATOM     11  C   UNL     1      21.851   6.151  22.210  0.00  0.00    +0.192 C 
ATOM     12  C   UNL     1      22.559   4.719  20.442  0.00  0.00    +0.130 C 
ATOM     13  C   UNL     1      21.289   7.552  22.169  0.00  0.00    +0.235 C 
ATOM     14  C   UNL     1      21.121   4.409  20.822  0.00  0.00    +0.185 C 
ATOM     15  C   UNL     1      21.125   7.789  20.685  0.00  0.00    +0.207 C 
ENDROOT
BRANCH  12   8
ATOM      4  O   UNL     1      24.833   3.471  19.211  0.00  0.00    -0.270 OA
ATOM      8  N   UNL     1      23.477   3.797  21.064  0.00  0.00    -0.304 N 
ATOM     16  C   UNL     1      24.553   3.243  20.384  0.00  0.00    +0.244 C 
ATOM     33  H   UNL     1      23.247   3.477  21.999  0.00  0.00    +0.149 HD
BRANCH  16  18
ATOM     18  C   UNL     1      25.390   2.289  21.158  0.00  0.00    +0.037 A 
ATOM     19  C   UNL     1      24.869   1.050  21.533  0.00  0.00    +0.016 A 
ATOM     20  C   UNL     1      26.695   2.633  21.510  0.00  0.00    +0.016 A 
ATOM     22  C   UNL     1      25.655   0.155  22.259  0.00  0.00    +0.046 A 
ATOM     23  C   UNL     1      27.480   1.738  22.236  0.00  0.00    +0.046 A 
ATOM     24  C   UNL     1      26.960   0.499  22.610  0.00  0.00    +0.120 A 
BRANCH  24   6
ATOM      6  O   UNL     1      27.727  -0.376  23.318  0.00  0.00    -0.495 OA
ATOM     31  C   UNL     1      27.146  -0.947  24.490  0.00  0.00    +0.277 C 
ENDBRANCH  24   6
ENDBRANCH  16  18
ENDBRANCH  12   8
BRANCH  13   3
ATOM      3  O   UNL     1      20.073   7.692  22.868  0.00  0.00    -0.442 OA
BRANCH   3  17
ATOM      5  O   UNL     1      18.820   9.315  21.854  0.00  0.00    -0.226 OA
ATOM      9  N   UNL     1      18.170   7.065  21.831  0.00  0.00    -0.251 N 
ATOM     17  C   UNL     1      18.985   8.136  22.145  0.00  0.00    +0.405 C 
ATOM     34  H   UNL     1      18.478   6.154  22.163  0.00  0.00    +0.158 HD
BRANCH   9  21
ATOM     21  C   UNL     1      16.958   7.078  21.103  0.00  0.00    +0.036 A 
ATOM     25  C   UNL     1      16.922   6.578  19.801  0.00  0.00    +0.024 A 
ATOM     26  C   UNL     1      15.799   7.590  21.687  0.00  0.00    +0.024 A 
ATOM     27  C   UNL     1      15.727   6.592  19.084  0.00  0.00    +0.013 A 
ATOM     28  C   UNL     1      14.604   7.604  20.968  0.00  0.00    +0.013 A 
ATOM     29  C   UNL     1      14.567   7.104  19.667  0.00  0.00    +0.017 A 
BRANCH  29  30
ATOM      7  O   UNL     1      12.296   6.551  19.348  0.00  0.00    -0.292 OA
ATOM     30  C   UNL     1      13.322   7.117  18.917  0.00  0.00    +0.160 C 
ATOM     32  C   UNL     1      13.241   7.829  17.572  0.00  0.00    +0.091 C 
ENDBRANCH  29  30
ENDBRANCH   9  21
ENDBRANCH   3  17
ENDBRANCH  13   3
TORSDOF 7
ENDMDL
MODEL 5
REMARK VINA RESULT:      -6.8     24.305     30.136
REMARK  Name = 11884147
REMARK  9 active torsions:
REMARK  status: ('A' for Active; 'I' for Inactive)
REMARK    1  A    between atoms: O_3  and  C_13
REMARK    2  A    between atoms: O_3  and  C_17
REMARK    3  A    between atoms: O_6  and  C_24
REMARK    4  A    between atoms: O_6  and  C_31
REMARK    5  A    between atoms: N_8  and  C_12
REMARK    6  A    between atoms: N_9  and  C_21
REMARK    7  A    between atoms: C_16  and  C_18
REMARK    8  A    between atoms: C_29  and  C_30
REMARK    9  A    between atoms: C_30  and  C_32
REMARK                            x       y       z     vdW  Elec       q    Type
REMARK                         _______ _______ _______ _____ _____    ______ ____
ROOT
ATOM      1  O   UNL     1       4.589  11.569   2.750  0.00  0.00    -0.368 OA
ATOM      2  O   UNL     1       5.212   9.668   0.425  0.00  0.00    -0.368 OA
ATOM     10  C   UNL     1       4.185   9.634   1.438  0.00  0.00    +0.173 C 
ATOM     11  C   UNL     1       4.813  10.149   2.718  0.00  0.00    +0.192 C 
ATOM     12  C   UNL     1       3.114  10.654   1.125  0.00  0.00    +0.130 C 
ATOM     13  C   UNL     1       6.273   9.818   2.520  0.00  0.00    +0.235 C 
ATOM     14  C   UNL     1       3.722  11.936   1.666  0.00  0.00    +0.185 C 
ATOM     15  C   UNL     1       6.455  10.045   1.036  0.00  0.00    +0.207 C 
ENDROOT
BRANCH  12   8
ATOM      4  O   UNL     1       0.461  11.256   0.207  0.00  0.00    -0.270 OA
ATOM      8  N   UNL     1       1.878  10.335   1.796  0.00  0.00    -0.304 N 
ATOM     16  C   UNL     1       0.637  10.669   1.271  0.00  0.00    +0.244 C 
ATOM     33  H   UNL     1       1.947   9.947   2.731  0.00  0.00    +0.149 HD
BRANCH  16  18
ATOM     18  C   UNL     1      -0.541  10.294   2.097  0.00  0.00    +0.037 A 
ATOM     19  C   UNL     1      -0.357   9.792   3.385  0.00  0.00    +0.016 A 
ATOM     20  C   UNL     1      -1.829  10.444   1.584  0.00  0.00    +0.016 A 
ATOM     22  C   UNL     1      -1.462   9.440   4.161  0.00  0.00    +0.046 A 
ATOM     23  C   UNL     1      -2.934  10.093   2.359  0.00  0.00    +0.046 A 
ATOM     24  C   UNL     1      -2.750   9.591   3.647  0.00  0.00    +0.120 A 
BRANCH  24   6
ATOM      6  O   UNL     1      -3.829   9.249   4.405  0.00  0.00    -0.495 OA
ATOM     31  C   UNL     1      -3.827   7.945   4.984  0.00  0.00    +0.277 C 
ENDBRANCH  24   6
ENDBRANCH  16  18
ENDBRANCH  12   8
BRANCH  13   3
ATOM      3  O   UNL     1       7.141  10.619   3.290  0.00  0.00    -0.442 OA
BRANCH   3  17
ATOM      5  O   UNL     1       9.314  10.262   3.905  0.00  0.00    -0.226 OA
ATOM      9  N   UNL     1       7.561   8.984   4.786  0.00  0.00    -0.251 N 
ATOM     17  C   UNL     1       8.128   9.968   3.999  0.00  0.00    +0.405 C 
ATOM     34  H   UNL     1       6.550   8.892   4.729  0.00  0.00    +0.158 HD
BRANCH   9  21
ATOM     21  C   UNL     1       8.213   8.089   5.664  0.00  0.00    +0.036 A 
ATOM     25  C   UNL     1       8.323   6.739   5.328  0.00  0.00    +0.024 A 
ATOM     26  C   UNL     1       8.745   8.554   6.867  0.00  0.00    +0.024 A 
ATOM     27  C   UNL     1       8.965   5.856   6.195  0.00  0.00    +0.013 A 
ATOM     28  C   UNL     1       9.386   7.670   7.734  0.00  0.00    +0.013 A 
ATOM     29  C   UNL     1       9.497   6.321   7.398  0.00  0.00    +0.017 A 
BRANCH  29  30
ATOM      7  O   UNL     1      11.356   5.566   8.639  0.00  0.00    -0.292 OA
ATOM     30  C   UNL     1      10.167   5.399   8.301  0.00  0.00    +0.160 C 
ATOM     32  C   UNL     1       9.421   4.194   8.862  0.00  0.00    +0.091 C 
ENDBRANCH  29  30
ENDBRANCH   9  21
ENDBRANCH   3  17
ENDBRANCH  13   3
TORSDOF 7
ENDMDL
MODEL 6
REMARK VINA RESULT:      -6.7     19.389     22.975
REMARK  Name = 11884147
REMARK  9 active torsions:
REMARK  status: ('A' for Active; 'I' for Inactive)
REMARK    1  A    between atoms: O_3  and  C_13
REMARK    2  A    between atoms: O_3  and  C_17
REMARK    3  A    between atoms: O_6  and  C_24
REMARK    4  A    between atoms: O_6  and  C_31
REMARK    5  A    between atoms: N_8  and  C_12
REMARK    6  A    between atoms: N_9  and  C_21
REMARK    7  A    between atoms: C_16  and  C_18
REMARK    8  A    between atoms: C_29  and  C_30
REMARK    9  A    between atoms: C_30  and  C_32
REMARK                            x       y       z     vdW  Elec       q    Type
REMARK                         _______ _______ _______ _____ _____    ______ ____
ROOT
ATOM      1  O   UNL     1      -3.830  -8.875  10.598  0.00  0.00    -0.368 OA
ATOM      2  O   UNL     1      -4.753 -11.629   9.616  0.00  0.00    -0.368 OA
ATOM     10  C   UNL     1      -5.496 -10.462  10.026  0.00  0.00    +0.173 C 
ATOM     11  C   UNL     1      -4.731  -9.835  11.174  0.00  0.00    +0.192 C 
ATOM     12  C   UNL     1      -5.449  -9.410   8.942  0.00  0.00    +0.130 C 
ATOM     13  C   UNL     1      -3.991 -11.016  11.756  0.00  0.00    +0.235 C 
ATOM     14  C   UNL     1      -4.106  -8.746   9.195  0.00  0.00    +0.185 C 
ATOM     15  C   UNL     1      -3.658 -11.824  10.523  0.00  0.00    +0.207 C 
ENDROOT
BRANCH  12   8
ATOM      4  O   UNL     1      -7.971  -9.488   7.572  0.00  0.00    -0.270 OA
ATOM      8  N   UNL     1      -6.534  -8.469   9.080  0.00  0.00    -0.304 N 
ATOM     16  C   UNL     1      -7.721  -8.591   8.372  0.00  0.00    +0.244 C 
ATOM     33  H   UNL     1      -6.359  -7.642   9.642  0.00  0.00    +0.149 HD
BRANCH  16  18
ATOM     18  C   UNL     1      -8.730  -7.525   8.606  0.00  0.00    +0.037 A 
ATOM     19  C   UNL     1      -8.467  -6.215   8.204  0.00  0.00    +0.016 A 
ATOM     20  C   UNL     1      -9.940  -7.834   9.227  0.00  0.00    +0.016 A 
ATOM     22  C   UNL     1      -9.414  -5.215   8.424  0.00  0.00    +0.046 A 
ATOM     23  C   UNL     1     -10.887  -6.834   9.447  0.00  0.00    +0.046 A 
ATOM     24  C   UNL     1     -10.624  -5.525   9.045  0.00  0.00    +0.120 A 
BRANCH  24   6
ATOM      6  O   UNL     1     -11.549  -4.548   9.257  0.00  0.00    -0.495 OA
ATOM     31  C   UNL     1     -12.883  -4.813   8.824  0.00  0.00    +0.277 C 
ENDBRANCH  24   6
ENDBRANCH  16  18
ENDBRANCH  12   8
BRANCH  13   3
ATOM      3  O   UNL     1      -2.838 -10.655  12.483  0.00  0.00    -0.442 OA
BRANCH   3  17
ATOM      5  O   UNL     1      -2.024 -10.293  14.588  0.00  0.00    -0.226 OA
ATOM      9  N   UNL     1      -4.248 -10.926  14.222  0.00  0.00    -0.251 N 
ATOM     17  C   UNL     1      -2.957 -10.597  13.856  0.00  0.00    +0.405 C 
ATOM     34  H   UNL     1      -4.887 -11.150  13.464  0.00  0.00    +0.158 HD
BRANCH   9  21
ATOM     21  C   UNL     1      -4.793 -10.988  15.525  0.00  0.00    +0.036 A 
ATOM     25  C   UNL     1      -5.789 -10.089  15.907  0.00  0.00    +0.024 A 
ATOM     26  C   UNL     1      -4.336 -11.949  16.427  0.00  0.00    +0.024 A 
ATOM     27  C   UNL     1      -6.326 -10.150  17.193  0.00  0.00    +0.013 A 
ATOM     28  C   UNL     1      -4.874 -12.009  17.713  0.00  0.00    +0.013 A 
ATOM     29  C   UNL     1      -5.869 -11.110  18.096  0.00  0.00    +0.017 A 
BRANCH  29  30
ATOM      7  O   UNL     1      -6.085 -10.369  20.325  0.00  0.00    -0.292 OA
ATOM     30  C   UNL     1      -6.430 -11.173  19.435  0.00  0.00    +0.160 C 
ATOM     32  C   UNL     1      -7.464 -12.237  19.787  0.00  0.00    +0.091 C 
ENDBRANCH  29  30
ENDBRANCH   9  21
ENDBRANCH   3  17
ENDBRANCH  13   3
TORSDOF 7
ENDMDL
MODEL 7
REMARK VINA RESULT:      -6.7     20.297     21.947
REMARK  Name = 11884147
REMARK  9 active torsions:
REMARK  status: ('A' for Active; 'I' for Inactive)
REMARK    1  A    between atoms: O_3  and  C_13
REMARK    2  A    between atoms: O_3  and  C_17
REMARK    3  A    between atoms: O_6  and  C_24
REMARK    4  A    between atoms: O_6  and  C_31
REMARK    5  A    between atoms: N_8  and  C_12
REMARK    6  A    between atoms: N_9  and  C_21
REMARK    7  A    between atoms: C_16  and  C_18
REMARK    8  A    between atoms: C_29  and  C_30
REMARK    9  A    between atoms: C_30  and  C_32
REMARK                            x       y       z     vdW  Elec       q    Type
REMARK                         _______ _______ _______ _____ _____    ______ ____
ROOT
ATOM      1  O   UNL     1      -4.336 -12.252  12.529  0.00  0.00    -0.368 OA
ATOM      2  O   UNL     1      -1.846 -10.646  13.319  0.00  0.00    -0.368 OA
ATOM     10  C   UNL     1      -3.184 -10.660  13.857  0.00  0.00    +0.173 C 
ATOM     11  C   UNL     1      -4.128 -10.838  12.685  0.00  0.00    +0.192 C 
ATOM     12  C   UNL     1      -3.397 -11.906  14.685  0.00  0.00    +0.130 C 
ATOM     13  C   UNL     1      -3.334 -10.261  11.537  0.00  0.00    +0.235 C 
ATOM     14  C   UNL     1      -3.723 -12.946  13.626  0.00  0.00    +0.185 C 
ATOM     15  C   UNL     1      -1.922 -10.673  11.886  0.00  0.00    +0.207 C 
ENDROOT
BRANCH  12   8
ATOM      4  O   UNL     1      -3.213 -11.067  17.425  0.00  0.00    -0.270 OA
ATOM      8  N   UNL     1      -4.491 -11.739  15.611  0.00  0.00    -0.304 N 
ATOM     16  C   UNL     1      -4.302 -11.327  16.922  0.00  0.00    +0.244 C 
ATOM     33  H   UNL     1      -5.409 -12.039  15.298  0.00  0.00    +0.149 HD
BRANCH  16  18
ATOM     18  C   UNL     1      -5.529 -11.228  17.756  0.00  0.00    +0.037 A 
ATOM     19  C   UNL     1      -6.502 -10.276  17.453  0.00  0.00    +0.016 A 
ATOM     20  C   UNL     1      -5.707 -12.087  18.840  0.00  0.00    +0.016 A 
ATOM     22  C   UNL     1      -7.653 -10.182  18.235  0.00  0.00    +0.046 A 
ATOM     23  C   UNL     1      -6.858 -11.994  19.622  0.00  0.00    +0.046 A 
ATOM     24  C   UNL     1      -7.831 -11.042  19.319  0.00  0.00    +0.120 A 
BRANCH  24   6
ATOM      6  O   UNL     1      -8.956 -10.952  20.082  0.00  0.00    -0.495 OA
ATOM     31  C   UNL     1     -10.184 -10.701  19.399  0.00  0.00    +0.277 C 
ENDBRANCH  24   6
ENDBRANCH  16  18
ENDBRANCH  12   8
BRANCH  13   3
ATOM      3  O   UNL     1      -3.734 -10.747  10.275  0.00  0.00    -0.442 OA
BRANCH   3  17
ATOM      5  O   UNL     1      -3.679  -8.739   9.183  0.00  0.00    -0.226 OA
ATOM      9  N   UNL     1      -5.355 -10.320   8.767  0.00  0.00    -0.251 N 
ATOM     17  C   UNL     1      -4.219  -9.823   9.374  0.00  0.00    +0.405 C 
ATOM     34  H   UNL     1      -5.651 -11.248   9.059  0.00  0.00    +0.158 HD
BRANCH   9  21
ATOM     21  C   UNL     1      -6.160  -9.699   7.785  0.00  0.00    +0.036 A 
ATOM     25  C   UNL     1      -6.014 -10.045   6.442  0.00  0.00    +0.024 A 
ATOM     26  C   UNL     1      -7.101  -8.739   8.160  0.00  0.00    +0.024 A 
ATOM     27  C   UNL     1      -6.808  -9.432   5.474  0.00  0.00    +0.013 A 
ATOM     28  C   UNL     1      -7.894  -8.125   7.191  0.00  0.00    +0.013 A 
ATOM     29  C   UNL     1      -7.749  -8.472   5.848  0.00  0.00    +0.017 A 
BRANCH  29  30
ATOM      7  O   UNL     1      -8.201  -7.740   3.651  0.00  0.00    -0.292 OA
ATOM     30  C   UNL     1      -8.576  -7.833   4.838  0.00  0.00    +0.160 C 
ATOM     32  C   UNL     1      -9.936  -7.253   5.211  0.00  0.00    +0.091 C 
ENDBRANCH  29  30
ENDBRANCH   9  21
ENDBRANCH   3  17
ENDBRANCH  13   3
TORSDOF 7
ENDMDL
MODEL 8
REMARK VINA RESULT:      -6.6     18.283     21.261
REMARK  Name = 11884147
REMARK  9 active torsions:
REMARK  status: ('A' for Active; 'I' for Inactive)
REMARK    1  A    between atoms: O_3  and  C_13
REMARK    2  A    between atoms: O_3  and  C_17
REMARK    3  A    between atoms: O_6  and  C_24
REMARK    4  A    between atoms: O_6  and  C_31
REMARK    5  A    between atoms: N_8  and  C_12
REMARK    6  A    between atoms: N_9  and  C_21
REMARK    7  A    between atoms: C_16  and  C_18
REMARK    8  A    between atoms: C_29  and  C_30
REMARK    9  A    between atoms: C_30  and  C_32
REMARK                            x       y       z     vdW  Elec       q    Type
REMARK                         _______ _______ _______ _____ _____    ______ ____
ROOT
ATOM      1  O   UNL     1      -8.282  -6.555   8.298  0.00  0.00    -0.368 OA
ATOM      2  O   UNL     1     -10.338  -6.775   6.033  0.00  0.00    -0.368 OA
ATOM     10  C   UNL     1     -10.441  -7.044   7.447  0.00  0.00    +0.173 C 
ATOM     11  C   UNL     1      -9.119  -7.646   7.877  0.00  0.00    +0.192 C 
ATOM     12  C   UNL     1     -10.516  -5.747   8.218  0.00  0.00    +0.130 C 
ATOM     13  C   UNL     1      -8.615  -8.275   6.600  0.00  0.00    +0.235 C 
ATOM     14  C   UNL     1      -9.054  -5.345   8.317  0.00  0.00    +0.185 C 
ATOM     15  C   UNL     1      -9.089  -7.293   5.552  0.00  0.00    +0.207 C 
ENDROOT
BRANCH  12   8
ATOM      4  O   UNL     1     -11.919  -3.797   9.792  0.00  0.00    -0.270 OA
ATOM      8  N   UNL     1     -11.095  -5.948   9.524  0.00  0.00    -0.304 N 
ATOM     16  C   UNL     1     -11.757  -4.940  10.210  0.00  0.00    +0.244 C 
ATOM     33  H   UNL     1     -10.908  -6.836   9.980  0.00  0.00    +0.149 HD
BRANCH  16  18
ATOM     18  C   UNL     1     -12.274  -5.300  11.556  0.00  0.00    +0.037 A 
ATOM     19  C   UNL     1     -12.799  -6.572  11.784  0.00  0.00    +0.016 A 
ATOM     20  C   UNL     1     -12.235  -4.366  12.591  0.00  0.00    +0.016 A 
ATOM     22  C   UNL     1     -13.284  -6.910  13.047  0.00  0.00    +0.046 A 
ATOM     23  C   UNL     1     -12.720  -4.704  13.855  0.00  0.00    +0.046 A 
ATOM     24  C   UNL     1     -13.243  -5.976  14.083  0.00  0.00    +0.120 A 
BRANCH  24   6
ATOM      6  O   UNL     1     -13.715  -6.307  15.316  0.00  0.00    -0.495 OA
ATOM     31  C   UNL     1     -13.089  -7.407  15.976  0.00  0.00    +0.277 C 
ENDBRANCH  24   6
ENDBRANCH  16  18
ENDBRANCH  12   8
BRANCH  13   3
ATOM      3  O   UNL     1      -7.216  -8.449   6.571  0.00  0.00    -0.442 OA
BRANCH   3  17
ATOM      5  O   UNL     1      -6.902 -10.528   7.470  0.00  0.00    -0.226 OA
ATOM      9  N   UNL     1      -5.883  -8.627   8.382  0.00  0.00    -0.251 N 
ATOM     17  C   UNL     1      -6.677  -9.324   7.491  0.00  0.00    +0.405 C 
ATOM     34  H   UNL     1      -5.818  -7.623   8.234  0.00  0.00    +0.158 HD
BRANCH   9  21
ATOM     21  C   UNL     1      -5.148  -9.138   9.476  0.00  0.00    +0.036 A 
ATOM     25  C   UNL     1      -3.753  -9.104   9.454  0.00  0.00    +0.024 A 
ATOM     26  C   UNL     1      -5.816  -9.675  10.575  0.00  0.00    +0.024 A 
ATOM     27  C   UNL     1      -3.028  -9.608  10.533  0.00  0.00    +0.013 A 
ATOM     28  C   UNL     1      -5.090 -10.181  11.654  0.00  0.00    +0.013 A 
ATOM     29  C   UNL     1      -3.696 -10.146  11.633  0.00  0.00    +0.017 A 
BRANCH  29  30
ATOM      7  O   UNL     1      -1.792 -11.140  12.609  0.00  0.00    -0.292 OA
ATOM     30  C   UNL     1      -2.939 -10.672  12.758  0.00  0.00    +0.160 C 
ATOM     32  C   UNL     1      -3.538 -10.663  14.159  0.00  0.00    +0.091 C 
ENDBRANCH  29  30
ENDBRANCH   9  21
ENDBRANCH   3  17
ENDBRANCH  13   3
TORSDOF 7
ENDMDL
MODEL 9
REMARK VINA RESULT:      -6.4     32.958     37.030
REMARK  Name = 11884147
REMARK  9 active torsions:
REMARK  status: ('A' for Active; 'I' for Inactive)
REMARK    1  A    between atoms: O_3  and  C_13
REMARK    2  A    between atoms: O_3  and  C_17
REMARK    3  A    between atoms: O_6  and  C_24
REMARK    4  A    between atoms: O_6  and  C_31
REMARK    5  A    between atoms: N_8  and  C_12
REMARK    6  A    between atoms: N_9  and  C_21
REMARK    7  A    between atoms: C_16  and  C_18
REMARK    8  A    between atoms: C_29  and  C_30
REMARK    9  A    between atoms: C_30  and  C_32
REMARK                            x       y       z     vdW  Elec       q    Type
REMARK                         _______ _______ _______ _____ _____    ______ ____
ROOT
ATOM      1  O   UNL     1      13.374   8.464   4.365  0.00  0.00    -0.368 OA
ATOM      2  O   UNL     1      12.604   8.197   7.322  0.00  0.00    -0.368 OA
ATOM     10  C   UNL     1      13.759   7.738   6.590  0.00  0.00    +0.173 C 
ATOM     11  C   UNL     1      13.271   7.312   5.220  0.00  0.00    +0.192 C 
ATOM     12  C   UNL     1      14.685   8.897   6.300  0.00  0.00    +0.130 C 
ATOM     13  C   UNL     1      11.832   6.942   5.487  0.00  0.00    +0.235 C 
ATOM     14  C   UNL     1      14.049   9.517   5.068  0.00  0.00    +0.185 C 
ATOM     15  C   UNL     1      11.429   7.957   6.533  0.00  0.00    +0.207 C 
ENDROOT
BRANCH  12   8
ATOM      4  O   UNL     1      17.084  10.473   6.368  0.00  0.00    -0.270 OA
ATOM      8  N   UNL     1      16.025   8.439   6.024  0.00  0.00    -0.304 N 
ATOM     16  C   UNL     1      17.127   9.280   6.083  0.00  0.00    +0.244 C 
ATOM     33  H   UNL     1      16.126   7.491   5.677  0.00  0.00    +0.149 HD
BRANCH  16  18
ATOM     18  C   UNL     1      18.436   8.661   5.746  0.00  0.00    +0.037 A 
ATOM     19  C   UNL     1      18.669   8.183   4.456  0.00  0.00    +0.016 A 
ATOM     20  C   UNL     1      19.431   8.560   6.718  0.00  0.00    +0.016 A 
ATOM     22  C   UNL     1      19.897   7.602   4.140  0.00  0.00    +0.046 A 
ATOM     23  C   UNL     1      20.659   7.979   6.401  0.00  0.00    +0.046 A 
ATOM     24  C   UNL     1      20.892   7.501   5.112  0.00  0.00    +0.120 A 
BRANCH  24   6
ATOM      6  O   UNL     1      22.092   6.936   4.802  0.00  0.00    -0.495 OA
ATOM     31  C   UNL     1      22.151   6.153   3.610  0.00  0.00    +0.277 C 
ENDBRANCH  24   6
ENDBRANCH  16  18
ENDBRANCH  12   8
BRANCH  13   3
ATOM      3  O   UNL     1      11.012   7.005   4.342  0.00  0.00    -0.442 OA
BRANCH   3  17
ATOM      5  O   UNL     1      10.706   4.765   4.002  0.00  0.00    -0.226 OA
ATOM      9  N   UNL     1      11.214   6.218   2.238  0.00  0.00    -0.251 N 
ATOM     17  C   UNL     1      10.955   5.876   3.551  0.00  0.00    +0.405 C 
ATOM     34  H   UNL     1      11.399   7.201   2.058  0.00  0.00    +0.158 HD
BRANCH   9  21
ATOM     21  C   UNL     1      11.253   5.368   1.109  0.00  0.00    +0.036 A 
ATOM     25  C   UNL     1      10.213   5.395   0.180  0.00  0.00    +0.024 A 
ATOM     26  C   UNL     1      12.331   4.502   0.925  0.00  0.00    +0.024 A 
ATOM     27  C   UNL     1      10.252   4.556  -0.933  0.00  0.00    +0.013 A 
ATOM     28  C   UNL     1      12.368   3.662  -0.187  0.00  0.00    +0.013 A 
ATOM     29  C   UNL     1      11.329   3.690  -1.118  0.00  0.00    +0.017 A 
BRANCH  29  30
ATOM      7  O   UNL     1      10.433   2.032  -2.536  0.00  0.00    -0.292 OA
ATOM     30  C   UNL     1      11.369   2.815  -2.278  0.00  0.00    +0.160 C 
ATOM     32  C   UNL     1      12.570   2.836  -3.217  0.00  0.00    +0.091 C 
ENDBRANCH  29  30
ENDBRANCH   9  21
ENDBRANCH   3  17
ENDBRANCH  13   3
TORSDOF 7
ENDMDL
MODEL 10
REMARK VINA RESULT:      -6.4     19.334     22.488
REMARK  Name = 11884147
REMARK  9 active torsions:
REMARK  status: ('A' for Active; 'I' for Inactive)
REMARK    1  A    between atoms: O_3  and  C_13
REMARK    2  A    between atoms: O_3  and  C_17
REMARK    3  A    between atoms: O_6  and  C_24
REMARK    4  A    between atoms: O_6  and  C_31
REMARK    5  A    between atoms: N_8  and  C_12
REMARK    6  A    between atoms: N_9  and  C_21
REMARK    7  A    between atoms: C_16  and  C_18
REMARK    8  A    between atoms: C_29  and  C_30
REMARK    9  A    between atoms: C_30  and  C_32
REMARK                            x       y       z     vdW  Elec       q    Type
REMARK                         _______ _______ _______ _____ _____    ______ ____
ROOT
ATOM      1  O   UNL     1      -6.883  -8.251   7.809  0.00  0.00    -0.368 OA
ATOM      2  O   UNL     1      -8.516 -10.788   7.259  0.00  0.00    -0.368 OA
ATOM     10  C   UNL     1      -8.677  -9.742   8.240  0.00  0.00    +0.173 C 
ATOM     11  C   UNL     1      -7.285  -9.328   8.673  0.00  0.00    +0.192 C 
ATOM     12  C   UNL     1      -9.237  -8.499   7.587  0.00  0.00    +0.130 C 
ATOM     13  C   UNL     1      -6.478 -10.579   8.417  0.00  0.00    +0.235 C 
ATOM     14  C   UNL     1      -7.995  -7.862   6.988  0.00  0.00    +0.185 C 
ATOM     15  C   UNL     1      -7.125 -11.126   7.164  0.00  0.00    +0.207 C 
ENDROOT
BRANCH  12   8
ATOM      4  O   UNL     1     -10.944  -6.256   7.042  0.00  0.00    -0.270 OA
ATOM      8  N   UNL     1      -9.856  -7.632   8.558  0.00  0.00    -0.304 N 
ATOM     16  C   UNL     1     -10.669  -6.567   8.197  0.00  0.00    +0.244 C 
ATOM     33  H   UNL     1      -9.588  -7.761   9.529  0.00  0.00    +0.149 HD
BRANCH  16  18
ATOM     18  C   UNL     1     -11.210  -5.752   9.317  0.00  0.00    +0.037 A 
ATOM     19  C   UNL     1     -11.811  -6.379  10.408  0.00  0.00    +0.016 A 
ATOM     20  C   UNL     1     -11.116  -4.361   9.276  0.00  0.00    +0.016 A 
ATOM     22  C   UNL     1     -12.318  -5.615  11.459  0.00  0.00    +0.046 A 
ATOM     23  C   UNL     1     -11.624  -3.597  10.326  0.00  0.00    +0.046 A 
ATOM     24  C   UNL     1     -12.224  -4.224  11.418  0.00  0.00    +0.120 A 
BRANCH  24   6
ATOM      6  O   UNL     1     -12.718  -3.478  12.445  0.00  0.00    -0.495 OA
ATOM     31  C   UNL     1     -14.137  -3.371  12.544  0.00  0.00    +0.277 C 
ENDBRANCH  24   6
ENDBRANCH  16  18
ENDBRANCH  12   8
BRANCH  13   3
ATOM      3  O   UNL     1      -5.101 -10.335   8.241  0.00  0.00    -0.442 OA
BRANCH   3  17
ATOM      5  O   UNL     1      -3.763  -8.856   9.359  0.00  0.00    -0.226 OA
ATOM      9  N   UNL     1      -4.534 -10.823  10.369  0.00  0.00    -0.251 N 
ATOM     17  C   UNL     1      -4.396  -9.905   9.346  0.00  0.00    +0.405 C 
ATOM     34  H   UNL     1      -5.106 -11.639  10.166  0.00  0.00    +0.158 HD
BRANCH   9  21
ATOM     21  C   UNL     1      -3.978 -10.769  11.667  0.00  0.00    +0.036 A 
ATOM     25  C   UNL     1      -2.596 -10.848  11.838  0.00  0.00    +0.024 A 
ATOM     26  C   UNL     1      -4.812 -10.636  12.778  0.00  0.00    +0.024 A 
ATOM     27  C   UNL     1      -2.048 -10.795  13.119  0.00  0.00    +0.013 A 
ATOM     28  C   UNL     1      -4.263 -10.585  14.059  0.00  0.00    +0.013 A 
ATOM     29  C   UNL     1      -2.881 -10.663  14.230  0.00  0.00    +0.017 A 
BRANCH  29  30
ATOM      7  O   UNL     1      -2.992 -10.859  16.578  0.00  0.00    -0.292 OA
ATOM     30  C   UNL     1      -2.308 -10.608  15.565  0.00  0.00    +0.160 C 
ATOM     32  C   UNL     1      -0.843 -10.237  15.759  0.00  0.00    +0.091 C 
ENDBRANCH  29  30
ENDBRANCH   9  21
ENDBRANCH   3  17
ENDBRANCH  13   3
TORSDOF 7
ENDMDL
