MODEL 1
REMARK VINA RESULT:      -7.8      0.000      0.000
REMARK  Name = 7142447
REMARK  2 active torsions:
REMARK  status: ('A' for Active; 'I' for Inactive)
REMARK    1  A    between atoms: C_17  and  C_20
REMARK    2  A    between atoms: C_21  and  C_23
REMARK                            x       y       z     vdW  Elec       q    Type
REMARK                         _______ _______ _______ _____ _____    ______ ____
ROOT
ATOM      2  O   UNL     1      16.274  10.357  20.330  0.00  0.00    -0.273 OA
ATOM      3  O   UNL     1      18.360   5.545  19.681  0.00  0.00    -0.270 OA
ATOM      4  O   UNL     1      12.305   9.531  20.501  0.00  0.00    -0.270 OA
ATOM      5  N   UNL     1      16.724   7.096  20.203  0.00  0.00    -0.283 N 
ATOM      6  N   UNL     1      14.134   8.331  19.743  0.00  0.00    -0.294 N 
ATOM      7  N   UNL     1      18.233   9.481  21.088  0.00  0.00    -0.283 N 
ATOM      9  C   UNL     1      16.204   8.083  21.137  0.00  0.00    +0.180 C 
ATOM     10  C   UNL     1      14.674   8.187  21.097  0.00  0.00    +0.140 C 
ATOM     11  C   UNL     1      15.808   6.590  19.180  0.00  0.00    +0.128 C 
ATOM     12  C   UNL     1      14.886   7.683  18.661  0.00  0.00    +0.127 C 
ATOM     13  C   UNL     1      16.891   9.391  20.784  0.00  0.00    +0.239 C 
ATOM     14  C   UNL     1      17.978   6.510  20.345  0.00  0.00    +0.249 C 
ATOM     15  C   UNL     1      18.936   7.090  21.325  0.00  0.00    +0.059 A 
ATOM     16  C   UNL     1      19.090   8.466  21.562  0.00  0.00    +0.046 A 
ATOM     17  C   UNL     1      12.905   8.998  19.565  0.00  0.00    +0.248 C 
ATOM     18  C   UNL     1      19.849   6.186  21.898  0.00  0.00    +0.024 A 
ATOM     19  C   UNL     1      20.195   8.908  22.310  0.00  0.00    +0.024 A 
ATOM     21  C   UNL     1      20.913   6.638  22.677  0.00  0.00    -0.010 A 
ATOM     22  C   UNL     1      21.094   8.002  22.873  0.00  0.00    +0.011 A 
ATOM     31  H   UNL     1      18.627  10.419  21.056  0.00  0.00    +0.155 HD
ENDROOT
BRANCH  17  20
ATOM      8  N   UNL     1      10.657   8.279  16.669  0.00  0.00    -0.263 NA
ATOM     20  C   UNL     1      12.348   9.030  18.215  0.00  0.00    +0.055 A 
ATOM     24  C   UNL     1      12.937   9.798  17.223  0.00  0.00    +0.016 A 
ATOM     25  C   UNL     1      11.222   8.295  17.898  0.00  0.00    +0.123 A 
ATOM     27  C   UNL     1      12.385   9.808  15.947  0.00  0.00    +0.020 A 
ATOM     28  C   UNL     1      11.255   9.038  15.724  0.00  0.00    +0.111 A 
ENDBRANCH  17  20
BRANCH  21  23
ATOM      1  S   UNL     1      22.639   6.111  24.714  0.00  0.00    -0.097 S 
ATOM     23  C   UNL     1      21.837   5.696  23.258  0.00  0.00    +0.019 A 
ATOM     26  C   UNL     1      22.201   4.445  22.808  0.00  0.00    +0.016 A 
ATOM     29  C   UNL     1      23.149   3.821  23.669  0.00  0.00    +0.008 A 
ATOM     30  C   UNL     1      23.475   4.617  24.745  0.00  0.00    +0.046 A 
ENDBRANCH  21  23
TORSDOF 2
ENDMDL
MODEL 2
REMARK VINA RESULT:      -7.4     28.443     32.120
REMARK  Name = 7142447
REMARK  2 active torsions:
REMARK  status: ('A' for Active; 'I' for Inactive)
REMARK    1  A    between atoms: C_17  and  C_20
REMARK    2  A    between atoms: C_21  and  C_23
REMARK                            x       y       z     vdW  Elec       q    Type
REMARK                         _______ _______ _______ _____ _____    ______ ____
ROOT
ATOM      2  O   UNL     1      -9.888 -11.450  20.464  0.00  0.00    -0.273 OA
ATOM      3  O   UNL     1      -7.932  -8.563  16.492  0.00  0.00    -0.270 OA
ATOM      4  O   UNL     1     -13.519 -12.524  19.005  0.00  0.00    -0.270 OA
ATOM      5  N   UNL     1      -9.360 -10.065  17.521  0.00  0.00    -0.283 N 
ATOM      6  N   UNL     1     -12.005 -10.877  18.410  0.00  0.00    -0.294 N 
ATOM      7  N   UNL     1      -7.750 -11.219  19.718  0.00  0.00    -0.283 N 
ATOM      9  C   UNL     1      -9.575 -11.395  18.070  0.00  0.00    +0.180 C 
ATOM     10  C   UNL     1     -11.030 -11.863  17.937  0.00  0.00    +0.140 C 
ATOM     11  C   UNL     1     -10.546  -9.261  17.222  0.00  0.00    +0.128 C 
ATOM     12  C   UNL     1     -11.639  -9.463  18.262  0.00  0.00    +0.127 C 
ATOM     13  C   UNL     1      -9.110 -11.328  19.515  0.00  0.00    +0.239 C 
ATOM     14  C   UNL     1      -8.107  -9.604  17.128  0.00  0.00    +0.249 C 
ATOM     15  C   UNL     1      -6.901 -10.383  17.516  0.00  0.00    +0.059 A 
ATOM     16  C   UNL     1      -6.738 -11.026  18.755  0.00  0.00    +0.046 A 
ATOM     17  C   UNL     1     -13.251 -11.326  18.895  0.00  0.00    +0.248 C 
ATOM     18  C   UNL     1      -5.806 -10.298  16.636  0.00  0.00    +0.024 A 
ATOM     19  C   UNL     1      -5.465 -11.505  19.111  0.00  0.00    +0.024 A 
ATOM     21  C   UNL     1      -4.562 -10.822  16.984  0.00  0.00    -0.010 A 
ATOM     22  C   UNL     1      -4.388 -11.414  18.228  0.00  0.00    +0.011 A 
ATOM     31  H   UNL     1      -7.433 -11.398  20.668  0.00  0.00    +0.155 HD
ENDROOT
BRANCH  17  20
ATOM      8  N   UNL     1     -16.107  -8.935  18.612  0.00  0.00    -0.263 NA
ATOM     20  C   UNL     1     -14.235 -10.310  19.258  0.00  0.00    +0.055 A 
ATOM     24  C   UNL     1     -14.252  -9.764  20.532  0.00  0.00    +0.016 A 
ATOM     25  C   UNL     1     -15.170  -9.872  18.341  0.00  0.00    +0.123 A 
ATOM     27  C   UNL     1     -15.201  -8.798  20.850  0.00  0.00    +0.020 A 
ATOM     28  C   UNL     1     -16.098  -8.422  19.862  0.00  0.00    +0.111 A 
ENDBRANCH  17  20
BRANCH  21  23
ATOM      1  S   UNL     1      -3.772 -10.672  14.385  0.00  0.00    -0.097 S 
ATOM     23  C   UNL     1      -3.454 -10.727  16.067  0.00  0.00    +0.019 A 
ATOM     26  C   UNL     1      -2.104 -10.672  16.339  0.00  0.00    +0.016 A 
ATOM     29  C   UNL     1      -1.322 -10.582  15.151  0.00  0.00    +0.008 A 
ATOM     30  C   UNL     1      -2.103 -10.574  14.016  0.00  0.00    +0.046 A 
ENDBRANCH  21  23
TORSDOF 2
ENDMDL
MODEL 3
REMARK VINA RESULT:      -6.8     29.102     33.412
REMARK  Name = 7142447
REMARK  2 active torsions:
REMARK  status: ('A' for Active; 'I' for Inactive)
REMARK    1  A    between atoms: C_17  and  C_20
REMARK    2  A    between atoms: C_21  and  C_23
REMARK                            x       y       z     vdW  Elec       q    Type
REMARK                         _______ _______ _______ _____ _____    ______ ____
ROOT
ATOM      2  O   UNL     1      -7.990 -13.452  19.065  0.00  0.00    -0.273 OA
ATOM      3  O   UNL     1     -10.998  -9.372  17.571  0.00  0.00    -0.270 OA
ATOM      4  O   UNL     1      -4.326 -11.731  19.340  0.00  0.00    -0.270 OA
ATOM      5  N   UNL     1      -9.121 -10.426  18.418  0.00  0.00    -0.283 N 
ATOM      6  N   UNL     1      -6.294 -11.092  18.303  0.00  0.00    -0.294 N 
ATOM      7  N   UNL     1     -10.153 -12.949  19.565  0.00  0.00    -0.283 N 
ATOM      9  C   UNL     1      -8.486 -11.134  19.520  0.00  0.00    +0.180 C 
ATOM     10  C   UNL     1      -6.973 -10.892  19.586  0.00  0.00    +0.140 C 
ATOM     11  C   UNL     1      -8.246  -9.868  17.385  0.00  0.00    +0.128 C 
ATOM     12  C   UNL     1      -7.066 -10.784  17.093  0.00  0.00    +0.127 C 
ATOM     13  C   UNL     1      -8.840 -12.599  19.330  0.00  0.00    +0.239 C 
ATOM     14  C   UNL     1     -10.479 -10.126  18.395  0.00  0.00    +0.249 C 
ATOM     15  C   UNL     1     -11.374 -10.770  19.394  0.00  0.00    +0.059 A 
ATOM     16  C   UNL     1     -11.248 -12.101  19.828  0.00  0.00    +0.046 A 
ATOM     17  C   UNL     1      -4.939 -11.480  18.301  0.00  0.00    +0.248 C 
ATOM     18  C   UNL     1     -12.509 -10.029  19.768  0.00  0.00    +0.024 A 
ATOM     19  C   UNL     1     -12.295 -12.677  20.569  0.00  0.00    +0.024 A 
ATOM     21  C   UNL     1     -13.517 -10.601  20.544  0.00  0.00    -0.010 A 
ATOM     22  C   UNL     1     -13.416 -11.930  20.933  0.00  0.00    +0.011 A 
ATOM     31  H   UNL     1     -10.330 -13.947  19.654  0.00  0.00    +0.155 HD
ENDROOT
BRANCH  17  20
ATOM      8  N   UNL     1      -3.885 -12.791  14.965  0.00  0.00    -0.263 NA
ATOM     20  C   UNL     1      -4.268 -11.566  17.007  0.00  0.00    +0.055 A 
ATOM     24  C   UNL     1      -3.407 -10.564  16.586  0.00  0.00    +0.016 A 
ATOM     25  C   UNL     1      -4.475 -12.649  16.174  0.00  0.00    +0.123 A 
ATOM     27  C   UNL     1      -2.782 -10.674  15.349  0.00  0.00    +0.020 A 
ATOM     28  C   UNL     1      -3.052 -11.797  14.584  0.00  0.00    +0.111 A 
ENDBRANCH  17  20
BRANCH  21  23
ATOM      1  S   UNL     1     -16.075 -10.635  21.471  0.00  0.00    -0.097 S 
ATOM     23  C   UNL     1     -14.671  -9.823  20.920  0.00  0.00    +0.019 A 
ATOM     26  C   UNL     1     -14.839  -8.455  20.907  0.00  0.00    +0.016 A 
ATOM     29  C   UNL     1     -16.136  -8.070  21.355  0.00  0.00    +0.008 A 
ATOM     30  C   UNL     1     -16.910  -9.158  21.693  0.00  0.00    +0.046 A 
ENDBRANCH  21  23
TORSDOF 2
ENDMDL
MODEL 4
REMARK VINA RESULT:      -6.7      3.725      9.448
REMARK  Name = 7142447
REMARK  2 active torsions:
REMARK  status: ('A' for Active; 'I' for Inactive)
REMARK    1  A    between atoms: C_17  and  C_20
REMARK    2  A    between atoms: C_21  and  C_23
REMARK                            x       y       z     vdW  Elec       q    Type
REMARK                         _______ _______ _______ _____ _____    ______ ____
ROOT
ATOM      2  O   UNL     1      19.877   5.518  20.157  0.00  0.00    -0.273 OA
ATOM      3  O   UNL     1      17.692  10.124  21.554  0.00  0.00    -0.270 OA
ATOM      4  O   UNL     1      22.852   5.143  22.891  0.00  0.00    -0.270 OA
ATOM      5  N   UNL     1      19.003   8.234  21.806  0.00  0.00    -0.283 N 
ATOM      6  N   UNL     1      21.579   6.942  22.183  0.00  0.00    -0.294 N 
ATOM      7  N   UNL     1      17.709   6.211  20.078  0.00  0.00    -0.283 N 
ATOM      9  C   UNL     1      19.079   6.799  22.042  0.00  0.00    +0.180 C 
ATOM     10  C   UNL     1      20.360   6.388  22.778  0.00  0.00    +0.140 C 
ATOM     11  C   UNL     1      20.226   9.012  22.001  0.00  0.00    +0.128 C 
ATOM     12  C   UNL     1      21.458   8.252  21.532  0.00  0.00    +0.127 C 
ATOM     13  C   UNL     1      18.951   6.147  20.675  0.00  0.00    +0.239 C 
ATOM     14  C   UNL     1      17.803   8.896  21.568  0.00  0.00    +0.249 C 
ATOM     15  C   UNL     1      16.583   8.095  21.282  0.00  0.00    +0.059 A 
ATOM     16  C   UNL     1      16.570   6.921  20.509  0.00  0.00    +0.046 A 
ATOM     17  C   UNL     1      22.793   6.242  22.337  0.00  0.00    +0.248 C 
ATOM     18  C   UNL     1      15.362   8.675  21.673  0.00  0.00    +0.024 A 
ATOM     19  C   UNL     1      15.335   6.397  20.089  0.00  0.00    +0.024 A 
ATOM     21  C   UNL     1      14.145   8.114  21.288  0.00  0.00    -0.010 A 
ATOM     22  C   UNL     1      14.131   6.981  20.484  0.00  0.00    +0.011 A 
ATOM     31  H   UNL     1      17.574   5.590  19.283  0.00  0.00    +0.155 HD
ENDROOT
BRANCH  17  20
ATOM      8  N   UNL     1      25.568   7.156  20.009  0.00  0.00    -0.263 NA
ATOM     20  C   UNL     1      24.003   6.877  21.822  0.00  0.00    +0.055 A 
ATOM     24  C   UNL     1      24.724   7.767  22.603  0.00  0.00    +0.016 A 
ATOM     25  C   UNL     1      24.456   6.604  20.545  0.00  0.00    +0.123 A 
ATOM     27  C   UNL     1      25.873   8.356  22.086  0.00  0.00    +0.020 A 
ATOM     28  C   UNL     1      26.248   8.020  20.795  0.00  0.00    +0.111 A 
ENDBRANCH  17  20
BRANCH  21  23
ATOM      1  S   UNL     1      11.511   7.738  21.858  0.00  0.00    -0.097 S 
ATOM     23  C   UNL     1      12.905   8.721  21.702  0.00  0.00    +0.019 A 
ATOM     26  C   UNL     1      12.643  10.039  22.009  0.00  0.00    +0.016 A 
ATOM     29  C   UNL     1      11.281  10.243  22.377  0.00  0.00    +0.008 A 
ATOM     30  C   UNL     1      10.554   9.074  22.337  0.00  0.00    +0.046 A 
ENDBRANCH  21  23
TORSDOF 2
ENDMDL
MODEL 5
REMARK VINA RESULT:      -6.6     27.898     32.118
REMARK  Name = 7142447
REMARK  2 active torsions:
REMARK  status: ('A' for Active; 'I' for Inactive)
REMARK    1  A    between atoms: C_17  and  C_20
REMARK    2  A    between atoms: C_21  and  C_23
REMARK                            x       y       z     vdW  Elec       q    Type
REMARK                         _______ _______ _______ _____ _____    ______ ____
ROOT
ATOM      2  O   UNL     1      -3.598 -12.345   9.882  0.00  0.00    -0.273 OA
ATOM      3  O   UNL     1      -6.243  -7.808   9.287  0.00  0.00    -0.270 OA
ATOM      4  O   UNL     1      -4.826 -13.552  13.556  0.00  0.00    -0.270 OA
ATOM      5  N   UNL     1      -5.738  -9.863  10.223  0.00  0.00    -0.283 N 
ATOM      6  N   UNL     1      -4.893 -11.513  12.462  0.00  0.00    -0.294 N 
ATOM      7  N   UNL     1      -4.482 -11.383   8.018  0.00  0.00    -0.283 N 
ATOM      9  C   UNL     1      -5.768 -11.314  10.120  0.00  0.00    +0.180 C 
ATOM     10  C   UNL     1      -5.871 -12.003  11.486  0.00  0.00    +0.140 C 
ATOM     11  C   UNL     1      -5.499  -9.289  11.547  0.00  0.00    +0.128 C 
ATOM     12  C   UNL     1      -4.491 -10.106  12.342  0.00  0.00    +0.127 C 
ATOM     13  C   UNL     1      -4.511 -11.703   9.359  0.00  0.00    +0.239 C 
ATOM     14  C   UNL     1      -6.081  -9.024   9.167  0.00  0.00    +0.249 C 
ATOM     15  C   UNL     1      -6.233  -9.606   7.806  0.00  0.00    +0.059 A 
ATOM     16  C   UNL     1      -5.412 -10.619   7.283  0.00  0.00    +0.046 A 
ATOM     17  C   UNL     1      -4.464 -12.375  13.491  0.00  0.00    +0.248 C 
ATOM     18  C   UNL     1      -7.146  -8.953   6.959  0.00  0.00    +0.024 A 
ATOM     19  C   UNL     1      -5.478 -10.906   5.908  0.00  0.00    +0.024 A 
ATOM     21  C   UNL     1      -7.233  -9.282   5.607  0.00  0.00    -0.010 A 
ATOM     22  C   UNL     1      -6.389 -10.250   5.078  0.00  0.00    +0.011 A 
ATOM     31  H   UNL     1      -3.750 -11.837   7.476  0.00  0.00    +0.155 HD
ENDROOT
BRANCH  17  20
ATOM      8  N   UNL     1      -1.323 -11.308  15.208  0.00  0.00    -0.263 NA
ATOM     20  C   UNL     1      -3.572 -11.819  14.504  0.00  0.00    +0.055 A 
ATOM     24  C   UNL     1      -4.078 -11.291  15.682  0.00  0.00    +0.016 A 
ATOM     25  C   UNL     1      -2.204 -11.806  14.311  0.00  0.00    +0.123 A 
ATOM     27  C   UNL     1      -3.204 -10.768  16.629  0.00  0.00    +0.020 A 
ATOM     28  C   UNL     1      -1.848 -10.800  16.346  0.00  0.00    +0.111 A 
ENDBRANCH  17  20
BRANCH  21  23
ATOM      1  S   UNL     1      -8.265  -9.040   3.101  0.00  0.00    -0.097 S 
ATOM     23  C   UNL     1      -8.177  -8.604   4.755  0.00  0.00    +0.019 A 
ATOM     26  C   UNL     1      -9.072  -7.605   5.073  0.00  0.00    +0.016 A 
ATOM     29  C   UNL     1      -9.839  -7.193   3.944  0.00  0.00    +0.008 A 
ATOM     30  C   UNL     1      -9.501  -7.892   2.807  0.00  0.00    +0.046 A 
ENDBRANCH  21  23
TORSDOF 2
ENDMDL
MODEL 6
REMARK VINA RESULT:      -6.6     22.938     24.274
REMARK  Name = 7142447
REMARK  2 active torsions:
REMARK  status: ('A' for Active; 'I' for Inactive)
REMARK    1  A    between atoms: C_17  and  C_20
REMARK    2  A    between atoms: C_21  and  C_23
REMARK                            x       y       z     vdW  Elec       q    Type
REMARK                         _______ _______ _______ _____ _____    ______ ____
ROOT
ATOM      2  O   UNL     1       7.095  -5.074  33.892  0.00  0.00    -0.273 OA
ATOM      3  O   UNL     1       5.541 -10.021  34.914  0.00  0.00    -0.270 OA
ATOM      4  O   UNL     1       9.326  -4.206  37.168  0.00  0.00    -0.270 OA
ATOM      5  N   UNL     1       6.811  -8.102  35.158  0.00  0.00    -0.283 N 
ATOM      6  N   UNL     1       7.747  -5.839  36.723  0.00  0.00    -0.294 N 
ATOM      7  N   UNL     1       6.736  -6.830  32.488  0.00  0.00    -0.283 N 
ATOM      9  C   UNL     1       7.862  -7.236  34.644  0.00  0.00    +0.180 C 
ATOM     10  C   UNL     1       8.624  -6.505  35.756  0.00  0.00    +0.140 C 
ATOM     11  C   UNL     1       6.426  -7.931  36.559  0.00  0.00    +0.128 C 
ATOM     12  C   UNL     1       6.444  -6.467  36.973  0.00  0.00    +0.127 C 
ATOM     13  C   UNL     1       7.178  -6.285  33.675  0.00  0.00    +0.239 C 
ATOM     14  C   UNL     1       6.289  -9.168  34.432  0.00  0.00    +0.249 C 
ATOM     15  C   UNL     1       6.615  -9.281  32.985  0.00  0.00    +0.059 A 
ATOM     16  C   UNL     1       6.712  -8.188  32.107  0.00  0.00    +0.046 A 
ATOM     17  C   UNL     1       8.224  -4.703  37.408  0.00  0.00    +0.248 C 
ATOM     18  C   UNL     1       6.643 -10.587  32.463  0.00  0.00    +0.024 A 
ATOM     19  C   UNL     1       6.765  -8.429  30.724  0.00  0.00    +0.024 A 
ATOM     21  C   UNL     1       6.745 -10.810  31.090  0.00  0.00    -0.010 A 
ATOM     22  C   UNL     1       6.793  -9.730  30.219  0.00  0.00    +0.011 A 
ATOM     31  H   UNL     1       6.487  -6.159  31.765  0.00  0.00    +0.155 HD
ENDROOT
BRANCH  17  20
ATOM      8  N   UNL     1       6.708  -4.045  40.758  0.00  0.00    -0.263 NA
ATOM     20  C   UNL     1       7.363  -4.131  38.439  0.00  0.00    +0.055 A 
ATOM     24  C   UNL     1       6.415  -3.172  38.119  0.00  0.00    +0.016 A 
ATOM     25  C   UNL     1       7.474  -4.534  39.757  0.00  0.00    +0.123 A 
ATOM     27  C   UNL     1       5.609  -2.645  39.122  0.00  0.00    +0.020 A 
ATOM     28  C   UNL     1       5.793  -3.111  40.414  0.00  0.00    +0.111 A 
ENDBRANCH  17  20
BRANCH  21  23
ATOM      1  S   UNL     1       8.285 -12.952  30.426  0.00  0.00    -0.097 S 
ATOM     23  C   UNL     1       6.776 -12.156  30.575  0.00  0.00    +0.019 A 
ATOM     26  C   UNL     1       5.731 -12.951  30.159  0.00  0.00    +0.016 A 
ATOM     29  C   UNL     1       6.174 -14.230  29.712  0.00  0.00    +0.008 A 
ATOM     30  C   UNL     1       7.542 -14.364  29.804  0.00  0.00    +0.046 A 
ENDBRANCH  21  23
TORSDOF 2
ENDMDL
MODEL 7
REMARK VINA RESULT:      -6.5     13.338     17.102
REMARK  Name = 7142447
REMARK  2 active torsions:
REMARK  status: ('A' for Active; 'I' for Inactive)
REMARK    1  A    between atoms: C_17  and  C_20
REMARK    2  A    between atoms: C_21  and  C_23
REMARK                            x       y       z     vdW  Elec       q    Type
REMARK                         _______ _______ _______ _____ _____    ______ ____
ROOT
ATOM      2  O   UNL     1       9.077   8.128   8.168  0.00  0.00    -0.273 OA
ATOM      3  O   UNL     1      13.455   7.745   5.232  0.00  0.00    -0.270 OA
ATOM      4  O   UNL     1       8.552  12.146   8.364  0.00  0.00    -0.270 OA
ATOM      5  N   UNL     1      11.596   8.776   6.145  0.00  0.00    -0.283 N 
ATOM      6  N   UNL     1      10.364  10.818   7.806  0.00  0.00    -0.294 N 
ATOM      7  N   UNL     1       9.699   6.560   6.638  0.00  0.00    -0.283 N 
ATOM      9  C   UNL     1      10.150   8.937   6.162  0.00  0.00    +0.180 C 
ATOM     10  C   UNL     1       9.715  10.348   6.580  0.00  0.00    +0.140 C 
ATOM     11  C   UNL     1      12.395   9.814   6.797  0.00  0.00    +0.128 C 
ATOM     12  C   UNL     1      11.724  10.328   8.063  0.00  0.00    +0.127 C 
ATOM     13  C   UNL     1       9.623   7.859   7.095  0.00  0.00    +0.239 C 
ATOM     14  C   UNL     1      12.236   7.784   5.410  0.00  0.00    +0.249 C 
ATOM     15  C   UNL     1      11.423   6.682   4.827  0.00  0.00    +0.059 A 
ATOM     16  C   UNL     1      10.327   6.082   5.470  0.00  0.00    +0.046 A 
ATOM     17  C   UNL     1       9.696  11.761   8.614  0.00  0.00    +0.248 C 
ATOM     18  C   UNL     1      11.922   6.113   3.641  0.00  0.00    +0.024 A 
ATOM     19  C   UNL     1       9.801   4.888   4.946  0.00  0.00    +0.024 A 
ATOM     21  C   UNL     1      11.358   4.955   3.108  0.00  0.00    -0.010 A 
ATOM     22  C   UNL     1      10.305   4.334   3.768  0.00  0.00    +0.011 A 
ATOM     31  H   UNL     1       9.151   5.880   7.161  0.00  0.00    +0.155 HD
ENDROOT
BRANCH  17  20
ATOM      8  N   UNL     1      12.029  13.844  10.657  0.00  0.00    -0.263 NA
ATOM     20  C   UNL     1      10.417  12.285   9.770  0.00  0.00    +0.055 A 
ATOM     24  C   UNL     1      10.204  11.761  11.036  0.00  0.00    +0.016 A 
ATOM     25  C   UNL     1      11.328  13.314   9.629  0.00  0.00    +0.123 A 
ATOM     27  C   UNL     1      10.906  12.280  12.119  0.00  0.00    +0.020 A 
ATOM     28  C   UNL     1      11.799  13.312  11.877  0.00  0.00    +0.111 A 
ENDBRANCH  17  20
BRANCH  21  23
ATOM      1  S   UNL     1      11.105   4.753   0.407  0.00  0.00    -0.097 S 
ATOM     23  C   UNL     1      11.881   4.389   1.890  0.00  0.00    +0.019 A 
ATOM     26  C   UNL     1      12.965   3.556   1.714  0.00  0.00    +0.016 A 
ATOM     29  C   UNL     1      13.160   3.212   0.345  0.00  0.00    +0.008 A 
ATOM     30  C   UNL     1      12.218   3.795  -0.474  0.00  0.00    +0.046 A 
ENDBRANCH  21  23
TORSDOF 2
ENDMDL
MODEL 8
REMARK VINA RESULT:      -6.5     24.505     26.497
REMARK  Name = 7142447
REMARK  2 active torsions:
REMARK  status: ('A' for Active; 'I' for Inactive)
REMARK    1  A    between atoms: C_17  and  C_20
REMARK    2  A    between atoms: C_21  and  C_23
REMARK                            x       y       z     vdW  Elec       q    Type
REMARK                         _______ _______ _______ _____ _____    ______ ____
ROOT
ATOM      2  O   UNL     1      -0.810  10.010  35.500  0.00  0.00    -0.273 OA
ATOM      3  O   UNL     1      -4.873   8.558  38.553  0.00  0.00    -0.270 OA
ATOM      4  O   UNL     1      -1.199  14.048  35.457  0.00  0.00    -0.270 OA
ATOM      5  N   UNL     1      -3.327  10.009  37.626  0.00  0.00    -0.283 N 
ATOM      6  N   UNL     1      -2.647  12.330  36.015  0.00  0.00    -0.294 N 
ATOM      7  N   UNL     1      -1.007   8.292  36.981  0.00  0.00    -0.283 N 
ATOM      9  C   UNL     1      -1.955  10.490  37.571  0.00  0.00    +0.180 C 
ATOM     10  C   UNL     1      -1.862  11.975  37.200  0.00  0.00    +0.140 C 
ATOM     11  C   UNL     1      -4.362  10.864  37.043  0.00  0.00    +0.128 C 
ATOM     12  C   UNL     1      -3.873  11.558  35.781  0.00  0.00    +0.127 C 
ATOM     13  C   UNL     1      -1.239   9.590  36.577  0.00  0.00    +0.239 C 
ATOM     14  C   UNL     1      -3.702   8.874  38.338  0.00  0.00    +0.249 C 
ATOM     15  C   UNL     1      -2.642   7.963  38.849  0.00  0.00    +0.059 A 
ATOM     16  C   UNL     1      -1.466   7.646  38.148  0.00  0.00    +0.046 A 
ATOM     17  C   UNL     1      -2.238  13.425  35.227  0.00  0.00    +0.248 C 
ATOM     18  C   UNL     1      -2.954   7.257  40.025  0.00  0.00    +0.024 A 
ATOM     19  C   UNL     1      -0.667   6.583  38.604  0.00  0.00    +0.024 A 
ATOM     21  C   UNL     1      -2.126   6.237  40.490  0.00  0.00    -0.010 A 
ATOM     22  C   UNL     1      -0.988   5.890  39.773  0.00  0.00    +0.011 A 
ATOM     31  H   UNL     1      -0.343   7.770  36.414  0.00  0.00    +0.155 HD
ENDROOT
BRANCH  17  20
ATOM      8  N   UNL     1      -5.005  15.072  33.333  0.00  0.00    -0.263 NA
ATOM     20  C   UNL     1      -3.103  13.814  34.117  0.00  0.00    +0.055 A 
ATOM     24  C   UNL     1      -2.876  13.329  32.838  0.00  0.00    +0.016 A 
ATOM     25  C   UNL     1      -4.166  14.674  34.316  0.00  0.00    +0.123 A 
ATOM     27  C   UNL     1      -3.717  13.716  31.800  0.00  0.00    +0.020 A 
ATOM     28  C   UNL     1      -4.758  14.581  32.098  0.00  0.00    +0.111 A 
ENDBRANCH  17  20
BRANCH  21  23
ATOM      1  S   UNL     1      -1.204   5.077  42.773  0.00  0.00    -0.097 S 
ATOM     23  C   UNL     1      -2.461   5.527  41.700  0.00  0.00    +0.019 A 
ATOM     26  C   UNL     1      -3.698   5.129  42.159  0.00  0.00    +0.016 A 
ATOM     29  C   UNL     1      -3.612   4.446  43.407  0.00  0.00    +0.008 A 
ATOM     30  C   UNL     1      -2.313   4.348  43.855  0.00  0.00    +0.046 A 
ENDBRANCH  21  23
TORSDOF 2
ENDMDL
MODEL 9
REMARK VINA RESULT:      -6.4     25.007     27.526
REMARK  Name = 7142447
REMARK  2 active torsions:
REMARK  status: ('A' for Active; 'I' for Inactive)
REMARK    1  A    between atoms: C_17  and  C_20
REMARK    2  A    between atoms: C_21  and  C_23
REMARK                            x       y       z     vdW  Elec       q    Type
REMARK                         _______ _______ _______ _____ _____    ______ ____
ROOT
ATOM      2  O   UNL     1      -0.478   9.957  38.274  0.00  0.00    -0.273 OA
ATOM      3  O   UNL     1      -5.519  10.609  36.827  0.00  0.00    -0.270 OA
ATOM      4  O   UNL     1      -0.310   5.957  38.934  0.00  0.00    -0.270 OA
ATOM      5  N   UNL     1      -3.572   9.439  37.267  0.00  0.00    -0.283 N 
ATOM      6  N   UNL     1      -2.067   7.455  38.765  0.00  0.00    -0.294 N 
ATOM      7  N   UNL     1      -1.413  11.403  36.785  0.00  0.00    -0.283 N 
ATOM      9  C   UNL     1      -2.224   9.076  36.858  0.00  0.00    +0.180 C 
ATOM     10  C   UNL     1      -1.815   7.678  37.339  0.00  0.00    +0.140 C 
ATOM     11  C   UNL     1      -4.209   8.612  38.293  0.00  0.00    +0.128 C 
ATOM     12  C   UNL     1      -3.212   8.161  39.351  0.00  0.00    +0.127 C 
ATOM     13  C   UNL     1      -1.318  10.171  37.396  0.00  0.00    +0.239 C 
ATOM     14  C   UNL     1      -4.320  10.418  36.620  0.00  0.00    +0.249 C 
ATOM     15  C   UNL     1      -3.641  11.314  35.645  0.00  0.00    +0.059 A 
ATOM     16  C   UNL     1      -2.341  11.823  35.809  0.00  0.00    +0.046 A 
ATOM     17  C   UNL     1      -1.265   6.530  39.464  0.00  0.00    +0.248 C 
ATOM     18  C   UNL     1      -4.444  11.802  34.599  0.00  0.00    +0.024 A 
ATOM     19  C   UNL     1      -1.904  12.858  34.965  0.00  0.00    +0.024 A 
ATOM     21  C   UNL     1      -3.977  12.796  33.739  0.00  0.00    -0.010 A 
ATOM     22  C   UNL     1      -2.711  13.334  33.930  0.00  0.00    +0.011 A 
ATOM     31  H   UNL     1      -0.661  12.055  36.995  0.00  0.00    +0.155 HD
ENDROOT
BRANCH  17  20
ATOM      8  N   UNL     1      -1.256   6.720  43.195  0.00  0.00    -0.263 NA
ATOM     20  C   UNL     1      -1.612   6.256  40.855  0.00  0.00    +0.055 A 
ATOM     24  C   UNL     1      -2.583   5.318  41.172  0.00  0.00    +0.016 A 
ATOM     25  C   UNL     1      -0.982   6.926  41.886  0.00  0.00    +0.123 A 
ATOM     27  C   UNL     1      -2.893   5.078  42.507  0.00  0.00    +0.020 A 
ATOM     28  C   UNL     1      -2.207   5.799  43.471  0.00  0.00    +0.111 A 
ENDBRANCH  17  20
BRANCH  21  23
ATOM      1  S   UNL     1      -6.507  13.369  32.917  0.00  0.00    -0.097 S 
ATOM     23  C   UNL     1      -4.814  13.281  32.671  0.00  0.00    +0.019 A 
ATOM     26  C   UNL     1      -4.454  13.709  31.411  0.00  0.00    +0.016 A 
ATOM     29  C   UNL     1      -5.582  14.115  30.640  0.00  0.00    +0.008 A 
ATOM     30  C   UNL     1      -6.762  13.980  31.339  0.00  0.00    +0.046 A 
ENDBRANCH  21  23
TORSDOF 2
ENDMDL
MODEL 10
REMARK VINA RESULT:      -6.2     28.660     32.328
REMARK  Name = 7142447
REMARK  2 active torsions:
REMARK  status: ('A' for Active; 'I' for Inactive)
REMARK    1  A    between atoms: C_17  and  C_20
REMARK    2  A    between atoms: C_21  and  C_23
REMARK                            x       y       z     vdW  Elec       q    Type
REMARK                         _______ _______ _______ _____ _____    ______ ____
ROOT
ATOM      2  O   UNL     1      -7.700 -12.099  20.064  0.00  0.00    -0.273 OA
ATOM      3  O   UNL     1      -8.191 -10.369  15.094  0.00  0.00    -0.270 OA
ATOM      4  O   UNL     1     -10.567 -14.965  20.236  0.00  0.00    -0.270 OA
ATOM      5  N   UNL     1      -8.487 -11.813  16.877  0.00  0.00    -0.283 N 
ATOM      6  N   UNL     1     -10.183 -13.205  18.784  0.00  0.00    -0.294 N 
ATOM      7  N   UNL     1      -6.129 -11.343  18.600  0.00  0.00    -0.283 N 
ATOM      9  C   UNL     1      -7.923 -12.815  17.769  0.00  0.00    +0.180 C 
ATOM     10  C   UNL     1      -8.967 -13.828  18.257  0.00  0.00    +0.140 C 
ATOM     11  C   UNL     1      -9.946 -11.711  16.818  0.00  0.00    +0.128 C 
ATOM     12  C   UNL     1     -10.581 -11.925  18.184  0.00  0.00    +0.127 C 
ATOM     13  C   UNL     1      -7.277 -12.042  18.907  0.00  0.00    +0.239 C 
ATOM     14  C   UNL     1      -7.716 -11.080  15.981  0.00  0.00    +0.249 C 
ATOM     15  C   UNL     1      -6.234 -11.120  16.109  0.00  0.00    +0.059 A 
ATOM     16  C   UNL     1      -5.544 -11.139  17.333  0.00  0.00    +0.046 A 
ATOM     17  C   UNL     1     -10.937 -13.891  19.757  0.00  0.00    +0.248 C 
ATOM     18  C   UNL     1      -5.511 -10.944  14.914  0.00  0.00    +0.024 A 
ATOM     19  C   UNL     1      -4.157 -10.913  17.336  0.00  0.00    +0.024 A 
ATOM     21  C   UNL     1      -4.128 -10.770  14.932  0.00  0.00    -0.010 A 
ATOM     22  C   UNL     1      -3.452 -10.741  16.145  0.00  0.00    +0.011 A 
ATOM     31  H   UNL     1      -5.588 -11.018  19.399  0.00  0.00    +0.155 HD
ENDROOT
BRANCH  17  20
ATOM      8  N   UNL     1     -13.380 -11.865  21.727  0.00  0.00    -0.263 NA
ATOM     20  C   UNL     1     -12.197 -13.287  20.180  0.00  0.00    +0.055 A 
ATOM     24  C   UNL     1     -13.370 -13.536  19.486  0.00  0.00    +0.016 A 
ATOM     25  C   UNL     1     -12.247 -12.455  21.282  0.00  0.00    +0.123 A 
ATOM     27  C   UNL     1     -14.556 -12.947  19.912  0.00  0.00    +0.020 A 
ATOM     28  C   UNL     1     -14.507 -12.127  21.028  0.00  0.00    +0.111 A 
ENDBRANCH  17  20
BRANCH  21  23
ATOM      1  S   UNL     1      -4.271 -10.605  12.220  0.00  0.00    -0.097 S 
ATOM     23  C   UNL     1      -3.405 -10.595  13.697  0.00  0.00    +0.019 A 
ATOM     26  C   UNL     1      -2.052 -10.412  13.501  0.00  0.00    +0.016 A 
ATOM     29  C   UNL     1      -1.725 -10.278  12.120  0.00  0.00    +0.008 A 
ATOM     30  C   UNL     1      -2.838 -10.364  11.313  0.00  0.00    +0.046 A 
ENDBRANCH  21  23
TORSDOF 2
ENDMDL
