REMARK  Name = 75367741
REMARK  9 active torsions:
REMARK  status: ('A' for Active; 'I' for Inactive)
REMARK    1  A    between atoms: O_2  and  C_9
REMARK    2  A    between atoms: O_2  and  C_17
REMARK    3  A    between atoms: O_4  and  C_22
REMARK    4  A    between atoms: O_4  and  C_23
REMARK    5  A    between atoms: C_6  and  C_7
REMARK    6  A    between atoms: C_6  and  C_13
REMARK    7  A    between atoms: C_6  and  C_14
REMARK    8  A    between atoms: C_6  and  C_15
REMARK    9  A    between atoms: C_7  and  C_10
REMARK                            x       y       z     vdW  Elec       q    Type
REMARK                         _______ _______ _______ _____ _____    ______ ____
ROOT
ATOM      1  O   UNL     1      -0.123  -2.373   1.245  0.00  0.00    -0.375 OA
ATOM      3  O   UNL     1      -4.410  -1.368  -0.925  0.00  0.00    -0.276 OA
ATOM      5  N   UNL     1      -2.147  -0.878  -0.655  0.00  0.00    -0.296 N 
ATOM      8  C   UNL     1      -1.087   0.133  -0.573  0.00  0.00    +0.154 C 
ATOM      9  C   UNL     1       0.266  -0.317  -0.015  0.00  0.00    +0.216 C 
ATOM     10  C   UNL     1      -3.496  -0.544  -0.839  0.00  0.00    +0.216 C 
ATOM     11  C   UNL     1      -1.777  -2.292  -0.554  0.00  0.00    +0.136 C 
ATOM     12  C   UNL     1       0.158  -0.982   1.354  0.00  0.00    +0.206 C 
ATOM     16  C   UNL     1      -1.465  -2.682   0.884  0.00  0.00    +0.179 C 
ENDROOT
BRANCH   9   2
ATOM      2  O   UNL     1       1.086   0.844   0.127  0.00  0.00    -0.485 OA
BRANCH   2  17
ATOM     17  C   UNL     1       2.432   0.664  -0.035  0.00  0.00    +0.121 A 
ATOM     18  C   UNL     1       3.307   0.966   1.008  0.00  0.00    +0.049 A 
ATOM     19  C   UNL     1       2.930   0.180  -1.245  0.00  0.00    +0.049 A 
ATOM     20  C   UNL     1       4.680   0.783   0.842  0.00  0.00    +0.049 A 
ATOM     21  C   UNL     1       4.303  -0.003  -1.411  0.00  0.00    +0.049 A 
ATOM     22  C   UNL     1       5.178   0.298  -0.367  0.00  0.00    +0.120 A 
BRANCH  22   4
ATOM      4  O   UNL     1       6.517   0.120  -0.529  0.00  0.00    -0.495 OA
ATOM     23  C   UNL     1       7.354   0.448   0.579  0.00  0.00    +0.277 C 
ENDBRANCH  22   4
ENDBRANCH   2  17
ENDBRANCH   9   2
BRANCH  10   7
ATOM      7  C   UNL     1      -3.818   0.928  -0.927  0.00  0.00    +0.102 C 
BRANCH   7   6
ATOM      6  C   UNL     1      -4.747   1.403   0.204  0.00  0.00    -0.029 C 
ATOM     13  C   UNL     1      -5.015   2.915   0.107  0.00  0.00    +0.011 C 
ATOM     14  C   UNL     1      -6.085   0.644   0.181  0.00  0.00    +0.011 C 
ATOM     15  C   UNL     1      -4.043   1.115   1.543  0.00  0.00    +0.011 C 
ENDBRANCH   7   6
ENDBRANCH  10   7
TORSDOF 5
