MODEL 1
REMARK VINA RESULT:      -6.4      0.000      0.000
REMARK  Name = 71693927
REMARK  7 active torsions:
REMARK  status: ('A' for Active; 'I' for Inactive)
REMARK    1  A    between atoms: O_4  and  C_10
REMARK    2  A    between atoms: O_5  and  C_12
REMARK    3  A    between atoms: N_7  and  C_9
REMARK    4  A    between atoms: C_8  and  C_13
REMARK    5  A    between atoms: C_14  and  C_18
REMARK    6  A    between atoms: C_16  and  C_21
REMARK    7  A    between atoms: C_26  and  C_27
REMARK                            x       y       z     vdW  Elec       q    Type
REMARK                         _______ _______ _______ _____ _____    ______ ____
ROOT
ATOM      8  C   UNL     1      12.968   4.594   0.533  0.00  0.00    +0.045 C 
ATOM      9  C   UNL     1      13.525   5.594   1.570  0.00  0.00    +0.112 C 
ATOM     10  C   UNL     1      15.006   5.227   1.662  0.00  0.00    +0.164 C 
ATOM     11  C   UNL     1      14.186   4.146  -0.317  0.00  0.00    +0.044 C 
ATOM     12  C   UNL     1      15.380   4.939   0.213  0.00  0.00    +0.145 C 
ENDROOT
BRANCH   8  13
ATOM     13  C   UNL     1      11.818   5.156  -0.274  0.00  0.00    -0.039 A 
ATOM     14  C   UNL     1      10.495   4.874   0.067  0.00  0.00    -0.047 A 
ATOM     15  C   UNL     1      12.095   5.970  -1.374  0.00  0.00    +0.004 A 
ATOM     17  C   UNL     1       9.451   5.403  -0.690  0.00  0.00    +0.003 A 
ATOM     18  C   UNL     1      10.173   4.006   1.239  0.00  0.00    +0.044 C 
ATOM     19  C   UNL     1      11.051   6.499  -2.131  0.00  0.00    +0.000 A 
ATOM     20  C   UNL     1       9.728   6.216  -1.788  0.00  0.00    +0.000 A 
ENDBRANCH   8  13
BRANCH   9   7
ATOM      6  O   UNL     1      11.539   7.370   2.643  0.00  0.00    -0.270 OA
ATOM      7  N   UNL     1      12.863   5.475   2.845  0.00  0.00    -0.305 N 
ATOM     16  C   UNL     1      11.910   6.387   3.281  0.00  0.00    +0.244 C 
ATOM     28  H   UNL     1      13.137   4.698   3.435  0.00  0.00    +0.149 HD
BRANCH  16  21
ATOM     21  C   UNL     1      11.339   6.139   4.629  0.00  0.00    +0.037 A 
ATOM     22  C   UNL     1      11.803   6.862   5.728  0.00  0.00    +0.013 A 
ATOM     23  C   UNL     1      10.338   5.182   4.796  0.00  0.00    +0.013 A 
ATOM     24  C   UNL     1      11.268   6.628   6.994  0.00  0.00    +0.013 A 
ATOM     25  C   UNL     1       9.801   4.948   6.063  0.00  0.00    +0.013 A 
ATOM     26  C   UNL     1      10.267   5.671   7.162  0.00  0.00    +0.055 A 
BRANCH  26  27
ATOM      1  F   UNL     1      10.604   5.545   9.526  0.00  0.00    -0.166 F 
ATOM      2  F   UNL     1       9.166   4.169   8.664  0.00  0.00    -0.166 F 
ATOM      3  F   UNL     1       8.682   6.283   8.825  0.00  0.00    -0.166 F 
ATOM     27  C   UNL     1       9.694   5.421   8.515  0.00  0.00    +0.417 C 
ENDBRANCH  26  27
ENDBRANCH  16  21
ENDBRANCH   9   7
BRANCH  10   4
ATOM      4  O   UNL     1      15.787   6.279   2.193  0.00  0.00    -0.387 OA
ATOM     29  H   UNL     1      15.185   6.882   2.663  0.00  0.00    +0.210 HD
ENDBRANCH  10   4
BRANCH  12   5
ATOM      5  O   UNL     1      15.494   6.146  -0.534  0.00  0.00    -0.389 OA
ATOM     30  H   UNL     1      16.245   6.044  -1.143  0.00  0.00    +0.210 HD
ENDBRANCH  12   5
TORSDOF 6
ENDMDL
MODEL 2
REMARK VINA RESULT:      -6.4      4.929      7.592
REMARK  Name = 71693927
REMARK  7 active torsions:
REMARK  status: ('A' for Active; 'I' for Inactive)
REMARK    1  A    between atoms: O_4  and  C_10
REMARK    2  A    between atoms: O_5  and  C_12
REMARK    3  A    between atoms: N_7  and  C_9
REMARK    4  A    between atoms: C_8  and  C_13
REMARK    5  A    between atoms: C_14  and  C_18
REMARK    6  A    between atoms: C_16  and  C_21
REMARK    7  A    between atoms: C_26  and  C_27
REMARK                            x       y       z     vdW  Elec       q    Type
REMARK                         _______ _______ _______ _____ _____    ______ ____
ROOT
ATOM      8  C   UNL     1      11.860   7.271   3.375  0.00  0.00    +0.045 C 
ATOM      9  C   UNL     1      12.692   6.071   2.870  0.00  0.00    +0.112 C 
ATOM     10  C   UNL     1      14.106   6.642   2.755  0.00  0.00    +0.164 C 
ATOM     11  C   UNL     1      12.869   8.224   4.067  0.00  0.00    +0.044 C 
ATOM     12  C   UNL     1      14.225   7.522   3.993  0.00  0.00    +0.145 C 
ENDROOT
BRANCH   8  13
ATOM     13  C   UNL     1      10.694   6.858   4.248  0.00  0.00    -0.039 A 
ATOM     14  C   UNL     1       9.385   7.196   3.904  0.00  0.00    -0.047 A 
ATOM     15  C   UNL     1      10.943   6.126   5.410  0.00  0.00    +0.004 A 
ATOM     17  C   UNL     1       8.326   6.804   4.723  0.00  0.00    +0.003 A 
ATOM     18  C   UNL     1       9.093   7.978   2.667  0.00  0.00    +0.044 C 
ATOM     19  C   UNL     1       9.884   5.734   6.228  0.00  0.00    +0.000 A 
ATOM     20  C   UNL     1       8.575   6.073   5.884  0.00  0.00    +0.000 A 
ENDBRANCH   8  13
BRANCH   9   7
ATOM      6  O   UNL     1      13.138   3.454   1.777  0.00  0.00    -0.270 OA
ATOM      7  N   UNL     1      12.210   5.573   1.607  0.00  0.00    -0.305 N 
ATOM     16  C   UNL     1      12.477   4.285   1.160  0.00  0.00    +0.244 C 
ATOM     28  H   UNL     1      11.676   6.215   1.032  0.00  0.00    +0.149 HD
BRANCH  16  21
ATOM     21  C   UNL     1      11.931   3.932  -0.175  0.00  0.00    +0.037 A 
ATOM     22  C   UNL     1      12.532   2.927  -0.932  0.00  0.00    +0.013 A 
ATOM     23  C   UNL     1      10.816   4.607  -0.673  0.00  0.00    +0.013 A 
ATOM     24  C   UNL     1      12.020   2.596  -2.187  0.00  0.00    +0.013 A 
ATOM     25  C   UNL     1      10.303   4.277  -1.928  0.00  0.00    +0.013 A 
ATOM     26  C   UNL     1      10.905   3.271  -2.684  0.00  0.00    +0.055 A 
BRANCH  26  27
ATOM      1  F   UNL     1      11.320   2.656  -4.958  0.00  0.00    -0.166 F 
ATOM      2  F   UNL     1       9.585   3.900  -4.577  0.00  0.00    -0.166 F 
ATOM      3  F   UNL     1       9.566   1.806  -3.993  0.00  0.00    -0.166 F 
ATOM     27  C   UNL     1      10.357   2.918  -4.025  0.00  0.00    +0.417 C 
ENDBRANCH  26  27
ENDBRANCH  16  21
ENDBRANCH   9   7
BRANCH  10   4
ATOM      4  O   UNL     1      15.093   5.629   2.751  0.00  0.00    -0.387 OA
ATOM     29  H   UNL     1      15.168   5.297   1.839  0.00  0.00    +0.210 HD
ENDBRANCH  10   4
BRANCH  12   5
ATOM      5  O   UNL     1      14.395   6.734   5.166  0.00  0.00    -0.389 OA
ATOM     30  H   UNL     1      13.683   6.971   5.784  0.00  0.00    +0.210 HD
ENDBRANCH  12   5
TORSDOF 6
ENDMDL
MODEL 3
REMARK VINA RESULT:      -6.4      4.596      7.273
REMARK  Name = 71693927
REMARK  7 active torsions:
REMARK  status: ('A' for Active; 'I' for Inactive)
REMARK    1  A    between atoms: O_4  and  C_10
REMARK    2  A    between atoms: O_5  and  C_12
REMARK    3  A    between atoms: N_7  and  C_9
REMARK    4  A    between atoms: C_8  and  C_13
REMARK    5  A    between atoms: C_14  and  C_18
REMARK    6  A    between atoms: C_16  and  C_21
REMARK    7  A    between atoms: C_26  and  C_27
REMARK                            x       y       z     vdW  Elec       q    Type
REMARK                         _______ _______ _______ _____ _____    ______ ____
ROOT
ATOM      8  C   UNL     1      11.704   8.153   4.696  0.00  0.00    +0.045 C 
ATOM      9  C   UNL     1      12.703   6.976   4.634  0.00  0.00    +0.112 C 
ATOM     10  C   UNL     1      14.058   7.645   4.863  0.00  0.00    +0.164 C 
ATOM     11  C   UNL     1      12.412   9.264   5.515  0.00  0.00    +0.044 C 
ATOM     12  C   UNL     1      13.755   8.676   5.944  0.00  0.00    +0.145 C 
ENDROOT
BRANCH   8  13
ATOM     13  C   UNL     1      10.348   7.751   5.233  0.00  0.00    -0.039 A 
ATOM     14  C   UNL     1       9.238   7.669   4.392  0.00  0.00    -0.047 A 
ATOM     15  C   UNL     1      10.216   7.460   6.592  0.00  0.00    +0.004 A 
ATOM     17  C   UNL     1       7.997   7.295   4.909  0.00  0.00    +0.003 A 
ATOM     18  C   UNL     1       9.354   7.976   2.936  0.00  0.00    +0.044 C 
ATOM     19  C   UNL     1       8.975   7.086   7.108  0.00  0.00    +0.000 A 
ATOM     20  C   UNL     1       7.866   7.004   6.266  0.00  0.00    +0.000 A 
ENDBRANCH   8  13
BRANCH   9   7
ATOM      6  O   UNL     1      11.006   4.762   3.952  0.00  0.00    -0.270 OA
ATOM      7  N   UNL     1      12.651   6.290   3.367  0.00  0.00    -0.305 N 
ATOM     16  C   UNL     1      11.792   5.225   3.129  0.00  0.00    +0.244 C 
ATOM     28  H   UNL     1      13.291   6.605   2.647  0.00  0.00    +0.149 HD
BRANCH  16  21
ATOM     21  C   UNL     1      11.877   4.608   1.781  0.00  0.00    +0.037 A 
ATOM     22  C   UNL     1      12.949   3.775   1.460  0.00  0.00    +0.013 A 
ATOM     23  C   UNL     1      10.885   4.863   0.834  0.00  0.00    +0.013 A 
ATOM     24  C   UNL     1      13.029   3.197   0.193  0.00  0.00    +0.013 A 
ATOM     25  C   UNL     1      10.964   4.284  -0.434  0.00  0.00    +0.013 A 
ATOM     26  C   UNL     1      12.037   3.452  -0.753  0.00  0.00    +0.055 A 
BRANCH  26  27
ATOM      1  F   UNL     1      13.252   3.175  -2.795  0.00  0.00    -0.166 F 
ATOM      2  F   UNL     1      11.088   3.176  -2.932  0.00  0.00    -0.166 F 
ATOM      3  F   UNL     1      12.119   1.470  -2.064  0.00  0.00    -0.166 F 
ATOM     27  C   UNL     1      12.123   2.834  -2.108  0.00  0.00    +0.417 C 
ENDBRANCH  26  27
ENDBRANCH  16  21
ENDBRANCH   9   7
BRANCH  10   4
ATOM      4  O   UNL     1      15.043   6.727   5.294  0.00  0.00    -0.387 OA
ATOM     29  H   UNL     1      15.912   7.111   5.084  0.00  0.00    +0.210 HD
ENDBRANCH  10   4
BRANCH  12   5
ATOM      5  O   UNL     1      13.595   8.052   7.214  0.00  0.00    -0.389 OA
ATOM     30  H   UNL     1      12.760   8.374   7.596  0.00  0.00    +0.210 HD
ENDBRANCH  12   5
TORSDOF 6
ENDMDL
MODEL 4
REMARK VINA RESULT:      -6.2     25.257     28.216
REMARK  Name = 71693927
REMARK  7 active torsions:
REMARK  status: ('A' for Active; 'I' for Inactive)
REMARK    1  A    between atoms: O_4  and  C_10
REMARK    2  A    between atoms: O_5  and  C_12
REMARK    3  A    between atoms: N_7  and  C_9
REMARK    4  A    between atoms: C_8  and  C_13
REMARK    5  A    between atoms: C_14  and  C_18
REMARK    6  A    between atoms: C_16  and  C_21
REMARK    7  A    between atoms: C_26  and  C_27
REMARK                            x       y       z     vdW  Elec       q    Type
REMARK                         _______ _______ _______ _____ _____    ______ ____
ROOT
ATOM      8  C   UNL     1      -4.939 -11.698  16.814  0.00  0.00    +0.045 C 
ATOM      9  C   UNL     1      -5.367 -10.663  17.878  0.00  0.00    +0.112 C 
ATOM     10  C   UNL     1      -5.745 -11.526  19.082  0.00  0.00    +0.164 C 
ATOM     11  C   UNL     1      -4.529 -12.969  17.602  0.00  0.00    +0.044 C 
ATOM     12  C   UNL     1      -4.674 -12.610  19.080  0.00  0.00    +0.145 C 
ENDROOT
BRANCH   8  13
ATOM     13  C   UNL     1      -3.873 -11.175  15.875  0.00  0.00    -0.039 A 
ATOM     14  C   UNL     1      -4.137 -10.998  14.517  0.00  0.00    -0.047 A 
ATOM     15  C   UNL     1      -2.611 -10.868  16.386  0.00  0.00    +0.004 A 
ATOM     17  C   UNL     1      -3.140 -10.514  13.670  0.00  0.00    +0.003 A 
ATOM     18  C   UNL     1      -5.479 -11.319  13.946  0.00  0.00    +0.044 C 
ATOM     19  C   UNL     1      -1.614 -10.384  15.539  0.00  0.00    +0.000 A 
ATOM     20  C   UNL     1      -1.879 -10.206  14.181  0.00  0.00    +0.000 A 
ENDBRANCH   8  13
BRANCH   9   7
ATOM      6  O   UNL     1      -7.899 -11.605  16.903  0.00  0.00    -0.270 OA
ATOM      7  N   UNL     1      -6.472  -9.853  17.430  0.00  0.00    -0.305 N 
ATOM     16  C   UNL     1      -7.664 -10.401  16.974  0.00  0.00    +0.244 C 
ATOM     28  H   UNL     1      -6.339  -8.848  17.439  0.00  0.00    +0.149 HD
BRANCH  16  21
ATOM     21  C   UNL     1      -8.696  -9.433  16.523  0.00  0.00    +0.037 A 
ATOM     22  C   UNL     1      -9.148  -9.457  15.204  0.00  0.00    +0.013 A 
ATOM     23  C   UNL     1      -9.213  -8.498  17.420  0.00  0.00    +0.013 A 
ATOM     24  C   UNL     1     -10.116  -8.547  14.780  0.00  0.00    +0.013 A 
ATOM     25  C   UNL     1     -10.183  -7.587  16.997  0.00  0.00    +0.013 A 
ATOM     26  C   UNL     1     -10.633  -7.613  15.677  0.00  0.00    +0.055 A 
BRANCH  26  27
ATOM      1  F   UNL     1     -11.153  -5.549  14.584  0.00  0.00    -0.166 F 
ATOM      2  F   UNL     1     -12.422  -6.129  16.243  0.00  0.00    -0.166 F 
ATOM      3  F   UNL     1     -12.561  -7.190  14.351  0.00  0.00    -0.166 F 
ATOM     27  C   UNL     1     -11.669  -6.639  15.225  0.00  0.00    +0.417 C 
ENDBRANCH  26  27
ENDBRANCH  16  21
ENDBRANCH   9   7
BRANCH  10   4
ATOM      4  O   UNL     1      -5.729 -10.794  20.292  0.00  0.00    -0.387 OA
ATOM     29  H   UNL     1      -6.399 -11.185  20.879  0.00  0.00    +0.210 HD
ENDBRANCH  10   4
BRANCH  12   5
ATOM      5  O   UNL     1      -3.431 -12.100  19.550  0.00  0.00    -0.389 OA
ATOM     30  H   UNL     1      -3.266 -12.490  20.425  0.00  0.00    +0.210 HD
ENDBRANCH  12   5
TORSDOF 6
ENDMDL
MODEL 5
REMARK VINA RESULT:      -6.2     23.803     26.864
REMARK  Name = 71693927
REMARK  7 active torsions:
REMARK  status: ('A' for Active; 'I' for Inactive)
REMARK    1  A    between atoms: O_4  and  C_10
REMARK    2  A    between atoms: O_5  and  C_12
REMARK    3  A    between atoms: N_7  and  C_9
REMARK    4  A    between atoms: C_8  and  C_13
REMARK    5  A    between atoms: C_14  and  C_18
REMARK    6  A    between atoms: C_16  and  C_21
REMARK    7  A    between atoms: C_26  and  C_27
REMARK                            x       y       z     vdW  Elec       q    Type
REMARK                         _______ _______ _______ _____ _____    ______ ____
ROOT
ATOM      8  C   UNL     1      17.194  -4.965  24.186  0.00  0.00    +0.045 C 
ATOM      9  C   UNL     1      17.687  -5.798  25.391  0.00  0.00    +0.112 C 
ATOM     10  C   UNL     1      17.837  -7.206  24.814  0.00  0.00    +0.164 C 
ATOM     11  C   UNL     1      17.647  -5.742  22.923  0.00  0.00    +0.044 C 
ATOM     12  C   UNL     1      18.429  -6.951  23.433  0.00  0.00    +0.145 C 
ENDROOT
BRANCH   8  13
ATOM     13  C   UNL     1      17.658  -3.525  24.232  0.00  0.00    -0.039 A 
ATOM     14  C   UNL     1      16.876  -2.502  23.696  0.00  0.00    -0.047 A 
ATOM     15  C   UNL     1      18.886  -3.227  24.824  0.00  0.00    +0.004 A 
ATOM     17  C   UNL     1      17.323  -1.182  23.751  0.00  0.00    +0.003 A 
ATOM     18  C   UNL     1      15.559  -2.795  23.059  0.00  0.00    +0.044 C 
ATOM     19  C   UNL     1      19.333  -1.907  24.879  0.00  0.00    +0.000 A 
ATOM     20  C   UNL     1      18.550  -0.884  24.342  0.00  0.00    +0.000 A 
ENDBRANCH   8  13
BRANCH   9   7
ATOM      6  O   UNL     1      18.292  -6.207  28.168  0.00  0.00    -0.270 OA
ATOM      7  N   UNL     1      16.754  -5.765  26.488  0.00  0.00    -0.305 N 
ATOM     16  C   UNL     1      17.141  -5.975  27.806  0.00  0.00    +0.244 C 
ATOM     28  H   UNL     1      15.780  -5.601  26.259  0.00  0.00    +0.149 HD
BRANCH  16  21
ATOM     21  C   UNL     1      16.056  -5.934  28.819  0.00  0.00    +0.037 A 
ATOM     22  C   UNL     1      14.981  -6.819  28.727  0.00  0.00    +0.013 A 
ATOM     23  C   UNL     1      16.111  -5.010  29.862  0.00  0.00    +0.013 A 
ATOM     24  C   UNL     1      13.962  -6.779  29.678  0.00  0.00    +0.013 A 
ATOM     25  C   UNL     1      15.091  -4.970  30.814  0.00  0.00    +0.013 A 
ATOM     26  C   UNL     1      14.017  -5.855  30.721  0.00  0.00    +0.055 A 
BRANCH  26  27
ATOM      1  F   UNL     1      13.290  -6.322  32.951  0.00  0.00    -0.166 F 
ATOM      2  F   UNL     1      11.813  -6.517  31.376  0.00  0.00    -0.166 F 
ATOM      3  F   UNL     1      12.491  -4.544  31.988  0.00  0.00    -0.166 F 
ATOM     27  C   UNL     1      12.927  -5.813  31.737  0.00  0.00    +0.417 C 
ENDBRANCH  26  27
ENDBRANCH  16  21
ENDBRANCH   9   7
BRANCH  10   4
ATOM      4  O   UNL     1      18.692  -8.017  25.595  0.00  0.00    -0.387 OA
ATOM     29  H   UNL     1      18.755  -8.883  25.156  0.00  0.00    +0.210 HD
ENDBRANCH  10   4
BRANCH  12   5
ATOM      5  O   UNL     1      19.806  -6.598  23.525  0.00  0.00    -0.389 OA
ATOM     30  H   UNL     1      20.017  -6.486  24.468  0.00  0.00    +0.210 HD
ENDBRANCH  12   5
TORSDOF 6
ENDMDL
MODEL 6
REMARK VINA RESULT:      -6.2     25.630     29.317
REMARK  Name = 71693927
REMARK  7 active torsions:
REMARK  status: ('A' for Active; 'I' for Inactive)
REMARK    1  A    between atoms: O_4  and  C_10
REMARK    2  A    between atoms: O_5  and  C_12
REMARK    3  A    between atoms: N_7  and  C_9
REMARK    4  A    between atoms: C_8  and  C_13
REMARK    5  A    between atoms: C_14  and  C_18
REMARK    6  A    between atoms: C_16  and  C_21
REMARK    7  A    between atoms: C_26  and  C_27
REMARK                            x       y       z     vdW  Elec       q    Type
REMARK                         _______ _______ _______ _____ _____    ______ ____
ROOT
ATOM      8  C   UNL     1     -10.513  -9.966  16.396  0.00  0.00    +0.045 C 
ATOM      9  C   UNL     1      -9.502  -8.800  16.326  0.00  0.00    +0.112 C 
ATOM     10  C   UNL     1     -10.096  -7.876  15.264  0.00  0.00    +0.164 C 
ATOM     11  C   UNL     1     -11.853  -9.395  15.863  0.00  0.00    +0.044 C 
ATOM     12  C   UNL     1     -11.590  -7.921  15.563  0.00  0.00    +0.145 C 
ENDROOT
BRANCH   8  13
ATOM     13  C   UNL     1     -10.605 -10.589  17.772  0.00  0.00    -0.039 A 
ATOM     14  C   UNL     1     -10.089 -11.861  18.020  0.00  0.00    -0.047 A 
ATOM     15  C   UNL     1     -11.216  -9.872  18.802  0.00  0.00    +0.004 A 
ATOM     17  C   UNL     1     -10.184 -12.416  19.297  0.00  0.00    +0.003 A 
ATOM     18  C   UNL     1      -9.432 -12.649  16.936  0.00  0.00    +0.044 C 
ATOM     19  C   UNL     1     -11.310 -10.426  20.078  0.00  0.00    +0.000 A 
ATOM     20  C   UNL     1     -10.794 -11.699  20.326  0.00  0.00    +0.000 A 
ENDBRANCH   8  13
BRANCH   9   7
ATOM      6  O   UNL     1      -7.399  -9.553  18.131  0.00  0.00    -0.270 OA
ATOM      7  N   UNL     1      -8.181  -9.252  15.968  0.00  0.00    -0.305 N 
ATOM     16  C   UNL     1      -7.226  -9.596  16.915  0.00  0.00    +0.244 C 
ATOM     28  H   UNL     1      -7.961  -9.289  14.979  0.00  0.00    +0.149 HD
BRANCH  16  21
ATOM     21  C   UNL     1      -5.904 -10.017  16.385  0.00  0.00    +0.037 A 
ATOM     22  C   UNL     1      -5.697 -10.095  15.008  0.00  0.00    +0.013 A 
ATOM     23  C   UNL     1      -4.870 -10.336  17.265  0.00  0.00    +0.013 A 
ATOM     24  C   UNL     1      -4.456 -10.491  14.510  0.00  0.00    +0.013 A 
ATOM     25  C   UNL     1      -3.628 -10.733  16.767  0.00  0.00    +0.013 A 
ATOM     26  C   UNL     1      -3.422 -10.810  15.390  0.00  0.00    +0.055 A 
BRANCH  26  27
ATOM      1  F   UNL     1      -2.085 -12.506  14.361  0.00  0.00    -0.166 F 
ATOM      2  F   UNL     1      -1.098 -11.209  15.791  0.00  0.00    -0.166 F 
ATOM      3  F   UNL     1      -1.659 -10.439  13.837  0.00  0.00    -0.166 F 
ATOM     27  C   UNL     1      -2.095 -11.234  14.858  0.00  0.00    +0.417 C 
ENDBRANCH  26  27
ENDBRANCH  16  21
ENDBRANCH   9   7
BRANCH  10   4
ATOM      4  O   UNL     1      -9.595  -6.557  15.360  0.00  0.00    -0.387 OA
ATOM     29  H   UNL     1      -8.895  -6.559  16.036  0.00  0.00    +0.210 HD
ENDBRANCH  10   4
BRANCH  12   5
ATOM      5  O   UNL     1     -11.900  -7.157  16.724  0.00  0.00    -0.389 OA
ATOM     30  H   UNL     1     -12.077  -6.245  16.437  0.00  0.00    +0.210 HD
ENDBRANCH  12   5
TORSDOF 6
ENDMDL
MODEL 7
REMARK VINA RESULT:      -6.1     24.361     28.040
REMARK  Name = 71693927
REMARK  7 active torsions:
REMARK  status: ('A' for Active; 'I' for Inactive)
REMARK    1  A    between atoms: O_4  and  C_10
REMARK    2  A    between atoms: O_5  and  C_12
REMARK    3  A    between atoms: N_7  and  C_9
REMARK    4  A    between atoms: C_8  and  C_13
REMARK    5  A    between atoms: C_14  and  C_18
REMARK    6  A    between atoms: C_16  and  C_21
REMARK    7  A    between atoms: C_26  and  C_27
REMARK                            x       y       z     vdW  Elec       q    Type
REMARK                         _______ _______ _______ _____ _____    ______ ____
ROOT
ATOM      8  C   UNL     1      -7.885 -10.974  16.958  0.00  0.00    +0.045 C 
ATOM      9  C   UNL     1      -7.801  -9.515  16.456  0.00  0.00    +0.112 C 
ATOM     10  C   UNL     1      -9.263  -9.134  16.222  0.00  0.00    +0.164 C 
ATOM     11  C   UNL     1      -9.315 -11.140  17.536  0.00  0.00    +0.044 C 
ATOM     12  C   UNL     1      -9.980  -9.770  17.406  0.00  0.00    +0.145 C 
ENDROOT
BRANCH   8  13
ATOM     13  C   UNL     1      -6.777 -11.334  17.923  0.00  0.00    -0.039 A 
ATOM     14  C   UNL     1      -5.736 -12.179  17.539  0.00  0.00    -0.047 A 
ATOM     15  C   UNL     1      -6.804 -10.805  19.215  0.00  0.00    +0.004 A 
ATOM     17  C   UNL     1      -4.724 -12.496  18.445  0.00  0.00    +0.003 A 
ATOM     18  C   UNL     1      -5.684 -12.757  16.163  0.00  0.00    +0.044 C 
ATOM     19  C   UNL     1      -5.793 -11.122  20.121  0.00  0.00    +0.000 A 
ATOM     20  C   UNL     1      -4.752 -11.968  19.735  0.00  0.00    +0.000 A 
ENDBRANCH   8  13
BRANCH   9   7
ATOM      6  O   UNL     1      -8.204 -10.959  14.007  0.00  0.00    -0.270 OA
ATOM      7  N   UNL     1      -7.017  -9.403  15.252  0.00  0.00    -0.305 N 
ATOM     16  C   UNL     1      -7.290 -10.145  14.111  0.00  0.00    +0.244 C 
ATOM     28  H   UNL     1      -6.229  -8.765  15.274  0.00  0.00    +0.149 HD
BRANCH  16  21
ATOM     21  C   UNL     1      -6.373  -9.934  12.961  0.00  0.00    +0.037 A 
ATOM     22  C   UNL     1      -5.134 -10.572  12.930  0.00  0.00    +0.013 A 
ATOM     23  C   UNL     1      -6.752  -9.095  11.914  0.00  0.00    +0.013 A 
ATOM     24  C   UNL     1      -4.273 -10.372  11.851  0.00  0.00    +0.013 A 
ATOM     25  C   UNL     1      -5.891  -8.894  10.833  0.00  0.00    +0.013 A 
ATOM     26  C   UNL     1      -4.652  -9.534  10.803  0.00  0.00    +0.055 A 
BRANCH  26  27
ATOM      1  F   UNL     1      -2.444  -9.054  10.018  0.00  0.00    -0.166 F 
ATOM      2  F   UNL     1      -4.094  -8.276   8.846  0.00  0.00    -0.166 F 
ATOM      3  F   UNL     1      -3.660 -10.406   8.826  0.00  0.00    -0.166 F 
ATOM     27  C   UNL     1      -3.731  -9.320   9.649  0.00  0.00    +0.417 C 
ENDBRANCH  26  27
ENDBRANCH  16  21
ENDBRANCH   9   7
BRANCH  10   4
ATOM      4  O   UNL     1      -9.454  -7.733  16.201  0.00  0.00    -0.387 OA
ATOM     29  H   UNL     1     -10.006  -7.502  16.969  0.00  0.00    +0.210 HD
ENDBRANCH  10   4
BRANCH  12   5
ATOM      5  O   UNL     1      -9.744  -9.034  18.602  0.00  0.00    -0.389 OA
ATOM     30  H   UNL     1     -10.045  -8.122  18.448  0.00  0.00    +0.210 HD
ENDBRANCH  12   5
TORSDOF 6
ENDMDL
MODEL 8
REMARK VINA RESULT:      -6.1     12.855     14.495
REMARK  Name = 71693927
REMARK  7 active torsions:
REMARK  status: ('A' for Active; 'I' for Inactive)
REMARK    1  A    between atoms: O_4  and  C_10
REMARK    2  A    between atoms: O_5  and  C_12
REMARK    3  A    between atoms: N_7  and  C_9
REMARK    4  A    between atoms: C_8  and  C_13
REMARK    5  A    between atoms: C_14  and  C_18
REMARK    6  A    between atoms: C_16  and  C_21
REMARK    7  A    between atoms: C_26  and  C_27
REMARK                            x       y       z     vdW  Elec       q    Type
REMARK                         _______ _______ _______ _____ _____    ______ ____
ROOT
ATOM      8  C   UNL     1      18.026  -4.795  -3.260  0.00  0.00    +0.045 C 
ATOM      9  C   UNL     1      18.028  -3.881  -2.015  0.00  0.00    +0.112 C 
ATOM     10  C   UNL     1      18.771  -2.633  -2.490  0.00  0.00    +0.164 C 
ATOM     11  C   UNL     1      18.203  -3.850  -4.477  0.00  0.00    +0.044 C 
ATOM     12  C   UNL     1      18.241  -2.434  -3.905  0.00  0.00    +0.145 C 
ENDROOT
BRANCH   8  13
ATOM     13  C   UNL     1      16.806  -5.688  -3.338  0.00  0.00    -0.039 A 
ATOM     14  C   UNL     1      16.911  -7.065  -3.143  0.00  0.00    -0.047 A 
ATOM     15  C   UNL     1      15.562  -5.115  -3.606  0.00  0.00    +0.004 A 
ATOM     17  C   UNL     1      15.774  -7.869  -3.218  0.00  0.00    +0.003 A 
ATOM     18  C   UNL     1      18.230  -7.702  -2.854  0.00  0.00    +0.044 C 
ATOM     19  C   UNL     1      14.425  -5.919  -3.681  0.00  0.00    +0.000 A 
ATOM     20  C   UNL     1      14.531  -7.297  -3.486  0.00  0.00    +0.000 A 
ENDBRANCH   8  13
BRANCH   9   7
ATOM      6  O   UNL     1      20.687  -4.966  -1.969  0.00  0.00    -0.270 OA
ATOM      7  N   UNL     1      18.685  -4.501  -0.892  0.00  0.00    -0.305 N 
ATOM     16  C   UNL     1      19.980  -4.999  -0.964  0.00  0.00    +0.244 C 
ATOM     28  H   UNL     1      18.151  -4.584  -0.034  0.00  0.00    +0.149 HD
BRANCH  16  21
ATOM     21  C   UNL     1      20.506  -5.632   0.272  0.00  0.00    +0.037 A 
ATOM     22  C   UNL     1      20.279  -6.987   0.514  0.00  0.00    +0.013 A 
ATOM     23  C   UNL     1      21.225  -4.870   1.193  0.00  0.00    +0.013 A 
ATOM     24  C   UNL     1      20.772  -7.581   1.675  0.00  0.00    +0.013 A 
ATOM     25  C   UNL     1      21.719  -5.464   2.356  0.00  0.00    +0.013 A 
ATOM     26  C   UNL     1      21.491  -6.819   2.596  0.00  0.00    +0.055 A 
BRANCH  26  27
ATOM      1  F   UNL     1      21.213  -8.440   4.333  0.00  0.00    -0.166 F 
ATOM      2  F   UNL     1      22.183  -6.578   4.873  0.00  0.00    -0.166 F 
ATOM      3  F   UNL     1      23.239  -8.036   3.654  0.00  0.00    -0.166 F 
ATOM     27  C   UNL     1      22.018  -7.454   3.838  0.00  0.00    +0.417 C 
ENDBRANCH  26  27
ENDBRANCH  16  21
ENDBRANCH   9   7
BRANCH  10   4
ATOM      4  O   UNL     1      18.498  -1.506  -1.679  0.00  0.00    -0.387 OA
ATOM     29  H   UNL     1      17.851  -0.955  -2.153  0.00  0.00    +0.210 HD
ENDBRANCH  10   4
BRANCH  12   5
ATOM      5  O   UNL     1      16.916  -1.914  -3.886  0.00  0.00    -0.389 OA
ATOM     30  H   UNL     1      16.326  -2.604  -4.234  0.00  0.00    +0.210 HD
ENDBRANCH  12   5
TORSDOF 6
ENDMDL
MODEL 9
REMARK VINA RESULT:      -5.9     31.329     33.395
REMARK  Name = 71693927
REMARK  7 active torsions:
REMARK  status: ('A' for Active; 'I' for Inactive)
REMARK    1  A    between atoms: O_4  and  C_10
REMARK    2  A    between atoms: O_5  and  C_12
REMARK    3  A    between atoms: N_7  and  C_9
REMARK    4  A    between atoms: C_8  and  C_13
REMARK    5  A    between atoms: C_14  and  C_18
REMARK    6  A    between atoms: C_16  and  C_21
REMARK    7  A    between atoms: C_26  and  C_27
REMARK                            x       y       z     vdW  Elec       q    Type
REMARK                         _______ _______ _______ _____ _____    ______ ____
ROOT
ATOM      8  C   UNL     1      10.001  -7.107  33.565  0.00  0.00    +0.045 C 
ATOM      9  C   UNL     1       8.570  -7.071  32.982  0.00  0.00    +0.112 C 
ATOM     10  C   UNL     1       7.775  -6.302  34.038  0.00  0.00    +0.164 C 
ATOM     11  C   UNL     1      10.086  -5.913  34.550  0.00  0.00    +0.044 C 
ATOM     12  C   UNL     1       8.738  -5.199  34.460  0.00  0.00    +0.145 C 
ENDROOT
BRANCH   8  13
ATOM     13  C   UNL     1      11.074  -7.113  32.498  0.00  0.00    -0.039 A 
ATOM     14  C   UNL     1      11.592  -8.312  32.007  0.00  0.00    -0.047 A 
ATOM     15  C   UNL     1      11.546  -5.896  32.004  0.00  0.00    +0.004 A 
ATOM     17  C   UNL     1      12.580  -8.293  31.023  0.00  0.00    +0.003 A 
ATOM     18  C   UNL     1      11.103  -9.626  32.519  0.00  0.00    +0.044 C 
ATOM     19  C   UNL     1      12.535  -5.878  31.021  0.00  0.00    +0.000 A 
ATOM     20  C   UNL     1      13.051  -7.077  30.529  0.00  0.00    +0.000 A 
ENDBRANCH   8  13
BRANCH   9   7
ATOM      6  O   UNL     1       7.191  -8.008  30.644  0.00  0.00    -0.270 OA
ATOM      7  N   UNL     1       8.040  -8.394  32.769  0.00  0.00    -0.305 N 
ATOM     16  C   UNL     1       7.385  -8.757  31.599  0.00  0.00    +0.244 C 
ATOM     28  H   UNL     1       8.143  -9.059  33.527  0.00  0.00    +0.149 HD
BRANCH  16  21
ATOM     21  C   UNL     1       6.874 -10.150  31.543  0.00  0.00    +0.037 A 
ATOM     22  C   UNL     1       6.753 -10.801  30.316  0.00  0.00    +0.013 A 
ATOM     23  C   UNL     1       6.513 -10.807  32.720  0.00  0.00    +0.013 A 
ATOM     24  C   UNL     1       6.272 -12.109  30.264  0.00  0.00    +0.013 A 
ATOM     25  C   UNL     1       6.031 -12.116  32.669  0.00  0.00    +0.013 A 
ATOM     26  C   UNL     1       5.911 -12.766  31.441  0.00  0.00    +0.055 A 
BRANCH  26  27
ATOM      1  F   UNL     1       5.521 -14.841  32.565  0.00  0.00    -0.166 F 
ATOM      2  F   UNL     1       6.031 -14.945  30.461  0.00  0.00    -0.166 F 
ATOM      3  F   UNL     1       4.071 -14.224  31.066  0.00  0.00    -0.166 F 
ATOM     27  C   UNL     1       5.397 -14.165  31.385  0.00  0.00    +0.417 C 
ENDBRANCH  26  27
ENDBRANCH  16  21
ENDBRANCH   9   7
BRANCH  10   4
ATOM      4  O   UNL     1       6.576  -5.762  33.518  0.00  0.00    -0.387 OA
ATOM     29  H   UNL     1       6.690  -5.672  32.555  0.00  0.00    +0.210 HD
ENDBRANCH  10   4
BRANCH  12   5
ATOM      5  O   UNL     1       8.824  -4.187  33.462  0.00  0.00    -0.389 OA
ATOM     30  H   UNL     1       8.061  -3.595  33.579  0.00  0.00    +0.210 HD
ENDBRANCH  12   5
TORSDOF 6
ENDMDL
MODEL 10
REMARK VINA RESULT:      -5.9     23.946     26.496
REMARK  Name = 71693927
REMARK  7 active torsions:
REMARK  status: ('A' for Active; 'I' for Inactive)
REMARK    1  A    between atoms: O_4  and  C_10
REMARK    2  A    between atoms: O_5  and  C_12
REMARK    3  A    between atoms: N_7  and  C_9
REMARK    4  A    between atoms: C_8  and  C_13
REMARK    5  A    between atoms: C_14  and  C_18
REMARK    6  A    between atoms: C_16  and  C_21
REMARK    7  A    between atoms: C_26  and  C_27
REMARK                            x       y       z     vdW  Elec       q    Type
REMARK                         _______ _______ _______ _____ _____    ______ ____
ROOT
ATOM      8  C   UNL     1      -4.264 -12.185  12.064  0.00  0.00    +0.045 C 
ATOM      9  C   UNL     1      -3.961 -11.784  13.525  0.00  0.00    +0.112 C 
ATOM     10  C   UNL     1      -3.374 -13.059  14.130  0.00  0.00    +0.164 C 
ATOM     11  C   UNL     1      -3.332 -13.385  11.754  0.00  0.00    +0.044 C 
ATOM     12  C   UNL     1      -2.490 -13.597  13.011  0.00  0.00    +0.145 C 
ENDROOT
BRANCH   8  13
ATOM     13  C   UNL     1      -4.136 -11.030  11.094  0.00  0.00    -0.039 A 
ATOM     14  C   UNL     1      -5.154 -10.738  10.186  0.00  0.00    -0.047 A 
ATOM     15  C   UNL     1      -2.978 -10.250  11.118  0.00  0.00    +0.004 A 
ATOM     17  C   UNL     1      -5.015  -9.668   9.302  0.00  0.00    +0.003 A 
ATOM     18  C   UNL     1      -6.401 -11.557  10.141  0.00  0.00    +0.044 C 
ATOM     19  C   UNL     1      -2.839  -9.180  10.234  0.00  0.00    +0.000 A 
ATOM     20  C   UNL     1      -3.859  -8.889   9.326  0.00  0.00    +0.000 A 
ENDBRANCH   8  13
BRANCH   9   7
ATOM      6  O   UNL     1      -4.060 -10.232  15.939  0.00  0.00    -0.270 OA
ATOM      7  N   UNL     1      -5.147 -11.355  14.224  0.00  0.00    -0.305 N 
ATOM     16  C   UNL     1      -5.095 -10.603  15.390  0.00  0.00    +0.244 C 
ATOM     28  H   UNL     1      -6.038 -11.646  13.839  0.00  0.00    +0.149 HD
BRANCH  16  21
ATOM     21  C   UNL     1      -6.404 -10.262  16.004  0.00  0.00    +0.037 A 
ATOM     22  C   UNL     1      -7.503  -9.979  15.193  0.00  0.00    +0.013 A 
ATOM     23  C   UNL     1      -6.534 -10.226  17.392  0.00  0.00    +0.013 A 
ATOM     24  C   UNL     1      -8.732  -9.658  15.770  0.00  0.00    +0.013 A 
ATOM     25  C   UNL     1      -7.763  -9.905  17.970  0.00  0.00    +0.013 A 
ATOM     26  C   UNL     1      -8.862  -9.621  17.158  0.00  0.00    +0.055 A 
BRANCH  26  27
ATOM      1  F   UNL     1     -10.471  -7.946  17.728  0.00  0.00    -0.166 F 
ATOM      2  F   UNL     1     -10.264  -9.616  19.096  0.00  0.00    -0.166 F 
ATOM      3  F   UNL     1     -11.222  -9.907  17.166  0.00  0.00    -0.166 F 
ATOM     27  C   UNL     1     -10.175  -9.278  17.775  0.00  0.00    +0.417 C 
ENDBRANCH  26  27
ENDBRANCH  16  21
ENDBRANCH   9   7
BRANCH  10   4
ATOM      4  O   UNL     1      -2.619 -12.800  15.298  0.00  0.00    -0.387 OA
ATOM     29  H   UNL     1      -2.994 -13.341  16.014  0.00  0.00    +0.210 HD
ENDBRANCH  10   4
BRANCH  12   5
ATOM      5  O   UNL     1      -1.295 -12.832  12.893  0.00  0.00    -0.389 OA
ATOM     30  H   UNL     1      -1.394 -12.045  13.454  0.00  0.00    +0.210 HD
ENDBRANCH  12   5
TORSDOF 6
ENDMDL
