MODEL 1
REMARK VINA RESULT:      -4.4      0.000      0.000
REMARK  Name = 56775530
REMARK  10 active torsions:
REMARK  status: ('A' for Active; 'I' for Inactive)
REMARK    1  A    between atoms: O_3  and  C_17
REMARK    2  A    between atoms: O_3  and  C_18
REMARK    3  A    between atoms: N_4  and  C_6
REMARK    4  A    between atoms: N_4  and  C_10
REMARK    5  A    between atoms: N_4  and  C_11
REMARK    6  A    between atoms: C_6  and  C_9
REMARK    7  A    between atoms: C_9  and  C_12
REMARK    8  A    between atoms: C_10  and  C_13
REMARK    9  A    between atoms: C_11  and  C_14
REMARK   10  A    between atoms: C_16  and  C_17
REMARK                            x       y       z     vdW  Elec       q    Type
REMARK                         _______ _______ _______ _____ _____    ______ ____
ROOT
ATOM      1  O   UNL     1     -17.033   5.330  31.935  0.00  0.00    -0.376 OA
ATOM      6  C   UNL     1     -14.979   5.252  32.510  0.00  0.00    +0.074 C 
ATOM      7  C   UNL     1     -16.288   4.595  32.934  0.00  0.00    +0.184 C 
ATOM      8  C   UNL     1     -15.816   5.916  31.422  0.00  0.00    +0.184 C 
ENDROOT
BRANCH   6   4
ATOM      4  N   UNL     1     -14.611   6.268  33.512  0.00  0.00    -0.293 NA
BRANCH   4  10
ATOM     10  C   UNL     1     -14.235   5.599  34.758  0.00  0.00    +0.082 C 
ATOM     13  C   UNL     1     -13.360   6.494  35.619  0.00  0.00    +0.020 C 
ENDBRANCH   4  10
BRANCH   4  11
ATOM     11  C   UNL     1     -13.498   7.066  33.000  0.00  0.00    +0.082 C 
ATOM     14  C   UNL     1     -13.919   8.505  32.760  0.00  0.00    +0.020 C 
ENDBRANCH   4  11
ENDBRANCH   6   4
BRANCH   6   9
ATOM      9  C   UNL     1     -13.826   4.384  32.109  0.00  0.00    +0.085 C 
BRANCH   9  12
ATOM      2  O   UNL     1     -14.721   0.950  32.786  0.00  0.00    -0.357 OA
ATOM      5  N   UNL     1     -14.320   2.219  33.186  0.00  0.00    -0.083 NA
ATOM     12  C   UNL     1     -14.240   2.929  32.056  0.00  0.00    +0.086 A 
ATOM     15  C   UNL     1     -14.574   2.167  30.923  0.00  0.00    +0.073 A 
ATOM     16  C   UNL     1     -14.868   0.932  31.437  0.00  0.00    +0.163 A 
BRANCH  16  17
ATOM     17  C   UNL     1     -15.291  -0.341  30.841  0.00  0.00    +0.236 C 
BRANCH  17   3
ATOM      3  O   UNL     1     -14.790  -0.454  29.506  0.00  0.00    -0.375 OA
ATOM     18  C   UNL     1     -13.447  -0.911  29.498  0.00  0.00    +0.194 C 
ENDBRANCH  17   3
ENDBRANCH  16  17
ENDBRANCH   9  12
ENDBRANCH   6   9
TORSDOF 7
ENDMDL
MODEL 2
REMARK VINA RESULT:      -4.3     21.818     24.723
REMARK  Name = 56775530
REMARK  10 active torsions:
REMARK  status: ('A' for Active; 'I' for Inactive)
REMARK    1  A    between atoms: O_3  and  C_17
REMARK    2  A    between atoms: O_3  and  C_18
REMARK    3  A    between atoms: N_4  and  C_6
REMARK    4  A    between atoms: N_4  and  C_10
REMARK    5  A    between atoms: N_4  and  C_11
REMARK    6  A    between atoms: C_6  and  C_9
REMARK    7  A    between atoms: C_9  and  C_12
REMARK    8  A    between atoms: C_10  and  C_13
REMARK    9  A    between atoms: C_11  and  C_14
REMARK   10  A    between atoms: C_16  and  C_17
REMARK                            x       y       z     vdW  Elec       q    Type
REMARK                         _______ _______ _______ _____ _____    ______ ____
ROOT
ATOM      1  O   UNL     1      -4.853 -13.511  17.633  0.00  0.00    -0.376 OA
ATOM      6  C   UNL     1      -5.130 -11.421  17.303  0.00  0.00    +0.074 C 
ATOM      7  C   UNL     1      -4.785 -12.335  18.473  0.00  0.00    +0.184 C 
ATOM      8  C   UNL     1      -5.089 -12.693  16.465  0.00  0.00    +0.184 C 
ENDROOT
BRANCH   6   4
ATOM      4  N   UNL     1      -6.532 -10.986  17.437  0.00  0.00    -0.293 NA
BRANCH   4  10
ATOM     10  C   UNL     1      -6.787 -10.611  18.827  0.00  0.00    +0.082 C 
ATOM     13  C   UNL     1      -8.196 -10.990  19.248  0.00  0.00    +0.020 C 
ENDBRANCH   4  10
BRANCH   4  11
ATOM     11  C   UNL     1      -6.769  -9.852  16.546  0.00  0.00    +0.082 C 
ATOM     14  C   UNL     1      -7.880 -10.154  15.556  0.00  0.00    +0.020 C 
ENDBRANCH   4  11
ENDBRANCH   6   4
BRANCH   6   9
ATOM      9  C   UNL     1      -4.201 -10.297  16.959  0.00  0.00    +0.085 C 
BRANCH   9  12
ATOM      2  O   UNL     1      -1.488 -11.354  14.820  0.00  0.00    -0.357 OA
ATOM      5  N   UNL     1      -2.036 -11.078  16.066  0.00  0.00    -0.083 NA
ATOM     12  C   UNL     1      -3.288 -10.684  15.814  0.00  0.00    +0.086 A 
ATOM     15  C   UNL     1      -3.583 -10.690  14.441  0.00  0.00    +0.073 A 
ATOM     16  C   UNL     1      -2.419 -11.119  13.860  0.00  0.00    +0.163 A 
BRANCH  16  17
ATOM     17  C   UNL     1      -2.005 -11.361  12.472  0.00  0.00    +0.236 C 
BRANCH  17   3
ATOM      3  O   UNL     1      -1.969 -10.130  11.744  0.00  0.00    -0.375 OA
ATOM     18  C   UNL     1      -2.980 -10.093  10.750  0.00  0.00    +0.194 C 
ENDBRANCH  17   3
ENDBRANCH  16  17
ENDBRANCH   9  12
ENDBRANCH   6   9
TORSDOF 7
ENDMDL
MODEL 3
REMARK VINA RESULT:      -4.3     21.592     24.987
REMARK  Name = 56775530
REMARK  10 active torsions:
REMARK  status: ('A' for Active; 'I' for Inactive)
REMARK    1  A    between atoms: O_3  and  C_17
REMARK    2  A    between atoms: O_3  and  C_18
REMARK    3  A    between atoms: N_4  and  C_6
REMARK    4  A    between atoms: N_4  and  C_10
REMARK    5  A    between atoms: N_4  and  C_11
REMARK    6  A    between atoms: C_6  and  C_9
REMARK    7  A    between atoms: C_9  and  C_12
REMARK    8  A    between atoms: C_10  and  C_13
REMARK    9  A    between atoms: C_11  and  C_14
REMARK   10  A    between atoms: C_16  and  C_17
REMARK                            x       y       z     vdW  Elec       q    Type
REMARK                         _______ _______ _______ _____ _____    ______ ____
ROOT
ATOM      1  O   UNL     1      -3.901 -14.187  14.824  0.00  0.00    -0.376 OA
ATOM      6  C   UNL     1      -3.729 -12.073  14.586  0.00  0.00    +0.074 C 
ATOM      7  C   UNL     1      -4.782 -13.065  15.066  0.00  0.00    +0.184 C 
ATOM      8  C   UNL     1      -2.828 -13.295  14.448  0.00  0.00    +0.184 C 
ENDROOT
BRANCH   6   4
ATOM      4  N   UNL     1      -4.099 -11.602  13.240  0.00  0.00    -0.293 NA
BRANCH   4  10
ATOM     10  C   UNL     1      -5.529 -11.297  13.215  0.00  0.00    +0.082 C 
ATOM     13  C   UNL     1      -5.774  -9.840  12.858  0.00  0.00    +0.020 C 
ENDBRANCH   4  10
BRANCH   4  11
ATOM     11  C   UNL     1      -3.313 -10.413  12.916  0.00  0.00    +0.082 C 
ATOM     14  C   UNL     1      -2.284 -10.712  11.839  0.00  0.00    +0.020 C 
ENDBRANCH   4  11
ENDBRANCH   6   4
BRANCH   6   9
ATOM      9  C   UNL     1      -3.308 -10.962  15.498  0.00  0.00    +0.085 C 
BRANCH   9  12
ATOM      2  O   UNL     1      -6.033 -10.111  17.713  0.00  0.00    -0.357 OA
ATOM      5  N   UNL     1      -5.365 -10.032  16.497  0.00  0.00    -0.083 NA
ATOM     12  C   UNL     1      -4.285 -10.806  16.644  0.00  0.00    +0.086 A 
ATOM     15  C   UNL     1      -4.220 -11.393  17.919  0.00  0.00    +0.073 A 
ATOM     16  C   UNL     1      -5.342 -10.925  18.551  0.00  0.00    +0.163 A 
BRANCH  16  17
ATOM     17  C   UNL     1      -5.911 -11.123  19.890  0.00  0.00    +0.236 C 
BRANCH  17   3
ATOM      3  O   UNL     1      -7.336 -11.217  19.814  0.00  0.00    -0.375 OA
ATOM     18  C   UNL     1      -7.759 -12.569  19.769  0.00  0.00    +0.194 C 
ENDBRANCH  17   3
ENDBRANCH  16  17
ENDBRANCH   9  12
ENDBRANCH   6   9
TORSDOF 7
ENDMDL
MODEL 4
REMARK VINA RESULT:      -4.2     13.497     14.636
REMARK  Name = 56775530
REMARK  10 active torsions:
REMARK  status: ('A' for Active; 'I' for Inactive)
REMARK    1  A    between atoms: O_3  and  C_17
REMARK    2  A    between atoms: O_3  and  C_18
REMARK    3  A    between atoms: N_4  and  C_6
REMARK    4  A    between atoms: N_4  and  C_10
REMARK    5  A    between atoms: N_4  and  C_11
REMARK    6  A    between atoms: C_6  and  C_9
REMARK    7  A    between atoms: C_9  and  C_12
REMARK    8  A    between atoms: C_10  and  C_13
REMARK    9  A    between atoms: C_11  and  C_14
REMARK   10  A    between atoms: C_16  and  C_17
REMARK                            x       y       z     vdW  Elec       q    Type
REMARK                         _______ _______ _______ _____ _____    ______ ____
ROOT
ATOM      1  O   UNL     1     -13.507  10.451  21.398  0.00  0.00    -0.376 OA
ATOM      6  C   UNL     1     -12.993   8.427  20.961  0.00  0.00    +0.074 C 
ATOM      7  C   UNL     1     -13.422   9.667  20.185  0.00  0.00    +0.184 C 
ATOM      8  C   UNL     1     -13.012   9.341  22.180  0.00  0.00    +0.184 C 
ENDROOT
BRANCH   6   4
ATOM      4  N   UNL     1     -14.135   7.499  21.044  0.00  0.00    -0.293 NA
BRANCH   4  10
ATOM     10  C   UNL     1     -14.695   7.306  19.707  0.00  0.00    +0.082 C 
ATOM     13  C   UNL     1     -16.182   7.000  19.773  0.00  0.00    +0.020 C 
ENDBRANCH   4  10
BRANCH   4  11
ATOM     11  C   UNL     1     -13.680   6.227  21.600  0.00  0.00    +0.082 C 
ATOM     14  C   UNL     1     -14.467   5.860  22.847  0.00  0.00    +0.020 C 
ENDBRANCH   4  11
ENDBRANCH   6   4
BRANCH   6   9
ATOM      9  C   UNL     1     -11.713   7.743  20.588  0.00  0.00    +0.085 C 
BRANCH   9  12
ATOM      2  O   UNL     1      -9.948   9.560  18.012  0.00  0.00    -0.357 OA
ATOM      5  N   UNL     1     -10.239   9.282  19.342  0.00  0.00    -0.083 NA
ATOM     12  C   UNL     1     -11.155   8.309  19.299  0.00  0.00    +0.086 A 
ATOM     15  C   UNL     1     -11.478   7.938  17.983  0.00  0.00    +0.073 A 
ATOM     16  C   UNL     1     -10.692   8.754  17.213  0.00  0.00    +0.163 A 
BRANCH  16  17
ATOM     17  C   UNL     1     -10.509   8.917  15.766  0.00  0.00    +0.236 C 
BRANCH  17   3
ATOM      3  O   UNL     1     -10.386   7.639  15.135  0.00  0.00    -0.375 OA
ATOM     18  C   UNL     1     -10.403   7.760  13.722  0.00  0.00    +0.194 C 
ENDBRANCH  17   3
ENDBRANCH  16  17
ENDBRANCH   9  12
ENDBRANCH   6   9
TORSDOF 7
ENDMDL
MODEL 5
REMARK VINA RESULT:      -4.2     13.150     14.162
REMARK  Name = 56775530
REMARK  10 active torsions:
REMARK  status: ('A' for Active; 'I' for Inactive)
REMARK    1  A    between atoms: O_3  and  C_17
REMARK    2  A    between atoms: O_3  and  C_18
REMARK    3  A    between atoms: N_4  and  C_6
REMARK    4  A    between atoms: N_4  and  C_10
REMARK    5  A    between atoms: N_4  and  C_11
REMARK    6  A    between atoms: C_6  and  C_9
REMARK    7  A    between atoms: C_9  and  C_12
REMARK    8  A    between atoms: C_10  and  C_13
REMARK    9  A    between atoms: C_11  and  C_14
REMARK   10  A    between atoms: C_16  and  C_17
REMARK                            x       y       z     vdW  Elec       q    Type
REMARK                         _______ _______ _______ _____ _____    ______ ____
ROOT
ATOM      1  O   UNL     1     -14.076   9.299  17.919  0.00  0.00    -0.376 OA
ATOM      6  C   UNL     1     -12.033   9.176  18.523  0.00  0.00    +0.074 C 
ATOM      7  C   UNL     1     -13.148  10.215  18.546  0.00  0.00    +0.184 C 
ATOM      8  C   UNL     1     -13.093   8.240  17.954  0.00  0.00    +0.184 C 
ENDROOT
BRANCH   6   4
ATOM      4  N   UNL     1     -11.082   9.523  17.452  0.00  0.00    -0.293 NA
BRANCH   4  10
ATOM     10  C   UNL     1     -10.031  10.378  18.003  0.00  0.00    +0.082 C 
ATOM     13  C   UNL     1      -9.880  11.654  17.192  0.00  0.00    +0.020 C 
ENDBRANCH   4  10
BRANCH   4  11
ATOM     11  C   UNL     1     -10.511   8.295  16.902  0.00  0.00    +0.082 C 
ATOM     14  C   UNL     1     -10.530   8.314  15.383  0.00  0.00    +0.020 C 
ENDBRANCH   4  11
ENDBRANCH   6   4
BRANCH   6   9
ATOM      9  C   UNL     1     -11.356   8.808  19.808  0.00  0.00    +0.085 C 
BRANCH   9  12
ATOM      2  O   UNL     1     -13.870   7.464  22.027  0.00  0.00    -0.357 OA
ATOM      5  N   UNL     1     -13.248   8.516  21.366  0.00  0.00    -0.083 NA
ATOM     12  C   UNL     1     -12.261   7.949  20.667  0.00  0.00    +0.086 A 
ATOM     15  C   UNL     1     -12.211   6.556  20.846  0.00  0.00    +0.073 A 
ATOM     16  C   UNL     1     -13.244   6.303  21.710  0.00  0.00    +0.163 A 
BRANCH  16  17
ATOM     17  C   UNL     1     -13.776   5.081  22.326  0.00  0.00    +0.236 C 
BRANCH  17   3
ATOM      3  O   UNL     1     -14.655   5.412  23.405  0.00  0.00    -0.375 OA
ATOM     18  C   UNL     1     -15.188   4.245  24.008  0.00  0.00    +0.194 C 
ENDBRANCH  17   3
ENDBRANCH  16  17
ENDBRANCH   9  12
ENDBRANCH   6   9
TORSDOF 7
ENDMDL
MODEL 6
REMARK VINA RESULT:      -4.2     20.812     24.447
REMARK  Name = 56775530
REMARK  10 active torsions:
REMARK  status: ('A' for Active; 'I' for Inactive)
REMARK    1  A    between atoms: O_3  and  C_17
REMARK    2  A    between atoms: O_3  and  C_18
REMARK    3  A    between atoms: N_4  and  C_6
REMARK    4  A    between atoms: N_4  and  C_10
REMARK    5  A    between atoms: N_4  and  C_11
REMARK    6  A    between atoms: C_6  and  C_9
REMARK    7  A    between atoms: C_9  and  C_12
REMARK    8  A    between atoms: C_10  and  C_13
REMARK    9  A    between atoms: C_11  and  C_14
REMARK   10  A    between atoms: C_16  and  C_17
REMARK                            x       y       z     vdW  Elec       q    Type
REMARK                         _______ _______ _______ _____ _____    ______ ____
ROOT
ATOM      1  O   UNL     1      -6.003 -10.119  14.367  0.00  0.00    -0.376 OA
ATOM      6  C   UNL     1      -4.389 -11.373  14.980  0.00  0.00    +0.074 C 
ATOM      7  C   UNL     1      -5.149 -10.173  15.533  0.00  0.00    +0.184 C 
ATOM      8  C   UNL     1      -5.387 -11.312  13.830  0.00  0.00    +0.184 C 
ENDROOT
BRANCH   6   4
ATOM      4  N   UNL     1      -3.074 -10.920  14.492  0.00  0.00    -0.293 NA
BRANCH   4  10
ATOM     10  C   UNL     1      -2.097 -11.029  15.575  0.00  0.00    +0.082 C 
ATOM     13  C   UNL     1      -1.055  -9.926  15.488  0.00  0.00    +0.020 C 
ENDBRANCH   4  10
BRANCH   4  11
ATOM     11  C   UNL     1      -2.675 -11.743  13.353  0.00  0.00    +0.082 C 
ATOM     14  C   UNL     1      -2.209 -10.884  12.191  0.00  0.00    +0.020 C 
ENDBRANCH   4  11
ENDBRANCH   6   4
BRANCH   6   9
ATOM      9  C   UNL     1      -4.306 -12.623  15.802  0.00  0.00    +0.085 C 
BRANCH   9  12
ATOM      2  O   UNL     1      -5.337 -11.914  19.192  0.00  0.00    -0.357 OA
ATOM      5  N   UNL     1      -4.395 -11.932  18.170  0.00  0.00    -0.083 NA
ATOM     12  C   UNL     1      -5.035 -12.452  17.118  0.00  0.00    +0.086 A 
ATOM     15  C   UNL     1      -6.369 -12.779  17.414  0.00  0.00    +0.073 A 
ATOM     16  C   UNL     1      -6.508 -12.421  18.729  0.00  0.00    +0.163 A 
BRANCH  16  17
ATOM     17  C   UNL     1      -7.621 -12.477  19.685  0.00  0.00    +0.236 C 
BRANCH  17   3
ATOM      3  O   UNL     1      -8.121 -11.162  19.941  0.00  0.00    -0.375 OA
ATOM     18  C   UNL     1      -9.520 -11.093  19.718  0.00  0.00    +0.194 C 
ENDBRANCH  17   3
ENDBRANCH  16  17
ENDBRANCH   9  12
ENDBRANCH   6   9
TORSDOF 7
ENDMDL
MODEL 7
REMARK VINA RESULT:      -4.2     21.341     24.837
REMARK  Name = 56775530
REMARK  10 active torsions:
REMARK  status: ('A' for Active; 'I' for Inactive)
REMARK    1  A    between atoms: O_3  and  C_17
REMARK    2  A    between atoms: O_3  and  C_18
REMARK    3  A    between atoms: N_4  and  C_6
REMARK    4  A    between atoms: N_4  and  C_10
REMARK    5  A    between atoms: N_4  and  C_11
REMARK    6  A    between atoms: C_6  and  C_9
REMARK    7  A    between atoms: C_9  and  C_12
REMARK    8  A    between atoms: C_10  and  C_13
REMARK    9  A    between atoms: C_11  and  C_14
REMARK   10  A    between atoms: C_16  and  C_17
REMARK                            x       y       z     vdW  Elec       q    Type
REMARK                         _______ _______ _______ _____ _____    ______ ____
ROOT
ATOM      1  O   UNL     1      -4.718 -13.709  14.339  0.00  0.00    -0.376 OA
ATOM      6  C   UNL     1      -4.011 -11.700  14.470  0.00  0.00    +0.074 C 
ATOM      7  C   UNL     1      -4.643 -12.599  13.414  0.00  0.00    +0.184 C 
ATOM      8  C   UNL     1      -4.211 -12.882  15.411  0.00  0.00    +0.184 C 
ENDROOT
BRANCH   6   4
ATOM      4  N   UNL     1      -2.573 -11.563  14.179  0.00  0.00    -0.293 NA
BRANCH   4  10
ATOM     10  C   UNL     1      -2.364 -10.388  13.333  0.00  0.00    +0.082 C 
ATOM     13  C   UNL     1      -1.865 -10.787  11.954  0.00  0.00    +0.020 C 
ENDBRANCH   4  10
BRANCH   4  11
ATOM     11  C   UNL     1      -1.840 -11.428  15.437  0.00  0.00    +0.082 C 
ATOM     14  C   UNL     1      -1.156 -10.075  15.530  0.00  0.00    +0.020 C 
ENDBRANCH   4  11
ENDBRANCH   6   4
BRANCH   6   9
ATOM      9  C   UNL     1      -4.666 -10.393  14.799  0.00  0.00    +0.085 C 
BRANCH   9  12
ATOM      2  O   UNL     1      -7.266 -10.758  17.282  0.00  0.00    -0.357 OA
ATOM      5  N   UNL     1      -6.820 -10.691  15.967  0.00  0.00    -0.083 NA
ATOM     12  C   UNL     1      -5.499 -10.510  16.059  0.00  0.00    +0.086 A 
ATOM     15  C   UNL     1      -5.060 -10.454  17.392  0.00  0.00    +0.073 A 
ATOM     16  C   UNL     1      -6.209 -10.615  18.120  0.00  0.00    +0.163 A 
BRANCH  16  17
ATOM     17  C   UNL     1      -6.501 -10.660  19.558  0.00  0.00    +0.236 C 
BRANCH  17   3
ATOM      3  O   UNL     1      -7.807 -11.200  19.781  0.00  0.00    -0.375 OA
ATOM     18  C   UNL     1      -7.759 -12.608  19.944  0.00  0.00    +0.194 C 
ENDBRANCH  17   3
ENDBRANCH  16  17
ENDBRANCH   9  12
ENDBRANCH   6   9
TORSDOF 7
ENDMDL
MODEL 8
REMARK VINA RESULT:      -4.2     36.377     38.419
REMARK  Name = 56775530
REMARK  10 active torsions:
REMARK  status: ('A' for Active; 'I' for Inactive)
REMARK    1  A    between atoms: O_3  and  C_17
REMARK    2  A    between atoms: O_3  and  C_18
REMARK    3  A    between atoms: N_4  and  C_6
REMARK    4  A    between atoms: N_4  and  C_10
REMARK    5  A    between atoms: N_4  and  C_11
REMARK    6  A    between atoms: C_6  and  C_9
REMARK    7  A    between atoms: C_9  and  C_12
REMARK    8  A    between atoms: C_10  and  C_13
REMARK    9  A    between atoms: C_11  and  C_14
REMARK   10  A    between atoms: C_16  and  C_17
REMARK                            x       y       z     vdW  Elec       q    Type
REMARK                         _______ _______ _______ _____ _____    ______ ____
ROOT
ATOM      1  O   UNL     1      12.760   7.733   2.426  0.00  0.00    -0.376 OA
ATOM      6  C   UNL     1      11.151   6.330   2.422  0.00  0.00    +0.074 C 
ATOM      7  C   UNL     1      12.417   6.581   3.233  0.00  0.00    +0.184 C 
ATOM      8  C   UNL     1      11.528   7.607   1.680  0.00  0.00    +0.184 C 
ENDROOT
BRANCH   6   4
ATOM      4  N   UNL     1      11.377   5.179   1.530  0.00  0.00    -0.293 NA
BRANCH   4  10
ATOM     10  C   UNL     1      11.762   4.019   2.334  0.00  0.00    +0.082 C 
ATOM     13  C   UNL     1      12.871   3.228   1.660  0.00  0.00    +0.020 C 
ENDBRANCH   4  10
BRANCH   4  11
ATOM     11  C   UNL     1      10.153   4.903   0.782  0.00  0.00    +0.082 C 
ATOM     14  C   UNL     1      10.414   4.893  -0.714  0.00  0.00    +0.020 C 
ENDBRANCH   4  11
ENDBRANCH   6   4
BRANCH   6   9
ATOM      9  C   UNL     1       9.833   6.267   3.132  0.00  0.00    +0.085 C 
BRANCH   9  12
ATOM      2  O   UNL     1      10.204   7.334   6.564  0.00  0.00    -0.357 OA
ATOM      5  N   UNL     1      10.009   7.586   5.211  0.00  0.00    -0.083 NA
ATOM     12  C   UNL     1      10.022   6.382   4.630  0.00  0.00    +0.086 A 
ATOM     15  C   UNL     1      10.221   5.345   5.556  0.00  0.00    +0.073 A 
ATOM     16  C   UNL     1      10.329   5.996   6.756  0.00  0.00    +0.163 A 
BRANCH  16  17
ATOM     17  C   UNL     1      10.543   5.550   8.138  0.00  0.00    +0.236 C 
BRANCH  17   3
ATOM      3  O   UNL     1       9.666   4.464   8.450  0.00  0.00    -0.375 OA
ATOM     18  C   UNL     1       9.195   4.553   9.785  0.00  0.00    +0.194 C 
ENDBRANCH  17   3
ENDBRANCH  16  17
ENDBRANCH   9  12
ENDBRANCH   6   9
TORSDOF 7
ENDMDL
MODEL 9
REMARK VINA RESULT:      -4.2     13.018     14.089
REMARK  Name = 56775530
REMARK  10 active torsions:
REMARK  status: ('A' for Active; 'I' for Inactive)
REMARK    1  A    between atoms: O_3  and  C_17
REMARK    2  A    between atoms: O_3  and  C_18
REMARK    3  A    between atoms: N_4  and  C_6
REMARK    4  A    between atoms: N_4  and  C_10
REMARK    5  A    between atoms: N_4  and  C_11
REMARK    6  A    between atoms: C_6  and  C_9
REMARK    7  A    between atoms: C_9  and  C_12
REMARK    8  A    between atoms: C_10  and  C_13
REMARK    9  A    between atoms: C_11  and  C_14
REMARK   10  A    between atoms: C_16  and  C_17
REMARK                            x       y       z     vdW  Elec       q    Type
REMARK                         _______ _______ _______ _____ _____    ______ ____
ROOT
ATOM      1  O   UNL     1     -10.513   8.097  17.094  0.00  0.00    -0.376 OA
ATOM      6  C   UNL     1     -11.340   9.396  18.572  0.00  0.00    +0.074 C 
ATOM      7  C   UNL     1     -11.786   8.174  17.778  0.00  0.00    +0.184 C 
ATOM      8  C   UNL     1      -9.996   9.192  17.883  0.00  0.00    +0.184 C 
ENDROOT
BRANCH   6   4
ATOM      4  N   UNL     1     -11.987  10.593  18.006  0.00  0.00    -0.293 NA
BRANCH   4  10
ATOM     10  C   UNL     1     -13.420  10.337  17.854  0.00  0.00    +0.082 C 
ATOM     13  C   UNL     1     -14.238  11.245  18.756  0.00  0.00    +0.020 C 
ENDBRANCH   4  10
BRANCH   4  11
ATOM     11  C   UNL     1     -11.759  11.728  18.898  0.00  0.00    +0.082 C 
ATOM     14  C   UNL     1     -10.884  12.779  18.236  0.00  0.00    +0.020 C 
ENDBRANCH   4  11
ENDBRANCH   6   4
BRANCH   6   9
ATOM      9  C   UNL     1     -11.401   9.353  20.068  0.00  0.00    +0.085 C 
BRANCH   9  12
ATOM      2  O   UNL     1     -12.487   6.120  21.261  0.00  0.00    -0.357 OA
ATOM      5  N   UNL     1     -11.503   7.024  20.880  0.00  0.00    -0.083 NA
ATOM     12  C   UNL     1     -12.166   8.134  20.541  0.00  0.00    +0.086 A 
ATOM     15  C   UNL     1     -13.556   7.990  20.686  0.00  0.00    +0.073 A 
ATOM     16  C   UNL     1     -13.705   6.707  21.141  0.00  0.00    +0.163 A 
BRANCH  16  17
ATOM     17  C   UNL     1     -14.867   5.887  21.505  0.00  0.00    +0.236 C 
BRANCH  17   3
ATOM      3  O   UNL     1     -14.440   4.671  22.125  0.00  0.00    -0.375 OA
ATOM     18  C   UNL     1     -14.842   4.620  23.485  0.00  0.00    +0.194 C 
ENDBRANCH  17   3
ENDBRANCH  16  17
ENDBRANCH   9  12
ENDBRANCH   6   9
TORSDOF 7
ENDMDL
MODEL 10
REMARK VINA RESULT:      -4.1     19.001     22.845
REMARK  Name = 56775530
REMARK  10 active torsions:
REMARK  status: ('A' for Active; 'I' for Inactive)
REMARK    1  A    between atoms: O_3  and  C_17
REMARK    2  A    between atoms: O_3  and  C_18
REMARK    3  A    between atoms: N_4  and  C_6
REMARK    4  A    between atoms: N_4  and  C_10
REMARK    5  A    between atoms: N_4  and  C_11
REMARK    6  A    between atoms: C_6  and  C_9
REMARK    7  A    between atoms: C_9  and  C_12
REMARK    8  A    between atoms: C_10  and  C_13
REMARK    9  A    between atoms: C_11  and  C_14
REMARK   10  A    between atoms: C_16  and  C_17
REMARK                            x       y       z     vdW  Elec       q    Type
REMARK                         _______ _______ _______ _____ _____    ______ ____
ROOT
ATOM      1  O   UNL     1      -5.493 -13.694  17.482  0.00  0.00    -0.376 OA
ATOM      6  C   UNL     1      -5.118 -11.604  17.273  0.00  0.00    +0.074 C 
ATOM      7  C   UNL     1      -6.198 -12.596  16.857  0.00  0.00    +0.184 C 
ATOM      8  C   UNL     1      -4.484 -12.791  17.988  0.00  0.00    +0.184 C 
ENDROOT
BRANCH   6   4
ATOM      4  N   UNL     1      -4.301 -11.268  16.093  0.00  0.00    -0.293 NA
BRANCH   4  10
ATOM     10  C   UNL     1      -5.020 -10.293  15.274  0.00  0.00    +0.082 C 
ATOM     13  C   UNL     1      -5.176 -10.786  13.845  0.00  0.00    +0.020 C 
ENDBRANCH   4  10
BRANCH   4  11
ATOM     11  C   UNL     1      -3.020 -10.723  16.537  0.00  0.00    +0.082 C 
ATOM     14  C   UNL     1      -1.924 -11.002  15.523  0.00  0.00    +0.020 C 
ENDBRANCH   4  11
ENDBRANCH   6   4
BRANCH   6   9
ATOM      9  C   UNL     1      -5.507 -10.399  18.075  0.00  0.00    +0.085 C 
BRANCH   9  12
ATOM      2  O   UNL     1      -8.507 -11.034  19.986  0.00  0.00    -0.357 OA
ATOM      5  N   UNL     1      -7.128 -11.054  19.818  0.00  0.00    -0.083 NA
ATOM     12  C   UNL     1      -6.920 -10.537  18.603  0.00  0.00    +0.086 A 
ATOM     15  C   UNL     1      -8.119 -10.177  17.964  0.00  0.00    +0.073 A 
ATOM     16  C   UNL     1      -9.085 -10.510  18.875  0.00  0.00    +0.163 A 
BRANCH  16  17
ATOM     17  C   UNL     1     -10.550 -10.415  18.882  0.00  0.00    +0.236 C 
BRANCH  17   3
ATOM      3  O   UNL     1     -11.028 -10.219  20.216  0.00  0.00    -0.375 OA
ATOM     18  C   UNL     1     -12.422  -9.958  20.228  0.00  0.00    +0.194 C 
ENDBRANCH  17   3
ENDBRANCH  16  17
ENDBRANCH   9  12
ENDBRANCH   6   9
TORSDOF 7
ENDMDL
