REMARK  Name = 40533450
REMARK  4 active torsions:
REMARK  status: ('A' for Active; 'I' for Inactive)
REMARK    1  A    between atoms: O_3  and  C_27
REMARK    2  A    between atoms: O_3  and  C_30
REMARK    3  A    between atoms: C_16  and  C_19
REMARK    4  A    between atoms: C_17  and  C_20
REMARK                            x       y       z     vdW  Elec       q    Type
REMARK                         _______ _______ _______ _____ _____    ______ ____
ROOT
ATOM      1  O   UNL     1       2.138   2.059   1.328  0.00  0.00    -0.267 OA
ATOM      2  O   UNL     1      -2.566   0.494   2.541  0.00  0.00    -0.270 OA
ATOM      4  N   UNL     1      -2.706   1.435   0.404  0.00  0.00    -0.297 N 
ATOM      5  N   UNL     1       0.327   2.130  -0.140  0.00  0.00    -0.311 N 
ATOM      7  C   UNL     1      -1.675   3.690   0.216  0.00  0.00    +0.027 C 
ATOM      8  C   UNL     1      -1.637   2.163  -1.716  0.00  0.00    +0.054 C 
ATOM      9  C   UNL     1      -1.818   3.623  -1.301  0.00  0.00    +0.018 C 
ATOM     10  C   UNL     1      -2.743   2.813   0.894  0.00  0.00    +0.113 C 
ATOM     11  C   UNL     1      -0.251   3.264   0.596  0.00  0.00    +0.130 C 
ATOM     12  C   UNL     1      -2.736   1.300  -1.062  0.00  0.00    +0.117 C 
ATOM     13  C   UNL     1      -0.273   1.643  -1.304  0.00  0.00    +0.027 A 
ATOM     14  C   UNL     1       0.334   0.690  -2.029  0.00  0.00    +0.022 A 
ATOM     15  C   UNL     1       1.560   1.634   0.326  0.00  0.00    +0.259 A 
ATOM     16  C   UNL     1      -2.592   0.383   1.316  0.00  0.00    +0.247 C 
ATOM     17  C   UNL     1       2.193   0.533  -0.481  0.00  0.00    +0.048 A 
ATOM     18  C   UNL     1       1.584   0.126  -1.605  0.00  0.00    +0.015 A 
ENDROOT
BRANCH  17  20
ATOM      6  N   UNL     1       5.756  -0.647  -0.518  0.00  0.00    -0.263 NA
ATOM     20  C   UNL     1       3.447  -0.105  -0.049  0.00  0.00    +0.005 A 
ATOM     23  C   UNL     1       3.538  -0.749   1.180  0.00  0.00    +0.011 A 
ATOM     24  C   UNL     1       4.575  -0.082  -0.854  0.00  0.00    +0.119 A 
ATOM     28  C   UNL     1       4.737  -1.342   1.561  0.00  0.00    +0.020 A 
ATOM     29  C   UNL     1       5.806  -1.264   0.684  0.00  0.00    +0.111 A 
ENDBRANCH  17  20
BRANCH  16  19
ATOM     19  C   UNL     1      -2.467  -0.979   0.786  0.00  0.00    +0.037 A 
ATOM     21  C   UNL     1      -1.206  -1.510   0.519  0.00  0.00    +0.016 A 
ATOM     22  C   UNL     1      -3.610  -1.743   0.550  0.00  0.00    +0.016 A 
ATOM     25  C   UNL     1      -1.086  -2.805   0.015  0.00  0.00    +0.046 A 
ATOM     26  C   UNL     1      -3.491  -3.038   0.046  0.00  0.00    +0.046 A 
ATOM     27  C   UNL     1      -2.229  -3.569  -0.222  0.00  0.00    +0.120 A 
BRANCH  27   3
ATOM      3  O   UNL     1      -2.114  -4.832  -0.714  0.00  0.00    -0.495 OA
ATOM     30  C   UNL     1      -0.793  -5.313  -0.965  0.00  0.00    +0.277 C 
ENDBRANCH  27   3
ENDBRANCH  16  19
TORSDOF 3
