MODEL 1
REMARK VINA RESULT:      -7.0      0.000      0.000
REMARK  Name = 45360668
REMARK  10 active torsions:
REMARK  status: ('A' for Active; 'I' for Inactive)
REMARK    1  A    between atoms: O_4  and  C_26
REMARK    2  A    between atoms: N_7  and  C_10
REMARK    3  A    between atoms: N_7  and  C_18
REMARK    4  A    between atoms: N_8  and  C_23
REMARK    5  A    between atoms: C_12  and  C_16
REMARK    6  A    between atoms: C_16  and  C_17
REMARK    7  A    between atoms: C_17  and  C_19
REMARK    8  A    between atoms: C_18  and  C_20
REMARK    9  A    between atoms: C_22  and  C_26
REMARK   10  A    between atoms: C_23  and  C_25
REMARK                            x       y       z     vdW  Elec       q    Type
REMARK                         _______ _______ _______ _____ _____    ______ ____
ROOT
ATOM      1  O   UNL     1      -7.423 -12.156  20.144  0.00  0.00    -0.274 OA
ATOM      5  N   UNL     1      -5.844 -10.576  17.257  0.00  0.00    -0.286 NA
ATOM      6  N   UNL     1      -5.852 -12.973  18.717  0.00  0.00    -0.313 N 
ATOM      9  C   UNL     1      -6.564 -10.593  18.536  0.00  0.00    +0.145 C 
ATOM     10  C   UNL     1      -7.928  -9.796  16.693  0.00  0.00    +0.070 C 
ATOM     11  C   UNL     1      -7.959 -10.045  18.201  0.00  0.00    +0.048 C 
ATOM     12  C   UNL     1      -4.665 -11.434  17.218  0.00  0.00    +0.075 C 
ATOM     13  C   UNL     1      -6.840 -10.740  16.200  0.00  0.00    +0.104 C 
ATOM     14  C   UNL     1      -5.035 -12.876  17.529  0.00  0.00    +0.123 C 
ATOM     15  C   UNL     1      -6.668 -11.971  19.184  0.00  0.00    +0.230 C 
ATOM     32  H   UNL     1      -5.915 -13.879  19.170  0.00  0.00    +0.149 HD
ENDROOT
BRANCH  10   7
ATOM      7  N   UNL     1      -9.216 -10.010  16.053  0.00  0.00    -0.305 NA
ATOM     33  H   UNL     1      -9.238 -10.949  15.653  0.00  0.00    +0.123 HD
BRANCH   7  18
ATOM     18  C   UNL     1      -9.439  -9.041  14.988  0.00  0.00    +0.156 C 
BRANCH  18  20
ATOM      2  O   UNL     1     -11.029  -7.266  14.515  0.00  0.00    -0.461 OA
ATOM     20  C   UNL     1     -10.258  -7.872  15.455  0.00  0.00    +0.119 A 
ATOM     21  C   UNL     1     -10.406  -7.253  16.674  0.00  0.00    +0.046 A 
ATOM     22  C   UNL     1     -11.678  -6.248  15.141  0.00  0.00    +0.131 A 
ATOM     24  C   UNL     1     -11.329  -6.199  16.471  0.00  0.00    +0.047 A 
BRANCH  22  26
ATOM     26  C   UNL     1     -12.582  -5.443  14.309  0.00  0.00    +0.230 C 
BRANCH  26   4
ATOM      4  O   UNL     1     -11.830  -4.552  13.481  0.00  0.00    -0.387 OA
ATOM     35  H   UNL     1     -11.184  -4.109  14.057  0.00  0.00    +0.210 HD
ENDBRANCH  26   4
ENDBRANCH  22  26
ENDBRANCH  18  20
ENDBRANCH   7  18
ENDBRANCH  10   7
BRANCH  12  16
ATOM     16  C   UNL     1      -3.903 -11.336  15.897  0.00  0.00    +0.029 C 
BRANCH  16  17
ATOM     17  C   UNL     1      -2.525 -10.723  16.101  0.00  0.00    +0.097 C 
BRANCH  17  19
ATOM      3  O   UNL     1      -0.986  -9.462  14.720  0.00  0.00    -0.276 OA
ATOM      8  N   UNL     1      -2.453 -10.951  13.708  0.00  0.00    -0.311 N 
ATOM     19  C   UNL     1      -1.888 -10.293  14.791  0.00  0.00    +0.213 C 
ATOM     34  H   UNL     1      -3.216 -11.604  13.852  0.00  0.00    +0.149 HD
BRANCH   8  23
ATOM     23  C   UNL     1      -2.020 -10.714  12.351  0.00  0.00    +0.139 C 
BRANCH  23  25
ATOM     25  C   UNL     1      -3.133 -10.190  11.490  0.00  0.00    -0.030 A 
ATOM     27  C   UNL     1      -4.457 -10.493  11.801  0.00  0.00    +0.005 A 
ATOM     28  C   UNL     1      -2.841  -9.399  10.379  0.00  0.00    +0.005 A 
ATOM     29  C   UNL     1      -5.491 -10.006  11.002  0.00  0.00    +0.000 A 
ATOM     30  C   UNL     1      -3.875  -8.912   9.579  0.00  0.00    +0.000 A 
ATOM     31  C   UNL     1      -5.200  -9.216   9.891  0.00  0.00    +0.000 A 
ENDBRANCH  23  25
ENDBRANCH   8  23
ENDBRANCH  17  19
ENDBRANCH  16  17
ENDBRANCH  12  16
TORSDOF 10
ENDMDL
MODEL 2
REMARK VINA RESULT:      -7.0      1.496      1.970
REMARK  Name = 45360668
REMARK  10 active torsions:
REMARK  status: ('A' for Active; 'I' for Inactive)
REMARK    1  A    between atoms: O_4  and  C_26
REMARK    2  A    between atoms: N_7  and  C_10
REMARK    3  A    between atoms: N_7  and  C_18
REMARK    4  A    between atoms: N_8  and  C_23
REMARK    5  A    between atoms: C_12  and  C_16
REMARK    6  A    between atoms: C_16  and  C_17
REMARK    7  A    between atoms: C_17  and  C_19
REMARK    8  A    between atoms: C_18  and  C_20
REMARK    9  A    between atoms: C_22  and  C_26
REMARK   10  A    between atoms: C_23  and  C_25
REMARK                            x       y       z     vdW  Elec       q    Type
REMARK                         _______ _______ _______ _____ _____    ______ ____
ROOT
ATOM      1  O   UNL     1      -7.090 -14.451  17.078  0.00  0.00    -0.274 OA
ATOM      5  N   UNL     1      -4.948 -11.570  17.741  0.00  0.00    -0.286 NA
ATOM      6  N   UNL     1      -5.636 -13.373  15.702  0.00  0.00    -0.313 N 
ATOM      9  C   UNL     1      -5.758 -12.739  18.107  0.00  0.00    +0.145 C 
ATOM     10  C   UNL     1      -6.738 -10.640  18.836  0.00  0.00    +0.070 C 
ATOM     11  C   UNL     1      -6.954 -12.153  18.873  0.00  0.00    +0.048 C 
ATOM     12  C   UNL     1      -4.001 -11.811  16.657  0.00  0.00    +0.075 C 
ATOM     13  C   UNL     1      -5.861 -10.437  17.608  0.00  0.00    +0.104 C 
ATOM     14  C   UNL     1      -4.721 -12.293  15.407  0.00  0.00    +0.123 C 
ATOM     15  C   UNL     1      -6.234 -13.575  16.923  0.00  0.00    +0.230 C 
ATOM     32  H   UNL     1      -5.946 -13.949  14.926  0.00  0.00    +0.149 HD
ENDROOT
BRANCH  10   7
ATOM      7  N   UNL     1      -7.981  -9.888  18.792  0.00  0.00    -0.305 NA
ATOM     33  H   UNL     1      -8.756 -10.510  19.023  0.00  0.00    +0.123 HD
BRANCH   7  18
ATOM     18  C   UNL     1      -8.208  -9.327  17.466  0.00  0.00    +0.156 C 
BRANCH  18  20
ATOM      2  O   UNL     1      -9.763  -7.571  16.831  0.00  0.00    -0.461 OA
ATOM     20  C   UNL     1      -9.618  -8.839  17.296  0.00  0.00    +0.119 A 
ATOM     21  C   UNL     1     -10.846  -9.417  17.517  0.00  0.00    +0.046 A 
ATOM     22  C   UNL     1     -11.100  -7.337  16.753  0.00  0.00    +0.131 A 
ATOM     24  C   UNL     1     -11.809  -8.442  17.163  0.00  0.00    +0.047 A 
BRANCH  22  26
ATOM     26  C   UNL     1     -11.499  -6.009  16.266  0.00  0.00    +0.230 C 
BRANCH  26   4
ATOM      4  O   UNL     1     -10.705  -5.637  15.137  0.00  0.00    -0.387 OA
ATOM     35  H   UNL     1     -11.144  -4.875  14.721  0.00  0.00    +0.210 HD
ENDBRANCH  26   4
ENDBRANCH  22  26
ENDBRANCH  18  20
ENDBRANCH   7  18
ENDBRANCH  10   7
BRANCH  12  16
ATOM     16  C   UNL     1      -3.127 -10.594  16.352  0.00  0.00    +0.029 C 
BRANCH  16  17
ATOM     17  C   UNL     1      -1.792 -11.013  15.752  0.00  0.00    +0.097 C 
BRANCH  17  19
ATOM      3  O   UNL     1      -0.942  -9.231  14.351  0.00  0.00    -0.276 OA
ATOM      8  N   UNL     1      -1.980 -11.054  13.355  0.00  0.00    -0.311 N 
ATOM     19  C   UNL     1      -1.512 -10.316  14.433  0.00  0.00    +0.213 C 
ATOM     34  H   UNL     1      -2.467 -11.930  13.513  0.00  0.00    +0.149 HD
BRANCH   8  23
ATOM     23  C   UNL     1      -1.836 -10.603  11.991  0.00  0.00    +0.139 C 
BRANCH  23  25
ATOM     25  C   UNL     1      -3.108 -10.010  11.458  0.00  0.00    -0.030 A 
ATOM     27  C   UNL     1      -4.295 -10.147  12.176  0.00  0.00    +0.005 A 
ATOM     28  C   UNL     1      -3.102  -9.322  10.245  0.00  0.00    +0.005 A 
ATOM     29  C   UNL     1      -5.477  -9.597  11.681  0.00  0.00    +0.000 A 
ATOM     30  C   UNL     1      -4.284  -8.771   9.749  0.00  0.00    +0.000 A 
ATOM     31  C   UNL     1      -5.472  -8.909  10.468  0.00  0.00    +0.000 A 
ENDBRANCH  23  25
ENDBRANCH   8  23
ENDBRANCH  17  19
ENDBRANCH  16  17
ENDBRANCH  12  16
TORSDOF 10
ENDMDL
MODEL 3
REMARK VINA RESULT:      -7.0     26.564     29.910
REMARK  Name = 45360668
REMARK  10 active torsions:
REMARK  status: ('A' for Active; 'I' for Inactive)
REMARK    1  A    between atoms: O_4  and  C_26
REMARK    2  A    between atoms: N_7  and  C_10
REMARK    3  A    between atoms: N_7  and  C_18
REMARK    4  A    between atoms: N_8  and  C_23
REMARK    5  A    between atoms: C_12  and  C_16
REMARK    6  A    between atoms: C_16  and  C_17
REMARK    7  A    between atoms: C_17  and  C_19
REMARK    8  A    between atoms: C_18  and  C_20
REMARK    9  A    between atoms: C_22  and  C_26
REMARK   10  A    between atoms: C_23  and  C_25
REMARK                            x       y       z     vdW  Elec       q    Type
REMARK                         _______ _______ _______ _____ _____    ______ ____
ROOT
ATOM      1  O   UNL     1      12.452  13.784  21.170  0.00  0.00    -0.274 OA
ATOM      5  N   UNL     1      13.848  11.134  19.084  0.00  0.00    -0.286 NA
ATOM      6  N   UNL     1      13.662  13.930  19.250  0.00  0.00    -0.313 N 
ATOM      9  C   UNL     1      12.930  11.699  20.080  0.00  0.00    +0.145 C 
ATOM     10  C   UNL     1      14.494  10.104  21.030  0.00  0.00    +0.070 C 
ATOM     11  C   UNL     1      13.313  11.005  21.396  0.00  0.00    +0.048 C 
ATOM     12  C   UNL     1      13.977  11.928  17.866  0.00  0.00    +0.075 C 
ATOM     13  C   UNL     1      15.074  10.765  19.788  0.00  0.00    +0.104 C 
ATOM     14  C   UNL     1      14.444  13.339  18.187  0.00  0.00    +0.123 C 
ATOM     15  C   UNL     1      13.012  13.216  20.227  0.00  0.00    +0.230 C 
ATOM     32  H   UNL     1      13.692  14.940  19.348  0.00  0.00    +0.149 HD
ENDROOT
BRANCH  10   7
ATOM      7  N   UNL     1      15.454   9.956  22.112  0.00  0.00    -0.305 NA
ATOM     33  H   UNL     1      15.316  10.710  22.786  0.00  0.00    +0.123 HD
BRANCH   7  18
ATOM     18  C   UNL     1      16.821  10.017  21.611  0.00  0.00    +0.156 C 
BRANCH  18  20
ATOM      2  O   UNL     1      18.552   8.381  22.090  0.00  0.00    -0.461 OA
ATOM     20  C   UNL     1      17.408   8.650  21.409  0.00  0.00    +0.119 A 
ATOM     21  C   UNL     1      17.027   7.564  20.656  0.00  0.00    +0.046 A 
ATOM     22  C   UNL     1      18.906   7.109  21.768  0.00  0.00    +0.131 A 
ATOM     24  C   UNL     1      18.000   6.563  20.889  0.00  0.00    +0.047 A 
BRANCH  22  26
ATOM     26  C   UNL     1      20.131   6.596  22.397  0.00  0.00    +0.230 C 
BRANCH  26   4
ATOM      4  O   UNL     1      19.891   6.296  23.774  0.00  0.00    -0.387 OA
ATOM     35  H   UNL     1      19.978   7.131  24.265  0.00  0.00    +0.210 HD
ENDBRANCH  26   4
ENDBRANCH  22  26
ENDBRANCH  18  20
ENDBRANCH   7  18
ENDBRANCH  10   7
BRANCH  12  16
ATOM     16  C   UNL     1      14.886  11.273  16.825  0.00  0.00    +0.029 C 
BRANCH  16  17
ATOM     17  C   UNL     1      14.081  10.753  15.643  0.00  0.00    +0.097 C 
BRANCH  17  19
ATOM      3  O   UNL     1      12.629   8.866  15.200  0.00  0.00    -0.276 OA
ATOM      8  N   UNL     1      14.024   8.807  17.054  0.00  0.00    -0.311 N 
ATOM     19  C   UNL     1      13.485   9.383  15.914  0.00  0.00    +0.213 C 
ATOM     34  H   UNL     1      14.709   9.315  17.605  0.00  0.00    +0.149 HD
BRANCH   8  23
ATOM     23  C   UNL     1      13.619   7.503  17.526  0.00  0.00    +0.139 C 
BRANCH  23  25
ATOM     25  C   UNL     1      12.827   7.587  18.799  0.00  0.00    -0.030 A 
ATOM     27  C   UNL     1      11.678   8.374  18.854  0.00  0.00    +0.005 A 
ATOM     28  C   UNL     1      13.241   6.877  19.925  0.00  0.00    +0.005 A 
ATOM     29  C   UNL     1      10.942   8.452  20.036  0.00  0.00    +0.000 A 
ATOM     30  C   UNL     1      12.505   6.955  21.108  0.00  0.00    +0.000 A 
ATOM     31  C   UNL     1      11.355   7.743  21.163  0.00  0.00    +0.000 A 
ENDBRANCH  23  25
ENDBRANCH   8  23
ENDBRANCH  17  19
ENDBRANCH  16  17
ENDBRANCH  12  16
TORSDOF 10
ENDMDL
MODEL 4
REMARK VINA RESULT:      -6.9     26.336     29.399
REMARK  Name = 45360668
REMARK  10 active torsions:
REMARK  status: ('A' for Active; 'I' for Inactive)
REMARK    1  A    between atoms: O_4  and  C_26
REMARK    2  A    between atoms: N_7  and  C_10
REMARK    3  A    between atoms: N_7  and  C_18
REMARK    4  A    between atoms: N_8  and  C_23
REMARK    5  A    between atoms: C_12  and  C_16
REMARK    6  A    between atoms: C_16  and  C_17
REMARK    7  A    between atoms: C_17  and  C_19
REMARK    8  A    between atoms: C_18  and  C_20
REMARK    9  A    between atoms: C_22  and  C_26
REMARK   10  A    between atoms: C_23  and  C_25
REMARK                            x       y       z     vdW  Elec       q    Type
REMARK                         _______ _______ _______ _____ _____    ______ ____
ROOT
ATOM      1  O   UNL     1      13.251  14.014  24.294  0.00  0.00    -0.274 OA
ATOM      5  N   UNL     1      12.782  10.625  23.021  0.00  0.00    -0.286 NA
ATOM      6  N   UNL     1      11.598  13.169  22.981  0.00  0.00    -0.313 N 
ATOM      9  C   UNL     1      13.314  11.640  23.938  0.00  0.00    +0.145 C 
ATOM     10  C   UNL     1      15.031  10.612  22.564  0.00  0.00    +0.070 C 
ATOM     11  C   UNL     1      14.829  11.636  23.681  0.00  0.00    +0.048 C 
ATOM     12  C   UNL     1      11.350  10.737  22.765  0.00  0.00    +0.075 C 
ATOM     13  C   UNL     1      13.678  10.574  21.868  0.00  0.00    +0.104 C 
ATOM     14  C   UNL     1      11.008  12.107  22.199  0.00  0.00    +0.123 C 
ATOM     15  C   UNL     1      12.738  13.039  23.737  0.00  0.00    +0.230 C 
ATOM     32  H   UNL     1      11.212  14.101  22.871  0.00  0.00    +0.149 HD
ENDROOT
BRANCH  10   7
ATOM      7  N   UNL     1      16.131  10.948  21.675  0.00  0.00    -0.305 NA
ATOM     33  H   UNL     1      16.036  11.920  21.378  0.00  0.00    +0.123 HD
BRANCH   7  18
ATOM     18  C   UNL     1      16.130  10.094  20.494  0.00  0.00    +0.156 C 
BRANCH  18  20
ATOM      2  O   UNL     1      17.979   8.782  21.369  0.00  0.00    -0.461 OA
ATOM     20  C   UNL     1      16.763   8.759  20.766  0.00  0.00    +0.119 A 
ATOM     21  C   UNL     1      16.365   7.464  20.527  0.00  0.00    +0.046 A 
ATOM     22  C   UNL     1      18.363   7.486  21.519  0.00  0.00    +0.131 A 
ATOM     24  C   UNL     1      17.404   6.637  21.017  0.00  0.00    +0.047 A 
BRANCH  22  26
ATOM     26  C   UNL     1      19.667   7.264  22.159  0.00  0.00    +0.230 C 
BRANCH  26   4
ATOM      4  O   UNL     1      19.530   6.361  23.259  0.00  0.00    -0.387 OA
ATOM     35  H   UNL     1      20.264   5.727  23.198  0.00  0.00    +0.210 HD
ENDBRANCH  26   4
ENDBRANCH  22  26
ENDBRANCH  18  20
ENDBRANCH   7  18
ENDBRANCH  10   7
BRANCH  12  16
ATOM     16  C   UNL     1      10.819   9.622  21.864  0.00  0.00    +0.029 C 
BRANCH  16  17
ATOM     17  C   UNL     1      11.008   8.257  22.509  0.00  0.00    +0.097 C 
BRANCH  17  19
ATOM      3  O   UNL     1      11.213   6.005  21.642  0.00  0.00    -0.276 OA
ATOM      8  N   UNL     1      12.130   7.767  20.439  0.00  0.00    -0.311 N 
ATOM     19  C   UNL     1      11.445   7.204  21.506  0.00  0.00    +0.213 C 
ATOM     34  H   UNL     1      12.304   8.767  20.418  0.00  0.00    +0.149 HD
BRANCH   8  23
ATOM     23  C   UNL     1      12.651   6.973  19.352  0.00  0.00    +0.139 C 
BRANCH  23  25
ATOM     25  C   UNL     1      12.775   7.768  18.084  0.00  0.00    -0.030 A 
ATOM     27  C   UNL     1      11.669   8.448  17.578  0.00  0.00    +0.005 A 
ATOM     28  C   UNL     1      13.996   7.826  17.414  0.00  0.00    +0.005 A 
ATOM     29  C   UNL     1      11.782   9.187  16.401  0.00  0.00    +0.000 A 
ATOM     30  C   UNL     1      14.111   8.565  16.236  0.00  0.00    +0.000 A 
ATOM     31  C   UNL     1      13.004   9.245  15.729  0.00  0.00    +0.000 A 
ENDBRANCH  23  25
ENDBRANCH   8  23
ENDBRANCH  17  19
ENDBRANCH  16  17
ENDBRANCH  12  16
TORSDOF 10
ENDMDL
MODEL 5
REMARK VINA RESULT:      -6.8     25.290     29.260
REMARK  Name = 45360668
REMARK  10 active torsions:
REMARK  status: ('A' for Active; 'I' for Inactive)
REMARK    1  A    between atoms: O_4  and  C_26
REMARK    2  A    between atoms: N_7  and  C_10
REMARK    3  A    between atoms: N_7  and  C_18
REMARK    4  A    between atoms: N_8  and  C_23
REMARK    5  A    between atoms: C_12  and  C_16
REMARK    6  A    between atoms: C_16  and  C_17
REMARK    7  A    between atoms: C_17  and  C_19
REMARK    8  A    between atoms: C_18  and  C_20
REMARK    9  A    between atoms: C_22  and  C_26
REMARK   10  A    between atoms: C_23  and  C_25
REMARK                            x       y       z     vdW  Elec       q    Type
REMARK                         _______ _______ _______ _____ _____    ______ ____
ROOT
ATOM      1  O   UNL     1      10.750   5.243   8.179  0.00  0.00    -0.274 OA
ATOM      5  N   UNL     1      11.978   7.837   5.924  0.00  0.00    -0.286 NA
ATOM      6  N   UNL     1      12.879   5.932   7.777  0.00  0.00    -0.313 N 
ATOM      9  C   UNL     1      10.972   7.160   6.751  0.00  0.00    +0.145 C 
ATOM     10  C   UNL     1      10.488   7.030   4.376  0.00  0.00    +0.070 C 
ATOM     11  C   UNL     1       9.937   6.633   5.745  0.00  0.00    +0.048 C 
ATOM     12  C   UNL     1      13.261   8.044   6.586  0.00  0.00    +0.075 C 
ATOM     13  C   UNL     1      11.983   7.173   4.622  0.00  0.00    +0.104 C 
ATOM     14  C   UNL     1      13.849   6.721   7.051  0.00  0.00    +0.123 C 
ATOM     15  C   UNL     1      11.519   6.022   7.607  0.00  0.00    +0.230 C 
ATOM     32  H   UNL     1      13.231   5.184   8.366  0.00  0.00    +0.149 HD
ENDROOT
BRANCH  10   7
ATOM      7  N   UNL     1      10.160   6.075   3.331  0.00  0.00    -0.305 NA
ATOM     33  H   UNL     1       9.157   5.885   3.354  0.00  0.00    +0.123 HD
BRANCH   7  18
ATOM     18  C   UNL     1      10.878   4.821   3.523  0.00  0.00    +0.156 C 
BRANCH  18  20
ATOM      2  O   UNL     1      12.953   4.285   2.377  0.00  0.00    -0.461 OA
ATOM     20  C   UNL     1      11.602   4.392   2.279  0.00  0.00    +0.119 A 
ATOM     21  C   UNL     1      11.182   4.070   1.010  0.00  0.00    +0.046 A 
ATOM     22  C   UNL     1      13.401   3.890   1.156  0.00  0.00    +0.131 A 
ATOM     24  C   UNL     1      12.351   3.743   0.280  0.00  0.00    +0.047 A 
BRANCH  22  26
ATOM     26  C   UNL     1      14.853   3.706   1.024  0.00  0.00    +0.230 C 
BRANCH  26   4
ATOM      4  O   UNL     1      15.399   3.195   2.243  0.00  0.00    -0.387 OA
ATOM     35  H   UNL     1      16.357   3.104   2.107  0.00  0.00    +0.210 HD
ENDBRANCH  26   4
ENDBRANCH  22  26
ENDBRANCH  18  20
ENDBRANCH   7  18
ENDBRANCH  10   7
BRANCH  12  16
ATOM     16  C   UNL     1      14.258   8.814   5.720  0.00  0.00    +0.029 C 
BRANCH  16  17
ATOM     17  C   UNL     1      15.566   8.047   5.574  0.00  0.00    +0.097 C 
BRANCH  17  19
ATOM      3  O   UNL     1      16.627  10.013   4.641  0.00  0.00    -0.276 OA
ATOM      8  N   UNL     1      17.399   7.912   4.023  0.00  0.00    -0.311 N 
ATOM     19  C   UNL     1      16.571   8.788   4.710  0.00  0.00    +0.213 C 
ATOM     34  H   UNL     1      17.266   6.910   4.116  0.00  0.00    +0.149 HD
BRANCH   8  23
ATOM     23  C   UNL     1      18.438   8.371   3.133  0.00  0.00    +0.139 C 
BRANCH  23  25
ATOM     25  C   UNL     1      19.767   7.750   3.453  0.00  0.00    -0.030 A 
ATOM     27  C   UNL     1      20.700   7.540   2.438  0.00  0.00    +0.005 A 
ATOM     28  C   UNL     1      20.068   7.384   4.764  0.00  0.00    +0.005 A 
ATOM     29  C   UNL     1      21.935   6.963   2.734  0.00  0.00    +0.000 A 
ATOM     30  C   UNL     1      21.304   6.806   5.061  0.00  0.00    +0.000 A 
ATOM     31  C   UNL     1      22.237   6.596   4.045  0.00  0.00    +0.000 A 
ENDBRANCH  23  25
ENDBRANCH   8  23
ENDBRANCH  17  19
ENDBRANCH  16  17
ENDBRANCH  12  16
TORSDOF 10
ENDMDL
MODEL 6
REMARK VINA RESULT:      -6.6     26.268     28.609
REMARK  Name = 45360668
REMARK  10 active torsions:
REMARK  status: ('A' for Active; 'I' for Inactive)
REMARK    1  A    between atoms: O_4  and  C_26
REMARK    2  A    between atoms: N_7  and  C_10
REMARK    3  A    between atoms: N_7  and  C_18
REMARK    4  A    between atoms: N_8  and  C_23
REMARK    5  A    between atoms: C_12  and  C_16
REMARK    6  A    between atoms: C_16  and  C_17
REMARK    7  A    between atoms: C_17  and  C_19
REMARK    8  A    between atoms: C_18  and  C_20
REMARK    9  A    between atoms: C_22  and  C_26
REMARK   10  A    between atoms: C_23  and  C_25
REMARK                            x       y       z     vdW  Elec       q    Type
REMARK                         _______ _______ _______ _____ _____    ______ ____
ROOT
ATOM      1  O   UNL     1      10.817   7.464  22.326  0.00  0.00    -0.274 OA
ATOM      5  N   UNL     1      12.965   9.553  20.241  0.00  0.00    -0.286 NA
ATOM      6  N   UNL     1      10.554   8.118  20.164  0.00  0.00    -0.313 N 
ATOM      9  C   UNL     1      12.664   8.663  21.369  0.00  0.00    +0.145 C 
ATOM     10  C   UNL     1      13.200  10.926  22.064  0.00  0.00    +0.070 C 
ATOM     11  C   UNL     1      12.844   9.545  22.614  0.00  0.00    +0.048 C 
ATOM     12  C   UNL     1      12.457   9.087  18.955  0.00  0.00    +0.075 C 
ATOM     13  C   UNL     1      12.618  10.910  20.658  0.00  0.00    +0.104 C 
ATOM     14  C   UNL     1      10.950   8.889  19.008  0.00  0.00    +0.123 C 
ATOM     15  C   UNL     1      11.266   8.053  21.338  0.00  0.00    +0.230 C 
ATOM     32  H   UNL     1       9.633   7.691  20.149  0.00  0.00    +0.149 HD
ENDROOT
BRANCH  10   7
ATOM      7  N   UNL     1      12.697  12.014  22.888  0.00  0.00    -0.305 NA
ATOM     33  H   UNL     1      13.191  12.012  23.781  0.00  0.00    +0.123 HD
BRANCH   7  18
ATOM     18  C   UNL     1      11.270  11.863  23.140  0.00  0.00    +0.156 C 
BRANCH  18  20
ATOM      2  O   UNL     1      10.241  13.579  21.762  0.00  0.00    -0.461 OA
ATOM     20  C   UNL     1      10.537  13.169  23.022  0.00  0.00    +0.119 A 
ATOM     21  C   UNL     1      10.083  14.079  23.947  0.00  0.00    +0.046 A 
ATOM     22  C   UNL     1       9.588  14.765  21.883  0.00  0.00    +0.131 A 
ATOM     24  C   UNL     1       9.465  15.117  23.208  0.00  0.00    +0.047 A 
BRANCH  22  26
ATOM     26  C   UNL     1       9.162  15.404  20.630  0.00  0.00    +0.230 C 
BRANCH  26   4
ATOM      4  O   UNL     1      10.213  15.343  19.662  0.00  0.00    -0.387 OA
ATOM     35  H   UNL     1       9.922  14.729  18.967  0.00  0.00    +0.210 HD
ENDBRANCH  26   4
ENDBRANCH  22  26
ENDBRANCH  18  20
ENDBRANCH   7  18
ENDBRANCH  10   7
BRANCH  12  16
ATOM     16  C   UNL     1      12.850  10.002  17.795  0.00  0.00    +0.029 C 
BRANCH  16  17
ATOM     17  C   UNL     1      14.069   9.463  17.058  0.00  0.00    +0.097 C 
BRANCH  17  19
ATOM      3  O   UNL     1      14.045   7.056  16.799  0.00  0.00    -0.276 OA
ATOM      8  N   UNL     1      15.119   7.983  18.636  0.00  0.00    -0.311 N 
ATOM     19  C   UNL     1      14.393   8.034  17.455  0.00  0.00    +0.213 C 
ATOM     34  H   UNL     1      15.342   8.840  19.133  0.00  0.00    +0.149 HD
BRANCH   8  23
ATOM     23  C   UNL     1      15.548   6.737  19.225  0.00  0.00    +0.139 C 
BRANCH  23  25
ATOM     25  C   UNL     1      16.855   6.878  19.951  0.00  0.00    -0.030 A 
ATOM     27  C   UNL     1      17.012   7.874  20.915  0.00  0.00    +0.005 A 
ATOM     28  C   UNL     1      17.910   6.014  19.664  0.00  0.00    +0.005 A 
ATOM     29  C   UNL     1      18.224   8.007  21.590  0.00  0.00    +0.000 A 
ATOM     30  C   UNL     1      19.124   6.146  20.339  0.00  0.00    +0.000 A 
ATOM     31  C   UNL     1      19.281   7.142  21.302  0.00  0.00    +0.000 A 
ENDBRANCH  23  25
ENDBRANCH   8  23
ENDBRANCH  17  19
ENDBRANCH  16  17
ENDBRANCH  12  16
TORSDOF 10
ENDMDL
MODEL 7
REMARK VINA RESULT:      -6.5     25.226     28.249
REMARK  Name = 45360668
REMARK  10 active torsions:
REMARK  status: ('A' for Active; 'I' for Inactive)
REMARK    1  A    between atoms: O_4  and  C_26
REMARK    2  A    between atoms: N_7  and  C_10
REMARK    3  A    between atoms: N_7  and  C_18
REMARK    4  A    between atoms: N_8  and  C_23
REMARK    5  A    between atoms: C_12  and  C_16
REMARK    6  A    between atoms: C_16  and  C_17
REMARK    7  A    between atoms: C_17  and  C_19
REMARK    8  A    between atoms: C_18  and  C_20
REMARK    9  A    between atoms: C_22  and  C_26
REMARK   10  A    between atoms: C_23  and  C_25
REMARK                            x       y       z     vdW  Elec       q    Type
REMARK                         _______ _______ _______ _____ _____    ______ ____
ROOT
ATOM      1  O   UNL     1      15.803   3.773  -0.376  0.00  0.00    -0.274 OA
ATOM      5  N   UNL     1      14.191   5.268   2.538  0.00  0.00    -0.286 NA
ATOM      6  N   UNL     1      15.888   5.910   0.398  0.00  0.00    -0.313 N 
ATOM      9  C   UNL     1      14.722   4.162   1.733  0.00  0.00    +0.145 C 
ATOM     10  C   UNL     1      12.304   4.105   1.944  0.00  0.00    +0.070 C 
ATOM     11  C   UNL     1      13.483   3.340   1.342  0.00  0.00    +0.048 C 
ATOM     12  C   UNL     1      15.094   6.406   2.666  0.00  0.00    +0.075 C 
ATOM     13  C   UNL     1      12.830   5.527   2.072  0.00  0.00    +0.104 C 
ATOM     14  C   UNL     1      15.465   6.958   1.298  0.00  0.00    +0.123 C 
ATOM     15  C   UNL     1      15.492   4.598   0.490  0.00  0.00    +0.230 C 
ATOM     32  H   UNL     1      16.418   6.184  -0.423  0.00  0.00    +0.149 HD
ENDROOT
BRANCH  10   7
ATOM      7  N   UNL     1      11.093   4.004   1.146  0.00  0.00    -0.305 NA
ATOM     33  H   UNL     1      10.946   3.028   0.883  0.00  0.00    +0.123 HD
BRANCH   7  18
ATOM     18  C   UNL     1      11.196   4.806  -0.066  0.00  0.00    +0.156 C 
BRANCH  18  20
ATOM      2  O   UNL     1      10.082   4.196  -2.138  0.00  0.00    -0.461 OA
ATOM     20  C   UNL     1      11.130   3.961  -1.307  0.00  0.00    +0.119 A 
ATOM     21  C   UNL     1      11.929   2.960  -1.806  0.00  0.00    +0.046 A 
ATOM     22  C   UNL     1      10.214   3.335  -3.182  0.00  0.00    +0.131 A 
ATOM     24  C   UNL     1      11.335   2.553  -3.025  0.00  0.00    +0.047 A 
BRANCH  22  26
ATOM     26  C   UNL     1       9.179   3.411  -4.222  0.00  0.00    +0.230 C 
BRANCH  26   4
ATOM      4  O   UNL     1       9.279   2.288  -5.101  0.00  0.00    -0.387 OA
ATOM     35  H   UNL     1       8.509   2.324  -5.695  0.00  0.00    +0.210 HD
ENDBRANCH  26   4
ENDBRANCH  22  26
ENDBRANCH  18  20
ENDBRANCH   7  18
ENDBRANCH  10   7
BRANCH  12  16
ATOM     16  C   UNL     1      14.537   7.507   3.569  0.00  0.00    +0.029 C 
BRANCH  16  17
ATOM     17  C   UNL     1      15.125   7.418   4.971  0.00  0.00    +0.097 C 
BRANCH  17  19
ATOM      3  O   UNL     1      13.982   8.710   6.670  0.00  0.00    -0.276 OA
ATOM      8  N   UNL     1      13.270   6.545   6.228  0.00  0.00    -0.311 N 
ATOM     19  C   UNL     1      14.080   7.657   6.047  0.00  0.00    +0.213 C 
ATOM     34  H   UNL     1      13.437   5.701   5.689  0.00  0.00    +0.149 HD
BRANCH   8  23
ATOM     23  C   UNL     1      12.200   6.521   7.197  0.00  0.00    +0.139 C 
BRANCH  23  25
ATOM     25  C   UNL     1      10.850   6.462   6.543  0.00  0.00    -0.030 A 
ATOM     27  C   UNL     1      10.701   5.830   5.309  0.00  0.00    +0.005 A 
ATOM     28  C   UNL     1       9.747   7.039   7.169  0.00  0.00    +0.005 A 
ATOM     29  C   UNL     1       9.447   5.775   4.701  0.00  0.00    +0.000 A 
ATOM     30  C   UNL     1       8.492   6.985   6.561  0.00  0.00    +0.000 A 
ATOM     31  C   UNL     1       8.342   6.353   5.326  0.00  0.00    +0.000 A 
ENDBRANCH  23  25
ENDBRANCH   8  23
ENDBRANCH  17  19
ENDBRANCH  16  17
ENDBRANCH  12  16
TORSDOF 10
ENDMDL
MODEL 8
REMARK VINA RESULT:      -6.4      1.805      2.514
REMARK  Name = 45360668
REMARK  10 active torsions:
REMARK  status: ('A' for Active; 'I' for Inactive)
REMARK    1  A    between atoms: O_4  and  C_26
REMARK    2  A    between atoms: N_7  and  C_10
REMARK    3  A    between atoms: N_7  and  C_18
REMARK    4  A    between atoms: N_8  and  C_23
REMARK    5  A    between atoms: C_12  and  C_16
REMARK    6  A    between atoms: C_16  and  C_17
REMARK    7  A    between atoms: C_17  and  C_19
REMARK    8  A    between atoms: C_18  and  C_20
REMARK    9  A    between atoms: C_22  and  C_26
REMARK   10  A    between atoms: C_23  and  C_25
REMARK                            x       y       z     vdW  Elec       q    Type
REMARK                         _______ _______ _______ _____ _____    ______ ____
ROOT
ATOM      1  O   UNL     1     -10.363 -12.420  18.869  0.00  0.00    -0.274 OA
ATOM      5  N   UNL     1      -8.135  -9.734  17.797  0.00  0.00    -0.286 NA
ATOM      6  N   UNL     1      -8.537 -12.498  17.516  0.00  0.00    -0.313 N 
ATOM      9  C   UNL     1      -9.122 -10.374  18.676  0.00  0.00    +0.145 C 
ATOM     10  C   UNL     1     -10.018  -8.460  17.480  0.00  0.00    +0.070 C 
ATOM     11  C   UNL     1     -10.392  -9.523  18.513  0.00  0.00    +0.048 C 
ATOM     12  C   UNL     1      -7.003 -10.584  17.447  0.00  0.00    +0.075 C 
ATOM     13  C   UNL     1      -8.875  -9.102  16.707  0.00  0.00    +0.104 C 
ATOM     14  C   UNL     1      -7.474 -11.863  16.772  0.00  0.00    +0.123 C 
ATOM     15  C   UNL     1      -9.408 -11.836  18.348  0.00  0.00    +0.230 C 
ATOM     32  H   UNL     1      -8.726 -13.476  17.321  0.00  0.00    +0.149 HD
ENDROOT
BRANCH  10   7
ATOM      7  N   UNL     1     -11.136  -8.062  16.641  0.00  0.00    -0.305 NA
ATOM     33  H   UNL     1     -11.281  -8.771  15.920  0.00  0.00    +0.123 HD
BRANCH   7  18
ATOM     18  C   UNL     1     -10.877  -6.782  15.994  0.00  0.00    +0.156 C 
BRANCH  18  20
ATOM      2  O   UNL     1     -11.702  -5.388  14.184  0.00  0.00    -0.461 OA
ATOM     20  C   UNL     1     -11.633  -6.640  14.705  0.00  0.00    +0.119 A 
ATOM     21  C   UNL     1     -12.301  -7.536  13.902  0.00  0.00    +0.046 A 
ATOM     22  C   UNL     1     -12.421  -5.484  13.034  0.00  0.00    +0.131 A 
ATOM     24  C   UNL     1     -12.812  -6.786  12.816  0.00  0.00    +0.047 A 
BRANCH  22  26
ATOM     26  C   UNL     1     -12.626  -4.235  12.288  0.00  0.00    +0.230 C 
BRANCH  26   4
ATOM      4  O   UNL     1     -11.997  -3.145  12.967  0.00  0.00    -0.387 OA
ATOM     35  H   UNL     1     -12.363  -3.124  13.868  0.00  0.00    +0.210 HD
ENDBRANCH  26   4
ENDBRANCH  22  26
ENDBRANCH  18  20
ENDBRANCH   7  18
ENDBRANCH  10   7
BRANCH  12  16
ATOM     16  C   UNL     1      -5.962  -9.863  16.590  0.00  0.00    +0.029 C 
BRANCH  16  17
ATOM     17  C   UNL     1      -4.550 -10.295  16.960  0.00  0.00    +0.097 C 
BRANCH  17  19
ATOM      3  O   UNL     1      -4.159 -12.297  15.655  0.00  0.00    -0.276 OA
ATOM      8  N   UNL     1      -2.977 -10.366  15.142  0.00  0.00    -0.311 N 
ATOM     19  C   UNL     1      -3.896 -11.115  15.863  0.00  0.00    +0.213 C 
ATOM     34  H   UNL     1      -2.798  -9.400  15.398  0.00  0.00    +0.149 HD
BRANCH   8  23
ATOM     23  C   UNL     1      -2.220 -10.921  14.045  0.00  0.00    +0.139 C 
BRANCH  23  25
ATOM     25  C   UNL     1      -2.656 -10.361  12.722  0.00  0.00    -0.030 A 
ATOM     27  C   UNL     1      -4.009 -10.340  12.386  0.00  0.00    +0.005 A 
ATOM     28  C   UNL     1      -1.707  -9.863  11.829  0.00  0.00    +0.005 A 
ATOM     29  C   UNL     1      -4.414  -9.820  11.157  0.00  0.00    +0.000 A 
ATOM     30  C   UNL     1      -2.113  -9.343  10.599  0.00  0.00    +0.000 A 
ATOM     31  C   UNL     1      -3.466  -9.322  10.263  0.00  0.00    +0.000 A 
ENDBRANCH  23  25
ENDBRANCH   8  23
ENDBRANCH  17  19
ENDBRANCH  16  17
ENDBRANCH  12  16
TORSDOF 10
ENDMDL
MODEL 9
REMARK VINA RESULT:      -6.3      3.612      6.866
REMARK  Name = 45360668
REMARK  10 active torsions:
REMARK  status: ('A' for Active; 'I' for Inactive)
REMARK    1  A    between atoms: O_4  and  C_26
REMARK    2  A    between atoms: N_7  and  C_10
REMARK    3  A    between atoms: N_7  and  C_18
REMARK    4  A    between atoms: N_8  and  C_23
REMARK    5  A    between atoms: C_12  and  C_16
REMARK    6  A    between atoms: C_16  and  C_17
REMARK    7  A    between atoms: C_17  and  C_19
REMARK    8  A    between atoms: C_18  and  C_20
REMARK    9  A    between atoms: C_22  and  C_26
REMARK   10  A    between atoms: C_23  and  C_25
REMARK                            x       y       z     vdW  Elec       q    Type
REMARK                         _______ _______ _______ _____ _____    ______ ____
ROOT
ATOM      1  O   UNL     1      -7.427 -11.051  14.380  0.00  0.00    -0.274 OA
ATOM      5  N   UNL     1      -4.381 -11.408  12.401  0.00  0.00    -0.286 NA
ATOM      6  N   UNL     1      -6.510  -9.637  12.854  0.00  0.00    -0.313 N 
ATOM      9  C   UNL     1      -5.514 -11.893  13.198  0.00  0.00    +0.145 C 
ATOM     10  C   UNL     1      -3.376 -12.200  14.307  0.00  0.00    +0.070 C 
ATOM     11  C   UNL     1      -4.874 -12.462  14.474  0.00  0.00    +0.048 C 
ATOM     12  C   UNL     1      -4.742 -10.453  11.360  0.00  0.00    +0.075 C 
ATOM     13  C   UNL     1      -3.327 -11.027  13.339  0.00  0.00    +0.104 C 
ATOM     14  C   UNL     1      -5.448  -9.244  11.956  0.00  0.00    +0.123 C 
ATOM     15  C   UNL     1      -6.547 -10.824  13.544  0.00  0.00    +0.230 C 
ATOM     32  H   UNL     1      -7.214  -8.941  13.079  0.00  0.00    +0.149 HD
ENDROOT
BRANCH  10   7
ATOM      7  N   UNL     1      -2.700 -11.942  15.567  0.00  0.00    -0.305 NA
ATOM     33  H   UNL     1      -2.858 -12.728  16.199  0.00  0.00    +0.123 HD
BRANCH   7  18
ATOM     18  C   UNL     1      -3.206 -10.728  16.194  0.00  0.00    +0.156 C 
BRANCH  18  20
ATOM      2  O   UNL     1      -5.363 -10.522  17.295  0.00  0.00    -0.461 OA
ATOM     20  C   UNL     1      -4.104 -11.030  17.360  0.00  0.00    +0.119 A 
ATOM     21  C   UNL     1      -3.926 -11.735  18.527  0.00  0.00    +0.046 A 
ATOM     22  C   UNL     1      -5.997 -10.909  18.433  0.00  0.00    +0.131 A 
ATOM     24  C   UNL     1      -5.156 -11.657  19.224  0.00  0.00    +0.047 A 
BRANCH  22  26
ATOM     26  C   UNL     1      -7.391 -10.469  18.583  0.00  0.00    +0.230 C 
BRANCH  26   4
ATOM      4  O   UNL     1      -7.742 -10.400  19.967  0.00  0.00    -0.387 OA
ATOM     35  H   UNL     1      -7.909  -9.464  20.170  0.00  0.00    +0.210 HD
ENDBRANCH  26   4
ENDBRANCH  22  26
ENDBRANCH  18  20
ENDBRANCH   7  18
ENDBRANCH  10   7
BRANCH  12  16
ATOM     16  C   UNL     1      -3.548 -10.025  10.506  0.00  0.00    +0.029 C 
BRANCH  16  17
ATOM     17  C   UNL     1      -3.951  -8.966   9.490  0.00  0.00    +0.097 C 
BRANCH  17  19
ATOM      3  O   UNL     1      -4.717 -10.544   7.821  0.00  0.00    -0.276 OA
ATOM      8  N   UNL     1      -6.023  -8.687   8.302  0.00  0.00    -0.311 N 
ATOM     19  C   UNL     1      -4.914  -9.507   8.448  0.00  0.00    +0.213 C 
ATOM     34  H   UNL     1      -6.095  -7.829   8.841  0.00  0.00    +0.149 HD
BRANCH   8  23
ATOM     23  C   UNL     1      -7.085  -8.984   7.370  0.00  0.00    +0.139 C 
BRANCH  23  25
ATOM     25  C   UNL     1      -8.189  -7.969   7.433  0.00  0.00    -0.030 A 
ATOM     27  C   UNL     1      -8.050  -6.836   8.234  0.00  0.00    +0.005 A 
ATOM     28  C   UNL     1      -9.354  -8.159   6.691  0.00  0.00    +0.005 A 
ATOM     29  C   UNL     1      -9.074  -5.892   8.293  0.00  0.00    +0.000 A 
ATOM     30  C   UNL     1     -10.380  -7.214   6.750  0.00  0.00    +0.000 A 
ATOM     31  C   UNL     1     -10.240  -6.082   7.551  0.00  0.00    +0.000 A 
ENDBRANCH  23  25
ENDBRANCH   8  23
ENDBRANCH  17  19
ENDBRANCH  16  17
ENDBRANCH  12  16
TORSDOF 10
ENDMDL
MODEL 10
REMARK VINA RESULT:      -6.3      3.481      6.693
REMARK  Name = 45360668
REMARK  10 active torsions:
REMARK  status: ('A' for Active; 'I' for Inactive)
REMARK    1  A    between atoms: O_4  and  C_26
REMARK    2  A    between atoms: N_7  and  C_10
REMARK    3  A    between atoms: N_7  and  C_18
REMARK    4  A    between atoms: N_8  and  C_23
REMARK    5  A    between atoms: C_12  and  C_16
REMARK    6  A    between atoms: C_16  and  C_17
REMARK    7  A    between atoms: C_17  and  C_19
REMARK    8  A    between atoms: C_18  and  C_20
REMARK    9  A    between atoms: C_22  and  C_26
REMARK   10  A    between atoms: C_23  and  C_25
REMARK                            x       y       z     vdW  Elec       q    Type
REMARK                         _______ _______ _______ _____ _____    ______ ____
ROOT
ATOM      1  O   UNL     1      -2.288 -14.495  13.415  0.00  0.00    -0.274 OA
ATOM      5  N   UNL     1      -2.104 -10.945  12.587  0.00  0.00    -0.286 NA
ATOM      6  N   UNL     1      -3.412 -13.310  11.833  0.00  0.00    -0.313 N 
ATOM      9  C   UNL     1      -1.609 -12.207  13.149  0.00  0.00    +0.145 C 
ATOM     10  C   UNL     1      -2.093 -10.540  14.846  0.00  0.00    +0.070 C 
ATOM     11  C   UNL     1      -1.558 -11.961  14.665  0.00  0.00    +0.048 C 
ATOM     12  C   UNL     1      -2.642 -11.058  11.236  0.00  0.00    +0.075 C 
ATOM     13  C   UNL     1      -2.946 -10.320  13.605  0.00  0.00    +0.104 C 
ATOM     14  C   UNL     1      -3.777 -12.069  11.188  0.00  0.00    +0.123 C 
ATOM     15  C   UNL     1      -2.474 -13.423  12.830  0.00  0.00    +0.230 C 
ATOM     32  H   UNL     1      -3.967 -14.132  11.615  0.00  0.00    +0.149 HD
ENDROOT
BRANCH  10   7
ATOM      7  N   UNL     1      -2.821 -10.359  16.091  0.00  0.00    -0.305 NA
ATOM     33  H   UNL     1      -2.165 -10.403  16.871  0.00  0.00    +0.123 HD
BRANCH   7  18
ATOM     18  C   UNL     1      -3.826 -11.400  16.265  0.00  0.00    +0.156 C 
BRANCH  18  20
ATOM      2  O   UNL     1      -5.939 -10.255  16.628  0.00  0.00    -0.461 OA
ATOM     20  C   UNL     1      -4.928 -10.969  17.190  0.00  0.00    +0.119 A 
ATOM     21  C   UNL     1      -5.149 -11.142  18.536  0.00  0.00    +0.046 A 
ATOM     22  C   UNL     1      -6.816  -9.971  17.627  0.00  0.00    +0.131 A 
ATOM     24  C   UNL     1      -6.376 -10.495  18.820  0.00  0.00    +0.047 A 
BRANCH  22  26
ATOM     26  C   UNL     1      -8.005  -9.197  17.247  0.00  0.00    +0.230 C 
BRANCH  26   4
ATOM      4  O   UNL     1      -8.008  -8.954  15.838  0.00  0.00    -0.387 OA
ATOM     35  H   UNL     1      -8.159  -8.001  15.715  0.00  0.00    +0.210 HD
ENDBRANCH  26   4
ENDBRANCH  22  26
ENDBRANCH  18  20
ENDBRANCH   7  18
ENDBRANCH  10   7
BRANCH  12  16
ATOM     16  C   UNL     1      -3.082  -9.713  10.657  0.00  0.00    +0.029 C 
BRANCH  16  17
ATOM     17  C   UNL     1      -4.004  -9.904   9.462  0.00  0.00    +0.097 C 
BRANCH  17  19
ATOM      3  O   UNL     1      -5.268  -8.005  10.274  0.00  0.00    -0.276 OA
ATOM      8  N   UNL     1      -6.115  -9.252   8.509  0.00  0.00    -0.311 N 
ATOM     19  C   UNL     1      -5.177  -8.939   9.483  0.00  0.00    +0.213 C 
ATOM     34  H   UNL     1      -5.976 -10.062   7.912  0.00  0.00    +0.149 HD
BRANCH   8  23
ATOM     23  C   UNL     1      -7.323  -8.484   8.327  0.00  0.00    +0.139 C 
BRANCH  23  25
ATOM     25  C   UNL     1      -7.689  -8.347   6.877  0.00  0.00    -0.030 A 
ATOM     27  C   UNL     1      -8.698  -7.464   6.494  0.00  0.00    +0.005 A 
ATOM     28  C   UNL     1      -7.020  -9.101   5.915  0.00  0.00    +0.005 A 
ATOM     29  C   UNL     1      -9.039  -7.335   5.148  0.00  0.00    +0.000 A 
ATOM     30  C   UNL     1      -7.360  -8.973   4.568  0.00  0.00    +0.000 A 
ATOM     31  C   UNL     1      -8.370  -8.090   4.185  0.00  0.00    +0.000 A 
ENDBRANCH  23  25
ENDBRANCH   8  23
ENDBRANCH  17  19
ENDBRANCH  16  17
ENDBRANCH  12  16
TORSDOF 10
ENDMDL
