MODEL 1
REMARK VINA RESULT:      -7.3      0.000      0.000
REMARK  Name = 26743626
REMARK  6 active torsions:
REMARK  status: ('A' for Active; 'I' for Inactive)
REMARK    1  A    between atoms: O_4  and  C_12
REMARK    2  A    between atoms: N_6  and  C_14
REMARK    3  A    between atoms: C_10  and  C_15
REMARK    4  A    between atoms: C_14  and  C_16
REMARK    5  A    between atoms: C_20  and  C_23
REMARK    6  A    between atoms: C_30  and  C_31
REMARK                            x       y       z     vdW  Elec       q    Type
REMARK                         _______ _______ _______ _____ _____    ______ ____
ROOT
ATOM      6  N   UNL     1      -4.765  -9.878   9.792  0.00  0.00    -0.285 NA
ATOM     10  C   UNL     1      -5.534  -8.779  10.412  0.00  0.00    +0.149 C 
ATOM     11  C   UNL     1      -6.614  -8.420   9.376  0.00  0.00    +0.061 C 
ATOM     12  C   UNL     1      -6.344  -9.337   8.190  0.00  0.00    +0.130 C 
ATOM     13  C   UNL     1      -4.878  -9.696   8.346  0.00  0.00    +0.116 C 
ENDROOT
BRANCH  10  15
ATOM      5  O   UNL     1      -7.470  -9.252  11.827  0.00  0.00    -0.336 OA
ATOM      7  N   UNL     1      -5.502  -9.424  12.882  0.00  0.00    -0.190 NA
ATOM      9  N   UNL     1      -7.767  -9.613  13.148  0.00  0.00    -0.056 NA
ATOM     15  C   UNL     1      -6.116  -9.162  11.757  0.00  0.00    +0.245 A 
ATOM     20  C   UNL     1      -6.555  -9.695  13.706  0.00  0.00    +0.202 A 
BRANCH  20  23
ATOM     23  C   UNL     1      -6.363 -10.046  15.084  0.00  0.00    +0.022 A 
ATOM     26  C   UNL     1      -7.456 -10.090  15.951  0.00  0.00    +0.012 A 
ATOM     27  C   UNL     1      -5.085 -10.346  15.556  0.00  0.00    +0.012 A 
ATOM     28  C   UNL     1      -7.268 -10.433  17.290  0.00  0.00    +0.013 A 
ATOM     29  C   UNL     1      -4.899 -10.688  16.895  0.00  0.00    +0.013 A 
ATOM     30  C   UNL     1      -5.991 -10.732  17.762  0.00  0.00    +0.055 A 
BRANCH  30  31
ATOM      1  F   UNL     1      -6.515 -12.188  19.586  0.00  0.00    -0.166 F 
ATOM      2  F   UNL     1      -6.151 -10.095  20.047  0.00  0.00    -0.166 F 
ATOM      3  F   UNL     1      -4.496 -11.399  19.506  0.00  0.00    -0.166 F 
ATOM     31  C   UNL     1      -5.791 -11.098  19.194  0.00  0.00    +0.417 C 
ENDBRANCH  30  31
ENDBRANCH  20  23
ENDBRANCH  10  15
BRANCH  12   4
ATOM      4  O   UNL     1      -6.593  -8.667   6.970  0.00  0.00    -0.390 OA
ATOM     32  H   UNL     1      -6.274  -9.239   6.251  0.00  0.00    +0.210 HD
ENDBRANCH  12   4
BRANCH   6  14
ATOM     14  C   UNL     1      -3.377  -9.927  10.232  0.00  0.00    +0.122 C 
BRANCH  14  16
ATOM      8  N   UNL     1      -2.990 -13.216  11.838  0.00  0.00    -0.360 N 
ATOM     16  C   UNL     1      -3.108 -11.123  11.106  0.00  0.00    -0.008 A 
ATOM     17  C   UNL     1      -2.534 -11.107  12.408  0.00  0.00    +0.004 A 
ATOM     18  C   UNL     1      -3.377 -12.433  10.783  0.00  0.00    +0.088 A 
ATOM     19  C   UNL     1      -2.471 -12.432  12.844  0.00  0.00    +0.047 A 
ATOM     21  C   UNL     1      -2.061 -10.090  13.260  0.00  0.00    +0.010 A 
ATOM     22  C   UNL     1      -1.956 -12.793  14.095  0.00  0.00    +0.026 A 
ATOM     24  C   UNL     1      -1.543 -10.435  14.514  0.00  0.00    +0.001 A 
ATOM     25  C   UNL     1      -1.493 -11.766  14.923  0.00  0.00    +0.002 A 
ATOM     33  H   UNL     1      -3.071 -14.222  11.872  0.00  0.00    +0.165 HD
ENDBRANCH  14  16
ENDBRANCH   6  14
TORSDOF 6
ENDMDL
MODEL 2
REMARK VINA RESULT:      -7.1      3.864      6.221
REMARK  Name = 26743626
REMARK  6 active torsions:
REMARK  status: ('A' for Active; 'I' for Inactive)
REMARK    1  A    between atoms: O_4  and  C_12
REMARK    2  A    between atoms: N_6  and  C_14
REMARK    3  A    between atoms: C_10  and  C_15
REMARK    4  A    between atoms: C_14  and  C_16
REMARK    5  A    between atoms: C_20  and  C_23
REMARK    6  A    between atoms: C_30  and  C_31
REMARK                            x       y       z     vdW  Elec       q    Type
REMARK                         _______ _______ _______ _____ _____    ______ ____
ROOT
ATOM      6  N   UNL     1      -4.574 -10.850  15.031  0.00  0.00    -0.285 NA
ATOM     10  C   UNL     1      -5.056 -11.382  16.323  0.00  0.00    +0.149 C 
ATOM     11  C   UNL     1      -3.871 -11.204  17.289  0.00  0.00    +0.061 C 
ATOM     12  C   UNL     1      -2.755 -10.608  16.440  0.00  0.00    +0.130 C 
ATOM     13  C   UNL     1      -3.123 -11.025  15.028  0.00  0.00    +0.116 C 
ENDROOT
BRANCH  10  15
ATOM      5  O   UNL     1      -6.453  -9.382  16.465  0.00  0.00    -0.336 OA
ATOM      7  N   UNL     1      -7.306 -11.170  17.510  0.00  0.00    -0.190 NA
ATOM      9  N   UNL     1      -7.673  -8.966  17.014  0.00  0.00    -0.056 NA
ATOM     15  C   UNL     1      -6.314 -10.690  16.804  0.00  0.00    +0.245 A 
ATOM     20  C   UNL     1      -8.115 -10.076  17.614  0.00  0.00    +0.202 A 
BRANCH  20  23
ATOM     23  C   UNL     1      -9.362 -10.125  18.323  0.00  0.00    +0.022 A 
ATOM     26  C   UNL     1      -9.486 -10.923  19.460  0.00  0.00    +0.012 A 
ATOM     27  C   UNL     1     -10.448  -9.373  17.875  0.00  0.00    +0.012 A 
ATOM     28  C   UNL     1     -10.698 -10.969  20.150  0.00  0.00    +0.013 A 
ATOM     29  C   UNL     1     -11.660  -9.420  18.565  0.00  0.00    +0.013 A 
ATOM     30  C   UNL     1     -11.784 -10.219  19.702  0.00  0.00    +0.055 A 
BRANCH  30  31
ATOM      1  F   UNL     1     -13.062 -11.103  21.521  0.00  0.00    -0.166 F 
ATOM      2  F   UNL     1     -14.111 -10.704  19.659  0.00  0.00    -0.166 F 
ATOM      3  F   UNL     1     -13.477  -9.058  20.931  0.00  0.00    -0.166 F 
ATOM     31  C   UNL     1     -13.080 -10.269  20.440  0.00  0.00    +0.417 C 
ENDBRANCH  30  31
ENDBRANCH  20  23
ENDBRANCH  10  15
BRANCH  12   4
ATOM      4  O   UNL     1      -1.497 -11.124  16.829  0.00  0.00    -0.390 OA
ATOM     32  H   UNL     1      -0.813 -10.579  16.404  0.00  0.00    +0.210 HD
ENDBRANCH  12   4
BRANCH   6  14
ATOM     14  C   UNL     1      -5.204 -11.481  13.879  0.00  0.00    +0.122 C 
BRANCH  14  16
ATOM      8  N   UNL     1      -6.936  -8.986  11.801  0.00  0.00    -0.360 N 
ATOM     16  C   UNL     1      -5.674 -10.466  12.871  0.00  0.00    -0.008 A 
ATOM     17  C   UNL     1      -4.947  -9.995  11.743  0.00  0.00    +0.004 A 
ATOM     18  C   UNL     1      -6.893  -9.828  12.881  0.00  0.00    +0.088 A 
ATOM     19  C   UNL     1      -5.760  -9.067  11.089  0.00  0.00    +0.047 A 
ATOM     21  C   UNL     1      -3.670 -10.268  11.214  0.00  0.00    +0.010 A 
ATOM     22  C   UNL     1      -5.360  -8.397   9.927  0.00  0.00    +0.026 A 
ATOM     24  C   UNL     1      -3.256  -9.606  10.052  0.00  0.00    +0.001 A 
ATOM     25  C   UNL     1      -4.089  -8.686   9.421  0.00  0.00    +0.002 A 
ATOM     33  H   UNL     1      -7.716  -8.390  11.563  0.00  0.00    +0.165 HD
ENDBRANCH  14  16
ENDBRANCH   6  14
TORSDOF 6
ENDMDL
MODEL 3
REMARK VINA RESULT:      -7.0      4.263      6.435
REMARK  Name = 26743626
REMARK  6 active torsions:
REMARK  status: ('A' for Active; 'I' for Inactive)
REMARK    1  A    between atoms: O_4  and  C_12
REMARK    2  A    between atoms: N_6  and  C_14
REMARK    3  A    between atoms: C_10  and  C_15
REMARK    4  A    between atoms: C_14  and  C_16
REMARK    5  A    between atoms: C_20  and  C_23
REMARK    6  A    between atoms: C_30  and  C_31
REMARK                            x       y       z     vdW  Elec       q    Type
REMARK                         _______ _______ _______ _____ _____    ______ ____
ROOT
ATOM      6  N   UNL     1      -4.428 -11.015  14.901  0.00  0.00    -0.285 NA
ATOM     10  C   UNL     1      -4.917 -11.368  16.250  0.00  0.00    +0.149 C 
ATOM     11  C   UNL     1      -3.738 -11.059  17.190  0.00  0.00    +0.061 C 
ATOM     12  C   UNL     1      -2.617 -10.582  16.275  0.00  0.00    +0.130 C 
ATOM     13  C   UNL     1      -2.977 -11.187  14.931  0.00  0.00    +0.116 C 
ENDROOT
BRANCH  10  15
ATOM      5  O   UNL     1      -6.476 -10.562  17.951  0.00  0.00    -0.336 OA
ATOM      7  N   UNL     1      -7.041 -10.008  15.856  0.00  0.00    -0.190 NA
ATOM      9  N   UNL     1      -7.667  -9.831  18.049  0.00  0.00    -0.056 NA
ATOM     15  C   UNL     1      -6.179 -10.619  16.626  0.00  0.00    +0.245 A 
ATOM     20  C   UNL     1      -7.937  -9.540  16.773  0.00  0.00    +0.202 A 
BRANCH  20  23
ATOM     23  C   UNL     1      -9.091  -8.782  16.381  0.00  0.00    +0.022 A 
ATOM     26  C   UNL     1      -9.606  -8.913  15.091  0.00  0.00    +0.012 A 
ATOM     27  C   UNL     1      -9.697  -7.916  17.291  0.00  0.00    +0.012 A 
ATOM     28  C   UNL     1     -10.728  -8.177  14.712  0.00  0.00    +0.013 A 
ATOM     29  C   UNL     1     -10.820  -7.180  16.911  0.00  0.00    +0.013 A 
ATOM     30  C   UNL     1     -11.335  -7.311  15.621  0.00  0.00    +0.055 A 
BRANCH  30  31
ATOM      1  F   UNL     1     -13.287  -7.133  14.251  0.00  0.00    -0.166 F 
ATOM      2  F   UNL     1     -12.212  -5.299  14.707  0.00  0.00    -0.166 F 
ATOM      3  F   UNL     1     -13.401  -6.278  16.241  0.00  0.00    -0.166 F 
ATOM     31  C   UNL     1     -12.535  -6.524  15.214  0.00  0.00    +0.417 C 
ENDBRANCH  30  31
ENDBRANCH  20  23
ENDBRANCH  10  15
BRANCH  12   4
ATOM      4  O   UNL     1      -1.362 -11.039  16.738  0.00  0.00    -0.390 OA
ATOM     32  H   UNL     1      -0.694 -10.388  16.463  0.00  0.00    +0.210 HD
ENDBRANCH  12   4
BRANCH   6  14
ATOM     14  C   UNL     1      -5.051 -11.797  13.842  0.00  0.00    +0.122 C 
BRANCH  14  16
ATOM      8  N   UNL     1      -6.947  -9.792  11.406  0.00  0.00    -0.360 N 
ATOM     16  C   UNL     1      -5.570 -10.923  12.731  0.00  0.00    -0.008 A 
ATOM     17  C   UNL     1      -4.793 -10.279  11.727  0.00  0.00    +0.004 A 
ATOM     18  C   UNL     1      -6.890 -10.604  12.508  0.00  0.00    +0.088 A 
ATOM     19  C   UNL     1      -5.681  -9.577  10.910  0.00  0.00    +0.047 A 
ATOM     21  C   UNL     1      -3.416 -10.226  11.435  0.00  0.00    +0.010 A 
ATOM     22  C   UNL     1      -5.259  -8.821   9.810  0.00  0.00    +0.026 A 
ATOM     24  C   UNL     1      -2.979  -9.474  10.338  0.00  0.00    +0.001 A 
ATOM     25  C   UNL     1      -3.888  -8.784   9.540  0.00  0.00    +0.002 A 
ATOM     33  H   UNL     1      -7.795  -9.406  11.016  0.00  0.00    +0.165 HD
ENDBRANCH  14  16
ENDBRANCH   6  14
TORSDOF 6
ENDMDL
MODEL 4
REMARK VINA RESULT:      -6.9      5.420      9.003
REMARK  Name = 26743626
REMARK  6 active torsions:
REMARK  status: ('A' for Active; 'I' for Inactive)
REMARK    1  A    between atoms: O_4  and  C_12
REMARK    2  A    between atoms: N_6  and  C_14
REMARK    3  A    between atoms: C_10  and  C_15
REMARK    4  A    between atoms: C_14  and  C_16
REMARK    5  A    between atoms: C_20  and  C_23
REMARK    6  A    between atoms: C_30  and  C_31
REMARK                            x       y       z     vdW  Elec       q    Type
REMARK                         _______ _______ _______ _____ _____    ______ ____
ROOT
ATOM      6  N   UNL     1     -11.089 -10.805  17.908  0.00  0.00    -0.285 NA
ATOM     10  C   UNL     1     -10.354 -11.567  18.938  0.00  0.00    +0.149 C 
ATOM     11  C   UNL     1     -10.699 -13.041  18.660  0.00  0.00    +0.061 C 
ATOM     12  C   UNL     1     -11.670 -13.004  17.486  0.00  0.00    +0.130 C 
ATOM     13  C   UNL     1     -12.259 -11.608  17.557  0.00  0.00    +0.116 C 
ENDROOT
BRANCH  10  15
ATOM      5  O   UNL     1      -8.286 -10.954  20.089  0.00  0.00    -0.336 OA
ATOM      7  N   UNL     1      -8.032 -11.349  17.899  0.00  0.00    -0.190 NA
ATOM      9  N   UNL     1      -6.927 -10.759  19.813  0.00  0.00    -0.056 NA
ATOM     15  C   UNL     1      -8.863 -11.299  18.908  0.00  0.00    +0.245 A 
ATOM     20  C   UNL     1      -6.856 -11.010  18.503  0.00  0.00    +0.202 A 
BRANCH  20  23
ATOM     23  C   UNL     1      -5.626 -10.933  17.767  0.00  0.00    +0.022 A 
ATOM     26  C   UNL     1      -4.446 -11.420  18.330  0.00  0.00    +0.012 A 
ATOM     27  C   UNL     1      -5.611 -10.371  16.491  0.00  0.00    +0.012 A 
ATOM     28  C   UNL     1      -3.251 -11.346  17.614  0.00  0.00    +0.013 A 
ATOM     29  C   UNL     1      -4.415 -10.297  15.776  0.00  0.00    +0.013 A 
ATOM     30  C   UNL     1      -3.235 -10.784  16.338  0.00  0.00    +0.055 A 
BRANCH  30  31
ATOM      1  F   UNL     1      -0.938 -10.121  16.271  0.00  0.00    -0.166 F 
ATOM      2  F   UNL     1      -2.078  -9.979  14.424  0.00  0.00    -0.166 F 
ATOM      3  F   UNL     1      -1.474 -11.923  15.189  0.00  0.00    -0.166 F 
ATOM     31  C   UNL     1      -1.957 -10.705  15.573  0.00  0.00    +0.417 C 
ENDBRANCH  30  31
ENDBRANCH  20  23
ENDBRANCH  10  15
BRANCH  12   4
ATOM      4  O   UNL     1     -12.664 -14.001  17.624  0.00  0.00    -0.390 OA
ATOM     32  H   UNL     1     -12.297 -14.830  17.271  0.00  0.00    +0.210 HD
ENDBRANCH  12   4
BRANCH   6  14
ATOM     14  C   UNL     1     -11.455  -9.462  18.339  0.00  0.00    +0.122 C 
BRANCH  14  16
ATOM      8  N   UNL     1      -9.724  -7.075  16.136  0.00  0.00    -0.360 N 
ATOM     16  C   UNL     1     -11.010  -8.416  17.351  0.00  0.00    -0.008 A 
ATOM     17  C   UNL     1     -11.852  -7.623  16.523  0.00  0.00    +0.004 A 
ATOM     18  C   UNL     1      -9.708  -8.057  17.091  0.00  0.00    +0.088 A 
ATOM     19  C   UNL     1     -11.020  -6.791  15.770  0.00  0.00    +0.047 A 
ATOM     21  C   UNL     1     -13.246  -7.533  16.339  0.00  0.00    +0.010 A 
ATOM     22  C   UNL     1     -11.514  -5.869  14.840  0.00  0.00    +0.026 A 
ATOM     24  C   UNL     1     -13.755  -6.615  15.412  0.00  0.00    +0.001 A 
ATOM     25  C   UNL     1     -12.901  -5.798  14.676  0.00  0.00    +0.002 A 
ATOM     33  H   UNL     1      -8.903  -6.626  15.754  0.00  0.00    +0.165 HD
ENDBRANCH  14  16
ENDBRANCH   6  14
TORSDOF 6
ENDMDL
MODEL 5
REMARK VINA RESULT:      -6.9      2.207      3.171
REMARK  Name = 26743626
REMARK  6 active torsions:
REMARK  status: ('A' for Active; 'I' for Inactive)
REMARK    1  A    between atoms: O_4  and  C_12
REMARK    2  A    between atoms: N_6  and  C_14
REMARK    3  A    between atoms: C_10  and  C_15
REMARK    4  A    between atoms: C_14  and  C_16
REMARK    5  A    between atoms: C_20  and  C_23
REMARK    6  A    between atoms: C_30  and  C_31
REMARK                            x       y       z     vdW  Elec       q    Type
REMARK                         _______ _______ _______ _____ _____    ______ ____
ROOT
ATOM      6  N   UNL     1      -4.239 -11.569  10.270  0.00  0.00    -0.285 NA
ATOM     10  C   UNL     1      -3.197 -10.644  10.761  0.00  0.00    +0.149 C 
ATOM     11  C   UNL     1      -3.561  -9.279  10.148  0.00  0.00    +0.061 C 
ATOM     12  C   UNL     1      -4.794  -9.547   9.293  0.00  0.00    +0.130 C 
ATOM     13  C   UNL     1      -4.700 -11.031   8.992  0.00  0.00    +0.116 C 
ENDROOT
BRANCH  10  15
ATOM      5  O   UNL     1      -1.891 -10.373  12.809  0.00  0.00    -0.336 OA
ATOM      7  N   UNL     1      -4.069 -10.764  13.158  0.00  0.00    -0.190 NA
ATOM      9  N   UNL     1      -2.067 -10.383  14.199  0.00  0.00    -0.056 NA
ATOM     15  C   UNL     1      -3.118 -10.605  12.273  0.00  0.00    +0.245 A 
ATOM     20  C   UNL     1      -3.377 -10.620  14.325  0.00  0.00    +0.202 A 
BRANCH  20  23
ATOM     23  C   UNL     1      -4.024 -10.716  15.602  0.00  0.00    +0.022 A 
ATOM     26  C   UNL     1      -3.468 -11.507  16.608  0.00  0.00    +0.012 A 
ATOM     27  C   UNL     1      -5.209 -10.018  15.837  0.00  0.00    +0.012 A 
ATOM     28  C   UNL     1      -4.098 -11.599  17.849  0.00  0.00    +0.013 A 
ATOM     29  C   UNL     1      -5.838 -10.111  17.079  0.00  0.00    +0.013 A 
ATOM     30  C   UNL     1      -5.282 -10.902  18.085  0.00  0.00    +0.055 A 
BRANCH  30  31
ATOM      1  F   UNL     1      -6.381  -9.799  19.901  0.00  0.00    -0.166 F 
ATOM      2  F   UNL     1      -5.139 -11.519  20.376  0.00  0.00    -0.166 F 
ATOM      3  F   UNL     1      -7.065 -11.797  19.405  0.00  0.00    -0.166 F 
ATOM     31  C   UNL     1      -5.954 -11.001  19.412  0.00  0.00    +0.417 C 
ENDBRANCH  30  31
ENDBRANCH  20  23
ENDBRANCH  10  15
BRANCH  12   4
ATOM      4  O   UNL     1      -4.764  -8.769   8.113  0.00  0.00    -0.390 OA
ATOM     32  H   UNL     1      -4.121  -8.053   8.250  0.00  0.00    +0.210 HD
ENDBRANCH  12   4
BRANCH   6  14
ATOM     14  C   UNL     1      -3.775 -12.945  10.151  0.00  0.00    +0.122 C 
BRANCH  14  16
ATOM      8  N   UNL     1      -5.861 -15.134  12.248  0.00  0.00    -0.360 N 
ATOM     16  C   UNL     1      -4.403 -13.841  11.185  0.00  0.00    -0.008 A 
ATOM     17  C   UNL     1      -3.806 -14.277  12.401  0.00  0.00    +0.004 A 
ATOM     18  C   UNL     1      -5.665 -14.384  11.119  0.00  0.00    +0.088 A 
ATOM     19  C   UNL     1      -4.741 -15.088  13.048  0.00  0.00    +0.047 A 
ATOM     21  C   UNL     1      -2.556 -14.062  13.014  0.00  0.00    +0.010 A 
ATOM     22  C   UNL     1      -4.489 -15.695  14.283  0.00  0.00    +0.026 A 
ATOM     24  C   UNL     1      -2.290 -14.662  14.250  0.00  0.00    +0.001 A 
ATOM     25  C   UNL     1      -3.242 -15.466  14.873  0.00  0.00    +0.002 A 
ATOM     33  H   UNL     1      -6.703 -15.649  12.461  0.00  0.00    +0.165 HD
ENDBRANCH  14  16
ENDBRANCH   6  14
TORSDOF 6
ENDMDL
MODEL 6
REMARK VINA RESULT:      -6.7     24.505     26.440
REMARK  Name = 26743626
REMARK  6 active torsions:
REMARK  status: ('A' for Active; 'I' for Inactive)
REMARK    1  A    between atoms: O_4  and  C_12
REMARK    2  A    between atoms: N_6  and  C_14
REMARK    3  A    between atoms: C_10  and  C_15
REMARK    4  A    between atoms: C_14  and  C_16
REMARK    5  A    between atoms: C_20  and  C_23
REMARK    6  A    between atoms: C_30  and  C_31
REMARK                            x       y       z     vdW  Elec       q    Type
REMARK                         _______ _______ _______ _____ _____    ______ ____
ROOT
ATOM      6  N   UNL     1       9.882   8.382   6.018  0.00  0.00    -0.285 NA
ATOM     10  C   UNL     1       8.913   7.409   5.473  0.00  0.00    +0.149 C 
ATOM     11  C   UNL     1       7.935   8.253   4.637  0.00  0.00    +0.061 C 
ATOM     12  C   UNL     1       8.407   9.692   4.810  0.00  0.00    +0.130 C 
ATOM     13  C   UNL     1       9.175   9.657   6.118  0.00  0.00    +0.116 C 
ENDROOT
BRANCH  10  15
ATOM      5  O   UNL     1       9.868   5.163   5.330  0.00  0.00    -0.336 OA
ATOM      7  N   UNL     1       9.927   6.306   3.405  0.00  0.00    -0.190 NA
ATOM      9  N   UNL     1      10.470   4.315   4.392  0.00  0.00    -0.056 NA
ATOM     15  C   UNL     1       9.580   6.314   4.667  0.00  0.00    +0.245 A 
ATOM     20  C   UNL     1      10.469   5.060   3.283  0.00  0.00    +0.202 A 
BRANCH  20  23
ATOM     23  C   UNL     1      11.000   4.588   2.036  0.00  0.00    +0.022 A 
ATOM     26  C   UNL     1      12.211   3.896   2.011  0.00  0.00    +0.012 A 
ATOM     27  C   UNL     1      10.304   4.821   0.849  0.00  0.00    +0.012 A 
ATOM     28  C   UNL     1      12.726   3.437   0.799  0.00  0.00    +0.013 A 
ATOM     29  C   UNL     1      10.820   4.362  -0.363  0.00  0.00    +0.013 A 
ATOM     30  C   UNL     1      12.031   3.670  -0.388  0.00  0.00    +0.055 A 
BRANCH  30  31
ATOM      1  F   UNL     1      12.001   3.753  -2.778  0.00  0.00    -0.166 F 
ATOM      2  F   UNL     1      12.421   1.834  -1.846  0.00  0.00    -0.166 F 
ATOM      3  F   UNL     1      13.921   3.408  -1.830  0.00  0.00    -0.166 F 
ATOM     31  C   UNL     1      12.583   3.179  -1.684  0.00  0.00    +0.417 C 
ENDBRANCH  30  31
ENDBRANCH  20  23
ENDBRANCH  10  15
BRANCH  12   4
ATOM      4  O   UNL     1       7.306  10.577   4.871  0.00  0.00    -0.390 OA
ATOM     32  H   UNL     1       6.962  10.679   3.967  0.00  0.00    +0.210 HD
ENDBRANCH  12   4
BRANCH   6  14
ATOM     14  C   UNL     1      10.454   7.971   7.294  0.00  0.00    +0.122 C 
BRANCH  14  16
ATOM      8  N   UNL     1      13.718   6.277   7.164  0.00  0.00    -0.360 N 
ATOM     16  C   UNL     1      11.887   7.531   7.151  0.00  0.00    -0.008 A 
ATOM     17  C   UNL     1      12.980   8.335   6.722  0.00  0.00    +0.004 A 
ATOM     18  C   UNL     1      12.372   6.271   7.415  0.00  0.00    +0.088 A 
ATOM     19  C   UNL     1      14.116   7.524   6.739  0.00  0.00    +0.047 A 
ATOM     21  C   UNL     1      13.112   9.679   6.319  0.00  0.00    +0.010 A 
ATOM     22  C   UNL     1      15.384   7.991   6.372  0.00  0.00    +0.026 A 
ATOM     24  C   UNL     1      14.373  10.160   5.950  0.00  0.00    +0.001 A 
ATOM     25  C   UNL     1      15.490   9.328   5.976  0.00  0.00    +0.002 A 
ATOM     33  H   UNL     1      14.330   5.480   7.272  0.00  0.00    +0.165 HD
ENDBRANCH  14  16
ENDBRANCH   6  14
TORSDOF 6
ENDMDL
MODEL 7
REMARK VINA RESULT:      -6.7      4.861      8.025
REMARK  Name = 26743626
REMARK  6 active torsions:
REMARK  status: ('A' for Active; 'I' for Inactive)
REMARK    1  A    between atoms: O_4  and  C_12
REMARK    2  A    between atoms: N_6  and  C_14
REMARK    3  A    between atoms: C_10  and  C_15
REMARK    4  A    between atoms: C_14  and  C_16
REMARK    5  A    between atoms: C_20  and  C_23
REMARK    6  A    between atoms: C_30  and  C_31
REMARK                            x       y       z     vdW  Elec       q    Type
REMARK                         _______ _______ _______ _____ _____    ______ ____
ROOT
ATOM      6  N   UNL     1      -3.237 -11.790  14.550  0.00  0.00    -0.285 NA
ATOM     10  C   UNL     1      -2.165 -11.698  13.537  0.00  0.00    +0.149 C 
ATOM     11  C   UNL     1      -1.808 -13.158  13.207  0.00  0.00    +0.061 C 
ATOM     12  C   UNL     1      -2.698 -13.997  14.116  0.00  0.00    +0.130 C 
ATOM     13  C   UNL     1      -3.030 -13.053  15.256  0.00  0.00    +0.116 C 
ENDROOT
BRANCH  10  15
ATOM      5  O   UNL     1      -1.669 -10.037  11.814  0.00  0.00    -0.336 OA
ATOM      7  N   UNL     1      -3.716 -10.932  11.659  0.00  0.00    -0.190 NA
ATOM      9  N   UNL     1      -2.276  -9.431  10.706  0.00  0.00    -0.056 NA
ATOM     15  C   UNL     1      -2.585 -10.906  12.316  0.00  0.00    +0.245 A 
ATOM     20  C   UNL     1      -3.480 -10.011  10.680  0.00  0.00    +0.202 A 
BRANCH  20  23
ATOM     23  C   UNL     1      -4.468  -9.694   9.690  0.00  0.00    +0.022 A 
ATOM     26  C   UNL     1      -5.401  -8.686   9.934  0.00  0.00    +0.012 A 
ATOM     27  C   UNL     1      -4.494 -10.393   8.483  0.00  0.00    +0.012 A 
ATOM     28  C   UNL     1      -6.361  -8.377   8.969  0.00  0.00    +0.013 A 
ATOM     29  C   UNL     1      -5.455 -10.084   7.519  0.00  0.00    +0.013 A 
ATOM     30  C   UNL     1      -6.388  -9.076   7.763  0.00  0.00    +0.055 A 
BRANCH  30  31
ATOM      1  F   UNL     1      -6.950  -8.828   5.451  0.00  0.00    -0.166 F 
ATOM      2  F   UNL     1      -7.901  -7.477   6.864  0.00  0.00    -0.166 F 
ATOM      3  F   UNL     1      -8.508  -9.564   6.768  0.00  0.00    -0.166 F 
ATOM     31  C   UNL     1      -7.415  -8.745   6.732  0.00  0.00    +0.417 C 
ENDBRANCH  30  31
ENDBRANCH  20  23
ENDBRANCH  10  15
BRANCH  12   4
ATOM      4  O   UNL     1      -2.010 -15.146  14.570  0.00  0.00    -0.390 OA
ATOM     32  H   UNL     1      -1.378 -14.860  15.251  0.00  0.00    +0.210 HD
ENDBRANCH  12   4
BRANCH   6  14
ATOM     14  C   UNL     1      -3.267 -10.652  15.460  0.00  0.00    +0.122 C 
BRANCH  14  16
ATOM      8  N   UNL     1      -6.774  -9.770  16.142  0.00  0.00    -0.360 N 
ATOM     16  C   UNL     1      -4.650 -10.401  15.998  0.00  0.00    -0.008 A 
ATOM     17  C   UNL     1      -5.120 -10.716  17.303  0.00  0.00    +0.004 A 
ATOM     18  C   UNL     1      -5.689  -9.820  15.307  0.00  0.00    +0.088 A 
ATOM     19  C   UNL     1      -6.455 -10.311  17.367  0.00  0.00    +0.047 A 
ATOM     21  C   UNL     1      -4.537 -11.310  18.440  0.00  0.00    +0.010 A 
ATOM     22  C   UNL     1      -7.239 -10.469  18.516  0.00  0.00    +0.026 A 
ATOM     24  C   UNL     1      -5.309 -11.475  19.596  0.00  0.00    +0.001 A 
ATOM     25  C   UNL     1      -6.638 -11.061  19.631  0.00  0.00    +0.002 A 
ATOM     33  H   UNL     1      -7.677  -9.393  15.894  0.00  0.00    +0.165 HD
ENDBRANCH  14  16
ENDBRANCH   6  14
TORSDOF 6
ENDMDL
MODEL 8
REMARK VINA RESULT:      -6.6     24.292     26.288
REMARK  Name = 26743626
REMARK  6 active torsions:
REMARK  status: ('A' for Active; 'I' for Inactive)
REMARK    1  A    between atoms: O_4  and  C_12
REMARK    2  A    between atoms: N_6  and  C_14
REMARK    3  A    between atoms: C_10  and  C_15
REMARK    4  A    between atoms: C_14  and  C_16
REMARK    5  A    between atoms: C_20  and  C_23
REMARK    6  A    between atoms: C_30  and  C_31
REMARK                            x       y       z     vdW  Elec       q    Type
REMARK                         _______ _______ _______ _____ _____    ______ ____
ROOT
ATOM      6  N   UNL     1       9.017   8.751   5.761  0.00  0.00    -0.285 NA
ATOM     10  C   UNL     1       8.352   7.663   5.013  0.00  0.00    +0.149 C 
ATOM     11  C   UNL     1       7.587   8.373   3.882  0.00  0.00    +0.061 C 
ATOM     12  C   UNL     1       7.843   9.859   4.103  0.00  0.00    +0.130 C 
ATOM     13  C   UNL     1       8.191   9.942   5.577  0.00  0.00    +0.116 C 
ENDROOT
BRANCH  10  15
ATOM      5  O   UNL     1       9.151   5.354   4.939  0.00  0.00    -0.336 OA
ATOM      7  N   UNL     1      10.341   6.775   3.681  0.00  0.00    -0.190 NA
ATOM      9  N   UNL     1      10.160   4.590   4.338  0.00  0.00    -0.056 NA
ATOM     15  C   UNL     1       9.330   6.628   4.499  0.00  0.00    +0.245 A 
ATOM     20  C   UNL     1      10.819   5.499   3.612  0.00  0.00    +0.202 A 
BRANCH  20  23
ATOM     23  C   UNL     1      11.958   5.163   2.807  0.00  0.00    +0.022 A 
ATOM     26  C   UNL     1      12.995   6.083   2.647  0.00  0.00    +0.012 A 
ATOM     27  C   UNL     1      12.029   3.917   2.184  0.00  0.00    +0.012 A 
ATOM     28  C   UNL     1      14.103   5.756   1.865  0.00  0.00    +0.013 A 
ATOM     29  C   UNL     1      13.137   3.590   1.401  0.00  0.00    +0.013 A 
ATOM     30  C   UNL     1      14.173   4.510   1.242  0.00  0.00    +0.055 A 
BRANCH  30  31
ATOM      1  F   UNL     1      16.185   5.219   0.160  0.00  0.00    -0.166 F 
ATOM      2  F   UNL     1      15.008   3.677  -0.822  0.00  0.00    -0.166 F 
ATOM      3  F   UNL     1      16.158   3.205   0.963  0.00  0.00    -0.166 F 
ATOM     31  C   UNL     1      15.358   4.161   0.405  0.00  0.00    +0.417 C 
ENDBRANCH  30  31
ENDBRANCH  20  23
ENDBRANCH  10  15
BRANCH  12   4
ATOM      4  O   UNL     1       6.693  10.619   3.790  0.00  0.00    -0.390 OA
ATOM     32  H   UNL     1       6.347  10.982   4.623  0.00  0.00    +0.210 HD
ENDBRANCH  12   4
BRANCH   6  14
ATOM     14  C   UNL     1       9.223   8.437   7.168  0.00  0.00    +0.122 C 
BRANCH  14  16
ATOM      8  N   UNL     1      11.670   5.820   8.006  0.00  0.00    -0.360 N 
ATOM     16  C   UNL     1      10.410   7.535   7.374  0.00  0.00    -0.008 A 
ATOM     17  C   UNL     1      11.740   7.772   6.928  0.00  0.00    +0.004 A 
ATOM     18  C   UNL     1      10.398   6.327   8.033  0.00  0.00    +0.088 A 
ATOM     19  C   UNL     1      12.510   6.681   7.336  0.00  0.00    +0.047 A 
ATOM     21  C   UNL     1      12.365   8.813   6.212  0.00  0.00    +0.010 A 
ATOM     22  C   UNL     1      13.879   6.578   7.065  0.00  0.00    +0.026 A 
ATOM     24  C   UNL     1      13.735   8.723   5.934  0.00  0.00    +0.001 A 
ATOM     25  C   UNL     1      14.477   7.623   6.354  0.00  0.00    +0.002 A 
ATOM     33  H   UNL     1      11.951   4.940   8.415  0.00  0.00    +0.165 HD
ENDBRANCH  14  16
ENDBRANCH   6  14
TORSDOF 6
ENDMDL
MODEL 9
REMARK VINA RESULT:      -6.4     19.980     22.933
REMARK  Name = 26743626
REMARK  6 active torsions:
REMARK  status: ('A' for Active; 'I' for Inactive)
REMARK    1  A    between atoms: O_4  and  C_12
REMARK    2  A    between atoms: N_6  and  C_14
REMARK    3  A    between atoms: C_10  and  C_15
REMARK    4  A    between atoms: C_14  and  C_16
REMARK    5  A    between atoms: C_20  and  C_23
REMARK    6  A    between atoms: C_30  and  C_31
REMARK                            x       y       z     vdW  Elec       q    Type
REMARK                         _______ _______ _______ _____ _____    ______ ____
ROOT
ATOM      6  N   UNL     1       4.981 -13.540  31.660  0.00  0.00    -0.285 NA
ATOM     10  C   UNL     1       6.326 -13.472  31.052  0.00  0.00    +0.149 C 
ATOM     11  C   UNL     1       6.090 -13.692  29.547  0.00  0.00    +0.061 C 
ATOM     12  C   UNL     1       4.589 -13.921  29.412  0.00  0.00    +0.130 C 
ATOM     13  C   UNL     1       4.179 -14.399  30.792  0.00  0.00    +0.116 C 
ENDROOT
BRANCH  10  15
ATOM      5  O   UNL     1       8.348 -12.099  31.007  0.00  0.00    -0.336 OA
ATOM      7  N   UNL     1       6.566 -11.074  31.896  0.00  0.00    -0.190 NA
ATOM      9  N   UNL     1       8.779 -10.818  31.374  0.00  0.00    -0.056 NA
ATOM     15  C   UNL     1       7.035 -12.167  31.349  0.00  0.00    +0.245 A 
ATOM     20  C   UNL     1       7.672 -10.275  31.890  0.00  0.00    +0.202 A 
BRANCH  20  23
ATOM     23  C   UNL     1       7.638  -8.937  32.407  0.00  0.00    +0.022 A 
ATOM     26  C   UNL     1       8.762  -8.405  33.039  0.00  0.00    +0.012 A 
ATOM     27  C   UNL     1       6.481  -8.169  32.276  0.00  0.00    +0.012 A 
ATOM     28  C   UNL     1       8.728  -7.103  33.540  0.00  0.00    +0.013 A 
ATOM     29  C   UNL     1       6.448  -6.867  32.778  0.00  0.00    +0.013 A 
ATOM     30  C   UNL     1       7.572  -6.335  33.410  0.00  0.00    +0.055 A 
BRANCH  30  31
ATOM      1  F   UNL     1       8.635  -4.203  33.618  0.00  0.00    -0.166 F 
ATOM      2  F   UNL     1       7.464  -4.908  35.308  0.00  0.00    -0.166 F 
ATOM      3  F   UNL     1       6.469  -4.214  33.503  0.00  0.00    -0.166 F 
ATOM     31  C   UNL     1       7.536  -4.944  33.946  0.00  0.00    +0.417 C 
ENDBRANCH  30  31
ENDBRANCH  20  23
ENDBRANCH  10  15
BRANCH  12   4
ATOM      4  O   UNL     1       4.316 -14.888  28.418  0.00  0.00    -0.390 OA
ATOM     32  H   UNL     1       3.561 -15.418  28.726  0.00  0.00    +0.210 HD
ENDBRANCH  12   4
BRANCH   6  14
ATOM     14  C   UNL     1       4.997 -14.014  33.038  0.00  0.00    +0.122 C 
BRANCH  14  16
ATOM      8  N   UNL     1       2.008 -13.062  34.960  0.00  0.00    -0.360 N 
ATOM     16  C   UNL     1       3.911 -13.376  33.863  0.00  0.00    -0.008 A 
ATOM     17  C   UNL     1       3.930 -12.067  34.419  0.00  0.00    +0.004 A 
ATOM     18  C   UNL     1       2.717 -13.963  34.213  0.00  0.00    +0.088 A 
ATOM     19  C   UNL     1       2.725 -11.895  35.103  0.00  0.00    +0.047 A 
ATOM     21  C   UNL     1       4.859 -11.008  34.408  0.00  0.00    +0.010 A 
ATOM     22  C   UNL     1       2.400 -10.713  35.778  0.00  0.00    +0.026 A 
ATOM     24  C   UNL     1       4.549  -9.819  35.079  0.00  0.00    +0.001 A 
ATOM     25  C   UNL     1       3.338  -9.676  35.752  0.00  0.00    +0.002 A 
ATOM     33  H   UNL     1       1.092 -13.229  35.352  0.00  0.00    +0.165 HD
ENDBRANCH  14  16
ENDBRANCH   6  14
TORSDOF 6
ENDMDL
MODEL 10
REMARK VINA RESULT:      -6.4      1.361      2.114
REMARK  Name = 26743626
REMARK  6 active torsions:
REMARK  status: ('A' for Active; 'I' for Inactive)
REMARK    1  A    between atoms: O_4  and  C_12
REMARK    2  A    between atoms: N_6  and  C_14
REMARK    3  A    between atoms: C_10  and  C_15
REMARK    4  A    between atoms: C_14  and  C_16
REMARK    5  A    between atoms: C_20  and  C_23
REMARK    6  A    between atoms: C_30  and  C_31
REMARK                            x       y       z     vdW  Elec       q    Type
REMARK                         _______ _______ _______ _____ _____    ______ ____
ROOT
ATOM      6  N   UNL     1      -6.341  -9.566   8.461  0.00  0.00    -0.285 NA
ATOM     10  C   UNL     1      -6.721  -8.627   9.538  0.00  0.00    +0.149 C 
ATOM     11  C   UNL     1      -8.006  -7.947   9.033  0.00  0.00    +0.061 C 
ATOM     12  C   UNL     1      -8.245  -8.533   7.647  0.00  0.00    +0.130 C 
ATOM     13  C   UNL     1      -6.867  -9.003   7.219  0.00  0.00    +0.116 C 
ENDROOT
BRANCH  10  15
ATOM      5  O   UNL     1      -7.970 -10.159  10.975  0.00  0.00    -0.336 OA
ATOM      7  N   UNL     1      -6.190  -9.225  11.963  0.00  0.00    -0.190 NA
ATOM      9  N   UNL     1      -7.936 -10.669  12.279  0.00  0.00    -0.056 NA
ATOM     15  C   UNL     1      -6.908  -9.317  10.873  0.00  0.00    +0.245 A 
ATOM     20  C   UNL     1      -6.859 -10.071  12.798  0.00  0.00    +0.202 A 
BRANCH  20  23
ATOM     23  C   UNL     1      -6.424 -10.300  14.146  0.00  0.00    +0.022 A 
ATOM     26  C   UNL     1      -5.065 -10.446  14.425  0.00  0.00    +0.012 A 
ATOM     27  C   UNL     1      -7.361 -10.375  15.177  0.00  0.00    +0.012 A 
ATOM     28  C   UNL     1      -4.643 -10.667  15.736  0.00  0.00    +0.013 A 
ATOM     29  C   UNL     1      -6.938 -10.596  16.488  0.00  0.00    +0.013 A 
ATOM     30  C   UNL     1      -5.579 -10.743  16.767  0.00  0.00    +0.055 A 
BRANCH  30  31
ATOM      1  F   UNL     1      -5.438  -9.961  19.023  0.00  0.00    -0.166 F 
ATOM      2  F   UNL     1      -3.775 -11.137  18.264  0.00  0.00    -0.166 F 
ATOM      3  F   UNL     1      -5.668 -12.098  18.736  0.00  0.00    -0.166 F 
ATOM     31  C   UNL     1      -5.127 -10.980  18.169  0.00  0.00    +0.417 C 
ENDBRANCH  30  31
ENDBRANCH  20  23
ENDBRANCH  10  15
BRANCH  12   4
ATOM      4  O   UNL     1      -8.761  -7.552   6.769  0.00  0.00    -0.390 OA
ATOM     32  H   UNL     1      -9.189  -8.017   6.030  0.00  0.00    +0.210 HD
ENDBRANCH  12   4
BRANCH   6  14
ATOM     14  C   UNL     1      -4.907  -9.808   8.390  0.00  0.00    +0.122 C 
BRANCH  14  16
ATOM      8  N   UNL     1      -4.327 -13.062  10.007  0.00  0.00    -0.360 N 
ATOM     16  C   UNL     1      -4.495 -10.992   9.224  0.00  0.00    -0.008 A 
ATOM     17  C   UNL     1      -3.597 -10.979  10.327  0.00  0.00    +0.004 A 
ATOM     18  C   UNL     1      -4.928 -12.287   9.051  0.00  0.00    +0.088 A 
ATOM     19  C   UNL     1      -3.508 -12.290  10.799  0.00  0.00    +0.047 A 
ATOM     21  C   UNL     1      -2.846  -9.975  10.970  0.00  0.00    +0.010 A 
ATOM     22  C   UNL     1      -2.705 -12.649  11.887  0.00  0.00    +0.026 A 
ATOM     24  C   UNL     1      -2.038 -10.319  12.060  0.00  0.00    +0.001 A 
ATOM     25  C   UNL     1      -1.970 -11.635  12.510  0.00  0.00    +0.002 A 
ATOM     33  H   UNL     1      -4.464 -14.058  10.113  0.00  0.00    +0.165 HD
ENDBRANCH  14  16
ENDBRANCH   6  14
TORSDOF 6
ENDMDL
