MODEL 1
REMARK VINA RESULT:      -6.7      0.000      0.000
REMARK  Name = 51138178
REMARK  9 active torsions:
REMARK  status: ('A' for Active; 'I' for Inactive)
REMARK    1  A    between atoms: O_1  and  C_21
REMARK    2  A    between atoms: N_4  and  C_19
REMARK    3  A    between atoms: N_5  and  C_26
REMARK    4  A    between atoms: C_7  and  C_10
REMARK    5  A    between atoms: C_10  and  C_15
REMARK    6  A    between atoms: CA_12  and  C_21
REMARK    7  A    between atoms: C_15  and  C_22
REMARK    8  A    between atoms: C_15  and  C_23
REMARK    9  A    between atoms: C_19  and  C_24
REMARK                            x       y       z     vdW  Elec       q    Type
REMARK                         _______ _______ _______ _____ _____    ______ ____
ROOT
ATOM      3  N   UNL     1      13.971   9.158  18.542  0.00  0.00    -0.297 NA
ATOM      4  N   UNL     1      11.267  10.797  22.479  0.00  0.00    -0.339 N 
ATOM      7  C   UNL     1      13.100   8.037  18.920  0.00  0.00    +0.085 C 
ATOM      8  C   UNL     1      12.301   8.218  20.215  0.00  0.00    -0.021 A 
ATOM      9  C   UNL     1      12.076   9.462  20.873  0.00  0.00    +0.008 A 
ATOM     11  C   UNL     1      12.451  10.823  20.596  0.00  0.00    -0.020 A 
ATOM     12  CA  UNL     1      13.271  10.398  18.240  0.00  0.00    +0.168 C 
ATOM     13  C   UNL     1      13.247  11.337  19.444  0.00  0.00    +0.067 C 
ATOM     14  C   UNL     1      11.315   9.493  22.047  0.00  0.00    +0.050 A 
ATOM     16  C   UNL     1      11.941  11.605  21.612  0.00  0.00    +0.091 A 
ATOM     17  C   UNL     1      11.662   7.086  20.783  0.00  0.00    +0.006 A 
ATOM     18  C   UNL     1      10.732   8.359  22.616  0.00  0.00    +0.026 A 
ATOM     20  C   UNL     1      10.908   7.152  21.952  0.00  0.00    +0.002 A 
ATOM     28  H   UNL     1      14.698   9.306  19.242  0.00  0.00    +0.123 HD
ENDROOT
BRANCH  12  21
ATOM      2  OXT UNL     1      14.799  10.439  16.368  0.00  0.00    -0.249 OA
ATOM     21  C   UNL     1      14.059  11.035  17.136  0.00  0.00    +0.322 C 
BRANCH  21   1
ATOM      1  O   UNL     1      13.841  12.372  17.102  0.00  0.00    -0.480 OA
ATOM     29  H   UNL     1      14.436  12.824  16.466  0.00  0.00    +0.295 HD
ENDBRANCH  21   1
ENDBRANCH  12  21
BRANCH   7  10
ATOM     10  C   UNL     1      14.035   6.816  18.970  0.00  0.00    +0.026 C 
BRANCH  10  15
ATOM     15  C   UNL     1      15.392   7.127  19.609  0.00  0.00    -0.015 C 
ATOM     22  C   UNL     1      15.379   6.958  21.129  0.00  0.00    +0.007 C 
ATOM     23  C   UNL     1      16.460   6.217  18.997  0.00  0.00    +0.007 C 
ENDBRANCH  10  15
ENDBRANCH   7  10
BRANCH   4  19
ATOM     19  C   UNL     1      10.587  11.267  23.668  0.00  0.00    +0.196 C 
BRANCH  19  24
ATOM      5  N   UNL     1      11.236  13.512  24.606  0.00  0.00    -0.336 N 
ATOM      6  N   UNL     1      12.447  11.779  25.284  0.00  0.00    -0.239 NA
ATOM     24  C   UNL     1      11.441  12.162  24.530  0.00  0.00    +0.129 A 
ATOM     25  C   UNL     1      12.170  14.021  25.463  0.00  0.00    +0.106 A 
ATOM     26  C   UNL     1      10.223  14.276  23.915  0.00  0.00    +0.150 C 
ATOM     27  C   UNL     1      12.906  12.932  25.869  0.00  0.00    +0.130 A 
ENDBRANCH  19  24
ENDBRANCH   4  19
TORSDOF 6
ENDMDL
MODEL 2
REMARK VINA RESULT:      -6.6     14.174     18.303
REMARK  Name = 51138178
REMARK  9 active torsions:
REMARK  status: ('A' for Active; 'I' for Inactive)
REMARK    1  A    between atoms: O_1  and  C_21
REMARK    2  A    between atoms: N_4  and  C_19
REMARK    3  A    between atoms: N_5  and  C_26
REMARK    4  A    between atoms: C_7  and  C_10
REMARK    5  A    between atoms: C_10  and  C_15
REMARK    6  A    between atoms: CA_12  and  C_21
REMARK    7  A    between atoms: C_15  and  C_22
REMARK    8  A    between atoms: C_15  and  C_23
REMARK    9  A    between atoms: C_19  and  C_24
REMARK                            x       y       z     vdW  Elec       q    Type
REMARK                         _______ _______ _______ _____ _____    ______ ____
ROOT
ATOM      3  N   UNL     1       9.484   6.867   7.740  0.00  0.00    -0.297 NA
ATOM      4  N   UNL     1      10.361   5.192   3.057  0.00  0.00    -0.339 N 
ATOM      7  C   UNL     1       8.685   7.725   6.854  0.00  0.00    +0.085 C 
ATOM      8  C   UNL     1       8.919   7.537   5.351  0.00  0.00    -0.021 A 
ATOM      9  C   UNL     1       9.561   6.414   4.755  0.00  0.00    +0.008 A 
ATOM     11  C   UNL     1      10.136   5.200   5.270  0.00  0.00    -0.020 A 
ATOM     12  CA  UNL     1       9.212   5.442   7.614  0.00  0.00    +0.168 C 
ATOM     13  C   UNL     1      10.220   4.758   6.693  0.00  0.00    +0.067 C 
ATOM     14  C   UNL     1       9.701   6.358   3.364  0.00  0.00    +0.050 A 
ATOM     16  C   UNL     1      10.622   4.486   4.194  0.00  0.00    +0.091 A 
ATOM     17  C   UNL     1       8.398   8.508   4.457  0.00  0.00    +0.006 A 
ATOM     18  C   UNL     1       9.221   7.347   2.502  0.00  0.00    +0.026 A 
ATOM     20  C   UNL     1       8.553   8.421   3.076  0.00  0.00    +0.002 A 
ATOM     28  H   UNL     1      10.479   7.063   7.636  0.00  0.00    +0.123 HD
ENDROOT
BRANCH  12  21
ATOM      2  OXT UNL     1       8.711   5.249   9.970  0.00  0.00    -0.249 OA
ATOM     21  C   UNL     1       9.359   4.890   8.999  0.00  0.00    +0.322 C 
BRANCH  21   1
ATOM      1  O   UNL     1      10.317   3.932   9.033  0.00  0.00    -0.480 OA
ATOM     29  H   UNL     1      11.155   4.238   8.625  0.00  0.00    +0.295 HD
ENDBRANCH  21   1
ENDBRANCH  12  21
BRANCH   7  10
ATOM     10  C   UNL     1       8.988   9.159   7.324  0.00  0.00    +0.026 C 
BRANCH  10  15
ATOM     15  C   UNL     1      10.446   9.353   7.752  0.00  0.00    -0.015 C 
ATOM     22  C   UNL     1      11.364   9.699   6.578  0.00  0.00    +0.007 C 
ATOM     23  C   UNL     1      10.521  10.457   8.809  0.00  0.00    +0.007 C 
ENDBRANCH  10  15
ENDBRANCH   7  10
BRANCH   4  19
ATOM     19  C   UNL     1      10.718   4.750   1.725  0.00  0.00    +0.196 C 
BRANCH  19  24
ATOM      5  N   UNL     1      13.103   5.417   1.269  0.00  0.00    -0.336 N 
ATOM      6  N   UNL     1      12.751   3.267   1.696  0.00  0.00    -0.239 NA
ATOM     24  C   UNL     1      12.187   4.448   1.570  0.00  0.00    +0.129 A 
ATOM     25  C   UNL     1      14.328   4.817   1.199  0.00  0.00    +0.106 A 
ATOM     26  C   UNL     1      12.842   6.823   1.061  0.00  0.00    +0.150 C 
ATOM     27  C   UNL     1      14.085   3.490   1.466  0.00  0.00    +0.130 A 
ENDBRANCH  19  24
ENDBRANCH   4  19
TORSDOF 6
ENDMDL
MODEL 3
REMARK VINA RESULT:      -6.3      4.649      7.313
REMARK  Name = 51138178
REMARK  9 active torsions:
REMARK  status: ('A' for Active; 'I' for Inactive)
REMARK    1  A    between atoms: O_1  and  C_21
REMARK    2  A    between atoms: N_4  and  C_19
REMARK    3  A    between atoms: N_5  and  C_26
REMARK    4  A    between atoms: C_7  and  C_10
REMARK    5  A    between atoms: C_10  and  C_15
REMARK    6  A    between atoms: CA_12  and  C_21
REMARK    7  A    between atoms: C_15  and  C_22
REMARK    8  A    between atoms: C_15  and  C_23
REMARK    9  A    between atoms: C_19  and  C_24
REMARK                            x       y       z     vdW  Elec       q    Type
REMARK                         _______ _______ _______ _____ _____    ______ ____
ROOT
ATOM      3  N   UNL     1      20.103   7.538  21.013  0.00  0.00    -0.297 NA
ATOM      4  N   UNL     1      15.324   7.351  19.393  0.00  0.00    -0.339 N 
ATOM      7  C   UNL     1      19.406   8.631  21.704  0.00  0.00    +0.085 C 
ATOM      8  C   UNL     1      17.970   8.905  21.244  0.00  0.00    -0.021 A 
ATOM      9  C   UNL     1      17.168   8.008  20.479  0.00  0.00    +0.008 A 
ATOM     11  C   UNL     1      17.376   6.691  19.942  0.00  0.00    -0.020 A 
ATOM     12  CA  UNL     1      19.516   6.221  21.209  0.00  0.00    +0.168 C 
ATOM     13  C   UNL     1      18.596   5.838  20.051  0.00  0.00    +0.067 C 
ATOM     14  C   UNL     1      15.863   8.375  20.135  0.00  0.00    +0.050 A 
ATOM     16  C   UNL     1      16.223   6.332  19.276  0.00  0.00    +0.091 A 
ATOM     17  C   UNL     1      17.340  10.104  21.664  0.00  0.00    +0.006 A 
ATOM     18  C   UNL     1      15.276   9.582  20.519  0.00  0.00    +0.026 A 
ATOM     20  C   UNL     1      16.036  10.438  21.305  0.00  0.00    +0.002 A 
ATOM     28  H   UNL     1      20.215   7.748  20.021  0.00  0.00    +0.123 HD
ENDROOT
BRANCH  12  21
ATOM      2  OXT UNL     1      21.237   4.891  22.262  0.00  0.00    -0.249 OA
ATOM     21  C   UNL     1      20.677   5.274  21.246  0.00  0.00    +0.322 C 
BRANCH  21   1
ATOM      1  O   UNL     1      21.027   4.897  19.993  0.00  0.00    -0.480 OA
ATOM     29  H   UNL     1      21.978   5.060  19.814  0.00  0.00    +0.295 HD
ENDBRANCH  21   1
ENDBRANCH  12  21
BRANCH   7  10
ATOM     10  C   UNL     1      20.325   9.853  21.528  0.00  0.00    +0.026 C 
BRANCH  10  15
ATOM     15  C   UNL     1      20.852  10.401  22.857  0.00  0.00    -0.015 C 
ATOM     22  C   UNL     1      20.310  11.795  23.175  0.00  0.00    +0.007 C 
ATOM     23  C   UNL     1      20.485   9.434  23.984  0.00  0.00    +0.007 C 
ENDBRANCH  10  15
ENDBRANCH   7  10
BRANCH   4  19
ATOM     19  C   UNL     1      13.991   7.330  18.827  0.00  0.00    +0.196 C 
BRANCH  19  24
ATOM      5  N   UNL     1      11.727   7.998  19.702  0.00  0.00    -0.336 N 
ATOM      6  N   UNL     1      12.936   6.679  21.018  0.00  0.00    -0.239 NA
ATOM     24  C   UNL     1      12.900   7.317  19.868  0.00  0.00    +0.129 A 
ATOM     25  C   UNL     1      10.965   7.780  20.816  0.00  0.00    +0.106 A 
ATOM     26  C   UNL     1      11.344   8.802  18.566  0.00  0.00    +0.150 C 
ATOM     27  C   UNL     1      11.733   6.964  21.613  0.00  0.00    +0.130 A 
ENDBRANCH  19  24
ENDBRANCH   4  19
TORSDOF 6
ENDMDL
MODEL 4
REMARK VINA RESULT:      -6.3     27.005     29.109
REMARK  Name = 51138178
REMARK  9 active torsions:
REMARK  status: ('A' for Active; 'I' for Inactive)
REMARK    1  A    between atoms: O_1  and  C_21
REMARK    2  A    between atoms: N_4  and  C_19
REMARK    3  A    between atoms: N_5  and  C_26
REMARK    4  A    between atoms: C_7  and  C_10
REMARK    5  A    between atoms: C_10  and  C_15
REMARK    6  A    between atoms: CA_12  and  C_21
REMARK    7  A    between atoms: C_15  and  C_22
REMARK    8  A    between atoms: C_15  and  C_23
REMARK    9  A    between atoms: C_19  and  C_24
REMARK                            x       y       z     vdW  Elec       q    Type
REMARK                         _______ _______ _______ _____ _____    ______ ____
ROOT
ATOM      3  N   UNL     1      -6.742 -10.874  16.127  0.00  0.00    -0.297 NA
ATOM      4  N   UNL     1      -3.941 -10.223  11.976  0.00  0.00    -0.339 N 
ATOM      7  C   UNL     1      -5.361 -10.713  16.601  0.00  0.00    +0.085 C 
ATOM      8  C   UNL     1      -4.280 -10.681  15.514  0.00  0.00    -0.021 A 
ATOM      9  C   UNL     1      -4.518 -10.457  14.127  0.00  0.00    +0.008 A 
ATOM     11  C   UNL     1      -5.696 -10.200  13.343  0.00  0.00    -0.020 A 
ATOM     12  CA  UNL     1      -7.236  -9.779  15.307  0.00  0.00    +0.168 C 
ATOM     13  C   UNL     1      -7.107 -10.090  13.817  0.00  0.00    +0.067 C 
ATOM     14  C   UNL     1      -3.439 -10.439  13.237  0.00  0.00    +0.050 A 
ATOM     16  C   UNL     1      -5.296 -10.073  12.029  0.00  0.00    +0.091 A 
ATOM     17  C   UNL     1      -2.922 -10.806  15.903  0.00  0.00    +0.006 A 
ATOM     18  C   UNL     1      -2.111 -10.611  13.634  0.00  0.00    +0.026 A 
ATOM     20  C   UNL     1      -1.870 -10.781  14.991  0.00  0.00    +0.002 A 
ATOM     28  H   UNL     1      -6.862 -11.771  15.657  0.00  0.00    +0.123 HD
ENDROOT
BRANCH  12  21
ATOM      2  OXT UNL     1      -9.422 -10.578  15.957  0.00  0.00    -0.249 OA
ATOM     21  C   UNL     1      -8.687  -9.649  15.656  0.00  0.00    +0.322 C 
BRANCH  21   1
ATOM      1  O   UNL     1      -9.082  -8.355  15.593  0.00  0.00    -0.480 OA
ATOM     29  H   UNL     1      -8.327  -7.750  15.421  0.00  0.00    +0.295 HD
ENDBRANCH  21   1
ENDBRANCH  12  21
BRANCH   7  10
ATOM     10  C   UNL     1      -5.155 -11.862  17.604  0.00  0.00    +0.026 C 
BRANCH  10  15
ATOM     15  C   UNL     1      -4.739 -11.375  18.995  0.00  0.00    -0.015 C 
ATOM     22  C   UNL     1      -5.901 -11.374  19.990  0.00  0.00    +0.007 C 
ATOM     23  C   UNL     1      -3.607 -12.259  19.523  0.00  0.00    +0.007 C 
ENDBRANCH  10  15
ENDBRANCH   7  10
BRANCH   4  19
ATOM     19  C   UNL     1      -3.161 -10.144  10.759  0.00  0.00    +0.196 C 
BRANCH  19  24
ATOM      5  N   UNL     1      -4.375 -11.425   8.963  0.00  0.00    -0.336 N 
ATOM      6  N   UNL     1      -4.446  -9.211   8.806  0.00  0.00    -0.239 NA
ATOM     24  C   UNL     1      -3.996 -10.230   9.506  0.00  0.00    +0.129 A 
ATOM     25  C   UNL     1      -5.113 -11.153   7.846  0.00  0.00    +0.106 A 
ATOM     26  C   UNL     1      -4.062 -12.744   9.463  0.00  0.00    +0.150 C 
ATOM     27  C   UNL     1      -5.143  -9.780   7.770  0.00  0.00    +0.130 A 
ENDBRANCH  19  24
ENDBRANCH   4  19
TORSDOF 6
ENDMDL
MODEL 5
REMARK VINA RESULT:      -6.3     29.062     30.674
REMARK  Name = 51138178
REMARK  9 active torsions:
REMARK  status: ('A' for Active; 'I' for Inactive)
REMARK    1  A    between atoms: O_1  and  C_21
REMARK    2  A    between atoms: N_4  and  C_19
REMARK    3  A    between atoms: N_5  and  C_26
REMARK    4  A    between atoms: C_7  and  C_10
REMARK    5  A    between atoms: C_10  and  C_15
REMARK    6  A    between atoms: CA_12  and  C_21
REMARK    7  A    between atoms: C_15  and  C_22
REMARK    8  A    between atoms: C_15  and  C_23
REMARK    9  A    between atoms: C_19  and  C_24
REMARK                            x       y       z     vdW  Elec       q    Type
REMARK                         _______ _______ _______ _____ _____    ______ ____
ROOT
ATOM      3  N   UNL     1     -15.871   0.735  28.968  0.00  0.00    -0.297 NA
ATOM      4  N   UNL     1     -16.020   4.773  31.996  0.00  0.00    -0.339 N 
ATOM      7  C   UNL     1     -16.074   1.889  28.082  0.00  0.00    +0.085 C 
ATOM      8  C   UNL     1     -16.339   3.228  28.778  0.00  0.00    -0.021 A 
ATOM      9  C   UNL     1     -16.073   3.506  30.150  0.00  0.00    +0.008 A 
ATOM     11  C   UNL     1     -15.522   2.742  31.237  0.00  0.00    -0.020 A 
ATOM     12  CA  UNL     1     -14.691   0.819  29.817  0.00  0.00    +0.168 C 
ATOM     13  C   UNL     1     -15.040   1.331  31.213  0.00  0.00    +0.067 C 
ATOM     14  C   UNL     1     -16.349   4.779  30.661  0.00  0.00    +0.050 A 
ATOM     16  C   UNL     1     -15.517   3.557  32.351  0.00  0.00    +0.091 A 
ATOM     17  C   UNL     1     -16.813   4.315  28.000  0.00  0.00    +0.006 A 
ATOM     18  C   UNL     1     -16.860   5.824  29.889  0.00  0.00    +0.026 A 
ATOM     20  C   UNL     1     -17.076   5.572  28.540  0.00  0.00    +0.002 A 
ATOM     28  H   UNL     1     -16.708   0.547  29.518  0.00  0.00    +0.123 HD
ENDROOT
BRANCH  12  21
ATOM      2  OXT UNL     1     -13.113  -0.979  29.476  0.00  0.00    -0.249 OA
ATOM     21  C   UNL     1     -14.181  -0.585  29.922  0.00  0.00    +0.322 C 
BRANCH  21   1
ATOM      1  O   UNL     1     -15.067  -1.369  30.581  0.00  0.00    -0.480 OA
ATOM     29  H   UNL     1     -14.667  -1.789  31.372  0.00  0.00    +0.295 HD
ENDBRANCH  21   1
ENDBRANCH  12  21
BRANCH   7  10
ATOM     10  C   UNL     1     -17.228   1.469  27.153  0.00  0.00    +0.026 C 
BRANCH  10  15
ATOM     15  C   UNL     1     -16.756   1.101  25.743  0.00  0.00    -0.015 C 
ATOM     22  C   UNL     1     -17.833   0.379  24.932  0.00  0.00    +0.007 C 
ATOM     23  C   UNL     1     -16.322   2.372  25.008  0.00  0.00    +0.007 C 
ENDBRANCH  10  15
ENDBRANCH   7  10
BRANCH   4  19
ATOM     19  C   UNL     1     -16.161   5.892  32.904  0.00  0.00    +0.196 C 
BRANCH  19  24
ATOM      5  N   UNL     1     -14.007   6.690  33.935  0.00  0.00    -0.336 N 
ATOM      6  N   UNL     1     -14.648   7.727  32.079  0.00  0.00    -0.239 NA
ATOM     24  C   UNL     1     -14.947   6.784  32.947  0.00  0.00    +0.129 A 
ATOM     25  C   UNL     1     -13.049   7.631  33.682  0.00  0.00    +0.106 A 
ATOM     26  C   UNL     1     -14.009   5.771  35.049  0.00  0.00    +0.150 C 
ATOM     27  C   UNL     1     -13.467   8.257  32.531  0.00  0.00    +0.130 A 
ENDBRANCH  19  24
ENDBRANCH   4  19
TORSDOF 6
ENDMDL
MODEL 6
REMARK VINA RESULT:      -6.2     27.023     29.204
REMARK  Name = 51138178
REMARK  9 active torsions:
REMARK  status: ('A' for Active; 'I' for Inactive)
REMARK    1  A    between atoms: O_1  and  C_21
REMARK    2  A    between atoms: N_4  and  C_19
REMARK    3  A    between atoms: N_5  and  C_26
REMARK    4  A    between atoms: C_7  and  C_10
REMARK    5  A    between atoms: C_10  and  C_15
REMARK    6  A    between atoms: CA_12  and  C_21
REMARK    7  A    between atoms: C_15  and  C_22
REMARK    8  A    between atoms: C_15  and  C_23
REMARK    9  A    between atoms: C_19  and  C_24
REMARK                            x       y       z     vdW  Elec       q    Type
REMARK                         _______ _______ _______ _____ _____    ______ ____
ROOT
ATOM      3  N   UNL     1      -8.407 -10.375  17.889  0.00  0.00    -0.297 NA
ATOM      4  N   UNL     1      -3.677 -10.787  16.169  0.00  0.00    -0.339 N 
ATOM      7  C   UNL     1      -7.593 -10.756  19.051  0.00  0.00    +0.085 C 
ATOM      8  C   UNL     1      -6.135 -11.125  18.755  0.00  0.00    -0.021 A 
ATOM      9  C   UNL     1      -5.438 -10.810  17.553  0.00  0.00    +0.008 A 
ATOM     11  C   UNL     1      -5.791 -10.115  16.344  0.00  0.00    -0.020 A 
ATOM     12  CA  UNL     1      -7.970  -9.163  17.211  0.00  0.00    +0.168 C 
ATOM     13  C   UNL     1      -7.097  -9.483  15.998  0.00  0.00    +0.067 C 
ATOM     14  C   UNL     1      -4.099 -11.193  17.412  0.00  0.00    +0.050 A 
ATOM     16  C   UNL     1      -4.683 -10.133  15.521  0.00  0.00    +0.091 A 
ATOM     17  C   UNL     1      -5.376 -11.761  19.770  0.00  0.00    +0.006 A 
ATOM     18  C   UNL     1      -3.382 -11.861  18.407  0.00  0.00    +0.026 A 
ATOM     20  C   UNL     1      -4.044 -12.128  19.599  0.00  0.00    +0.002 A 
ATOM     28  H   UNL     1      -8.494 -11.152  17.235  0.00  0.00    +0.123 HD
ENDROOT
BRANCH  12  21
ATOM      2  OXT UNL     1      -9.777  -8.702  15.674  0.00  0.00    -0.249 OA
ATOM     21  C   UNL     1      -9.228  -8.496  16.747  0.00  0.00    +0.322 C 
BRANCH  21   1
ATOM      1  O   UNL     1      -9.681  -7.625  17.681  0.00  0.00    -0.480 OA
ATOM     29  H   UNL     1     -10.520  -7.929  18.089  0.00  0.00    +0.295 HD
ENDBRANCH  21   1
ENDBRANCH  12  21
BRANCH   7  10
ATOM     10  C   UNL     1      -8.371 -11.910  19.710  0.00  0.00    +0.026 C 
BRANCH  10  15
ATOM     15  C   UNL     1      -9.189 -12.729  18.707  0.00  0.00    -0.015 C 
ATOM     22  C   UNL     1      -8.456 -13.987  18.238  0.00  0.00    +0.007 C 
ATOM     23  C   UNL     1     -10.526 -13.117  19.343  0.00  0.00    +0.007 C 
ENDBRANCH  10  15
ENDBRANCH   7  10
BRANCH   4  19
ATOM     19  C   UNL     1      -2.355 -10.996  15.618  0.00  0.00    +0.196 C 
BRANCH  19  24
ATOM      5  N   UNL     1      -2.673 -12.460  13.593  0.00  0.00    -0.336 N 
ATOM      6  N   UNL     1      -2.074 -10.358  13.199  0.00  0.00    -0.239 NA
ATOM     24  C   UNL     1      -2.360 -11.242  14.130  0.00  0.00    +0.129 A 
ATOM     25  C   UNL     1      -2.583 -12.346  12.235  0.00  0.00    +0.106 A 
ATOM     26  C   UNL     1      -3.036 -13.658  14.314  0.00  0.00    +0.150 C 
ATOM     27  C   UNL     1      -2.212 -11.039  12.016  0.00  0.00    +0.130 A 
ENDBRANCH  19  24
ENDBRANCH   4  19
TORSDOF 6
ENDMDL
MODEL 7
REMARK VINA RESULT:      -6.2     27.519     29.477
REMARK  Name = 51138178
REMARK  9 active torsions:
REMARK  status: ('A' for Active; 'I' for Inactive)
REMARK    1  A    between atoms: O_1  and  C_21
REMARK    2  A    between atoms: N_4  and  C_19
REMARK    3  A    between atoms: N_5  and  C_26
REMARK    4  A    between atoms: C_7  and  C_10
REMARK    5  A    between atoms: C_10  and  C_15
REMARK    6  A    between atoms: CA_12  and  C_21
REMARK    7  A    between atoms: C_15  and  C_22
REMARK    8  A    between atoms: C_15  and  C_23
REMARK    9  A    between atoms: C_19  and  C_24
REMARK                            x       y       z     vdW  Elec       q    Type
REMARK                         _______ _______ _______ _____ _____    ______ ____
ROOT
ATOM      3  N   UNL     1      -7.552  -9.580  17.864  0.00  0.00    -0.297 NA
ATOM      4  N   UNL     1      -3.899 -10.616  14.535  0.00  0.00    -0.339 N 
ATOM      7  C   UNL     1      -8.224  -9.710  16.564  0.00  0.00    +0.085 C 
ATOM      8  C   UNL     1      -7.304  -9.846  15.346  0.00  0.00    -0.021 A 
ATOM      9  C   UNL     1      -5.922 -10.189  15.396  0.00  0.00    +0.008 A 
ATOM     11  C   UNL     1      -5.007 -10.505  16.460  0.00  0.00    -0.020 A 
ATOM     12  CA  UNL     1      -6.768 -10.740  18.263  0.00  0.00    +0.168 C 
ATOM     13  C   UNL     1      -5.289 -10.562  17.924  0.00  0.00    +0.067 C 
ATOM     14  C   UNL     1      -5.194 -10.293  14.205  0.00  0.00    +0.050 A 
ATOM     16  C   UNL     1      -3.777 -10.751  15.886  0.00  0.00    +0.091 A 
ATOM     17  C   UNL     1      -7.865  -9.698  14.052  0.00  0.00    +0.006 A 
ATOM     18  C   UNL     1      -5.755 -10.098  12.942  0.00  0.00    +0.026 A 
ATOM     20  C   UNL     1      -7.112  -9.810  12.885  0.00  0.00    +0.002 A 
ATOM     28  H   UNL     1      -6.994  -8.727  17.901  0.00  0.00    +0.123 HD
ENDROOT
BRANCH  12  21
ATOM      2  OXT UNL     1      -6.033 -11.122  20.533  0.00  0.00    -0.249 OA
ATOM     21  C   UNL     1      -6.924 -10.827  19.751  0.00  0.00    +0.322 C 
BRANCH  21   1
ATOM      1  O   UNL     1      -8.195 -10.533  20.117  0.00  0.00    -0.480 OA
ATOM     29  H   UNL     1      -8.281 -10.431  21.090  0.00  0.00    +0.295 HD
ENDBRANCH  21   1
ENDBRANCH  12  21
BRANCH   7  10
ATOM     10  C   UNL     1      -9.142  -8.478  16.475  0.00  0.00    +0.026 C 
BRANCH  10  15
ATOM     15  C   UNL     1     -10.489  -8.685  17.176  0.00  0.00    -0.015 C 
ATOM     22  C   UNL     1     -11.556  -7.694  16.705  0.00  0.00    +0.007 C 
ATOM     23  C   UNL     1     -10.970 -10.117  16.933  0.00  0.00    +0.007 C 
ENDBRANCH  10  15
ENDBRANCH   7  10
BRANCH   4  19
ATOM     19  C   UNL     1      -2.813 -10.808  13.597  0.00  0.00    +0.196 C 
BRANCH  19  24
ATOM      5  N   UNL     1      -2.822 -12.880  12.167  0.00  0.00    -0.336 N 
ATOM      6  N   UNL     1      -1.891 -13.078  14.173  0.00  0.00    -0.239 NA
ATOM     24  C   UNL     1      -2.495 -12.259  13.339  0.00  0.00    +0.129 A 
ATOM     25  C   UNL     1      -2.399 -14.177  12.257  0.00  0.00    +0.106 A 
ATOM     26  C   UNL     1      -3.490 -12.291  11.029  0.00  0.00    +0.150 C 
ATOM     27  C   UNL     1      -1.828 -14.274  13.504  0.00  0.00    +0.130 A 
ENDBRANCH  19  24
ENDBRANCH   4  19
TORSDOF 6
ENDMDL
MODEL 8
REMARK VINA RESULT:      -6.0     24.595     26.802
REMARK  Name = 51138178
REMARK  9 active torsions:
REMARK  status: ('A' for Active; 'I' for Inactive)
REMARK    1  A    between atoms: O_1  and  C_21
REMARK    2  A    between atoms: N_4  and  C_19
REMARK    3  A    between atoms: N_5  and  C_26
REMARK    4  A    between atoms: C_7  and  C_10
REMARK    5  A    between atoms: C_10  and  C_15
REMARK    6  A    between atoms: CA_12  and  C_21
REMARK    7  A    between atoms: C_15  and  C_22
REMARK    8  A    between atoms: C_15  and  C_23
REMARK    9  A    between atoms: C_19  and  C_24
REMARK                            x       y       z     vdW  Elec       q    Type
REMARK                         _______ _______ _______ _____ _____    ______ ____
ROOT
ATOM      3  N   UNL     1     -14.550   7.290  23.065  0.00  0.00    -0.297 NA
ATOM      4  N   UNL     1     -10.987   8.871  19.856  0.00  0.00    -0.339 N 
ATOM      7  C   UNL     1     -14.894   8.681  22.743  0.00  0.00    +0.085 C 
ATOM      8  C   UNL     1     -13.857   9.454  21.921  0.00  0.00    -0.021 A 
ATOM      9  C   UNL     1     -12.793   8.863  21.180  0.00  0.00    +0.008 A 
ATOM     11  C   UNL     1     -12.364   7.510  20.950  0.00  0.00    -0.020 A 
ATOM     12  CA  UNL     1     -14.430   6.410  21.913  0.00  0.00    +0.168 C 
ATOM     13  C   UNL     1     -12.975   6.254  21.474  0.00  0.00    +0.067 C 
ATOM     14  C   UNL     1     -11.919   9.683  20.457  0.00  0.00    +0.050 A 
ATOM     16  C   UNL     1     -11.249   7.564  20.141  0.00  0.00    +0.091 A 
ATOM     17  C   UNL     1     -13.991  10.862  21.810  0.00  0.00    +0.006 A 
ATOM     18  C   UNL     1     -12.039  11.073  20.398  0.00  0.00    +0.026 A 
ATOM     20  C   UNL     1     -13.104  11.649  21.079  0.00  0.00    +0.002 A 
ATOM     28  H   UNL     1     -13.716   7.248  23.650  0.00  0.00    +0.123 HD
ENDROOT
BRANCH  12  21
ATOM      2  OXT UNL     1     -15.999   4.910  22.975  0.00  0.00    -0.249 OA
ATOM     21  C   UNL     1     -14.948   5.082  22.376  0.00  0.00    +0.322 C 
BRANCH  21   1
ATOM      1  O   UNL     1     -14.088   4.090  22.042  0.00  0.00    -0.480 OA
ATOM     29  H   UNL     1     -13.688   3.670  22.834  0.00  0.00    +0.295 HD
ENDBRANCH  21   1
ENDBRANCH  12  21
BRANCH   7  10
ATOM     10  C   UNL     1     -15.176   9.339  24.106  0.00  0.00    +0.026 C 
BRANCH  10  15
ATOM     15  C   UNL     1     -16.648   9.714  24.296  0.00  0.00    -0.015 C 
ATOM     22  C   UNL     1     -17.413   9.791  22.974  0.00  0.00    +0.007 C 
ATOM     23  C   UNL     1     -17.315   8.691  25.220  0.00  0.00    +0.007 C 
ENDBRANCH  10  15
ENDBRANCH   7  10
BRANCH   4  19
ATOM     19  C   UNL     1      -9.892   9.319  19.021  0.00  0.00    +0.196 C 
BRANCH  19  24
ATOM      5  N   UNL     1     -10.298  10.456  16.812  0.00  0.00    -0.336 N 
ATOM      6  N   UNL     1     -10.461   8.242  16.818  0.00  0.00    -0.239 NA
ATOM     24  C   UNL     1     -10.219   9.308  17.549  0.00  0.00    +0.129 A 
ATOM     25  C   UNL     1     -10.609  10.100  15.529  0.00  0.00    +0.106 A 
ATOM     26  C   UNL     1     -10.093  11.806  17.283  0.00  0.00    +0.150 C 
ATOM     27  C   UNL     1     -10.704   8.728  15.559  0.00  0.00    +0.130 A 
ENDBRANCH  19  24
ENDBRANCH   4  19
TORSDOF 6
ENDMDL
MODEL 9
REMARK VINA RESULT:      -5.9     28.952     30.237
REMARK  Name = 51138178
REMARK  9 active torsions:
REMARK  status: ('A' for Active; 'I' for Inactive)
REMARK    1  A    between atoms: O_1  and  C_21
REMARK    2  A    between atoms: N_4  and  C_19
REMARK    3  A    between atoms: N_5  and  C_26
REMARK    4  A    between atoms: C_7  and  C_10
REMARK    5  A    between atoms: C_10  and  C_15
REMARK    6  A    between atoms: CA_12  and  C_21
REMARK    7  A    between atoms: C_15  and  C_22
REMARK    8  A    between atoms: C_15  and  C_23
REMARK    9  A    between atoms: C_19  and  C_24
REMARK                            x       y       z     vdW  Elec       q    Type
REMARK                         _______ _______ _______ _____ _____    ______ ____
ROOT
ATOM      3  N   UNL     1     -15.136   2.777  28.930  0.00  0.00    -0.297 NA
ATOM      4  N   UNL     1     -15.968   6.396  32.352  0.00  0.00    -0.339 N 
ATOM      7  C   UNL     1     -14.977   2.130  30.240  0.00  0.00    +0.085 C 
ATOM      8  C   UNL     1     -15.000   3.064  31.454  0.00  0.00    -0.021 A 
ATOM      9  C   UNL     1     -15.487   4.404  31.450  0.00  0.00    +0.008 A 
ATOM     11  C   UNL     1     -16.069   5.253  30.446  0.00  0.00    -0.020 A 
ATOM     12  CA  UNL     1     -16.420   3.430  28.726  0.00  0.00    +0.168 C 
ATOM     13  C   UNL     1     -16.341   4.928  29.016  0.00  0.00    +0.067 C 
ATOM     14  C   UNL     1     -15.464   5.149  32.634  0.00  0.00    +0.050 A 
ATOM     16  C   UNL     1     -16.339   6.468  31.042  0.00  0.00    +0.091 A 
ATOM     17  C   UNL     1     -14.581   2.555  32.710  0.00  0.00    +0.006 A 
ATOM     18  C   UNL     1     -15.004   4.644  33.852  0.00  0.00    +0.026 A 
ATOM     20  C   UNL     1     -14.573   3.324  33.872  0.00  0.00    +0.002 A 
ATOM     28  H   UNL     1     -14.363   3.416  28.744  0.00  0.00    +0.123 HD
ENDROOT
BRANCH  12  21
ATOM      2  OXT UNL     1     -17.815   2.844  26.841  0.00  0.00    -0.249 OA
ATOM     21  C   UNL     1     -16.739   3.228  27.276  0.00  0.00    +0.322 C 
BRANCH  21   1
ATOM      1  O   UNL     1     -15.667   3.526  26.504  0.00  0.00    -0.480 OA
ATOM     29  H   UNL     1     -15.070   4.172  26.940  0.00  0.00    +0.295 HD
ENDBRANCH  21   1
ENDBRANCH  12  21
BRANCH   7  10
ATOM     10  C   UNL     1     -13.660   1.341  30.127  0.00  0.00    +0.026 C 
BRANCH  10  15
ATOM     15  C   UNL     1     -13.826  -0.148  30.447  0.00  0.00    -0.015 C 
ATOM     22  C   UNL     1     -15.268  -0.518  30.798  0.00  0.00    +0.007 C 
ATOM     23  C   UNL     1     -13.356  -0.977  29.250  0.00  0.00    +0.007 C 
ENDBRANCH  10  15
ENDBRANCH   7  10
BRANCH   4  19
ATOM     19  C   UNL     1     -16.110   7.482  33.299  0.00  0.00    +0.196 C 
BRANCH  19  24
ATOM      5  N   UNL     1     -13.952   8.759  33.526  0.00  0.00    -0.336 N 
ATOM      6  N   UNL     1     -15.508   9.684  32.239  0.00  0.00    -0.239 NA
ATOM     24  C   UNL     1     -15.211   8.655  33.003  0.00  0.00    +0.129 A 
ATOM     25  C   UNL     1     -13.412   9.928  33.066  0.00  0.00    +0.106 A 
ATOM     26  C   UNL     1     -13.297   7.817  34.403  0.00  0.00    +0.150 C 
ATOM     27  C   UNL     1     -14.391  10.480  32.274  0.00  0.00    +0.130 A 
ENDBRANCH  19  24
ENDBRANCH   4  19
TORSDOF 6
ENDMDL
MODEL 10
REMARK VINA RESULT:      -5.6     27.411     29.282
REMARK  Name = 51138178
REMARK  9 active torsions:
REMARK  status: ('A' for Active; 'I' for Inactive)
REMARK    1  A    between atoms: O_1  and  C_21
REMARK    2  A    between atoms: N_4  and  C_19
REMARK    3  A    between atoms: N_5  and  C_26
REMARK    4  A    between atoms: C_7  and  C_10
REMARK    5  A    between atoms: C_10  and  C_15
REMARK    6  A    between atoms: CA_12  and  C_21
REMARK    7  A    between atoms: C_15  and  C_22
REMARK    8  A    between atoms: C_15  and  C_23
REMARK    9  A    between atoms: C_19  and  C_24
REMARK                            x       y       z     vdW  Elec       q    Type
REMARK                         _______ _______ _______ _____ _____    ______ ____
ROOT
ATOM      3  N   UNL     1      -3.405 -12.878  14.940  0.00  0.00    -0.297 NA
ATOM      4  N   UNL     1      -4.713  -9.509  11.413  0.00  0.00    -0.339 N 
ATOM      7  C   UNL     1      -4.861 -12.720  15.062  0.00  0.00    +0.085 C 
ATOM      8  C   UNL     1      -5.485 -11.605  14.215  0.00  0.00    -0.021 A 
ATOM      9  C   UNL     1      -4.856 -10.964  13.109  0.00  0.00    +0.008 A 
ATOM     11  C   UNL     1      -3.582 -11.115  12.458  0.00  0.00    -0.020 A 
ATOM     12  CA  UNL     1      -2.944 -13.273  13.617  0.00  0.00    +0.168 C 
ATOM     13  C   UNL     1      -2.485 -12.066  12.800  0.00  0.00    +0.067 C 
ATOM     14  C   UNL     1      -5.542  -9.966  12.409  0.00  0.00    +0.050 A 
ATOM     16  C   UNL     1      -3.535 -10.196  11.430  0.00  0.00    +0.091 A 
ATOM     17  C   UNL     1      -6.822 -11.215  14.486  0.00  0.00    +0.006 A 
ATOM     18  C   UNL     1      -6.843  -9.563  12.721  0.00  0.00    +0.026 A 
ATOM     20  C   UNL     1      -7.478 -10.218  13.768  0.00  0.00    +0.002 A 
ATOM     28  H   UNL     1      -2.920 -12.043  15.266  0.00  0.00    +0.123 HD
ENDROOT
BRANCH  12  21
ATOM      2  OXT UNL     1      -1.823 -15.245  14.449  0.00  0.00    -0.249 OA
ATOM     21  C   UNL     1      -1.773 -14.174  13.861  0.00  0.00    +0.322 C 
BRANCH  21   1
ATOM      1  O   UNL     1      -0.642 -13.641  13.340  0.00  0.00    -0.480 OA
ATOM     29  H   UNL     1       0.163 -14.091  13.677  0.00  0.00    +0.295 HD
ENDBRANCH  21   1
ENDBRANCH  12  21
BRANCH   7  10
ATOM     10  C   UNL     1      -5.107 -12.525  16.568  0.00  0.00    +0.026 C 
BRANCH  10  15
ATOM     15  C   UNL     1      -4.114 -11.556  17.217  0.00  0.00    -0.015 C 
ATOM     22  C   UNL     1      -4.509 -10.091  17.026  0.00  0.00    +0.007 C 
ATOM     23  C   UNL     1      -4.002 -11.871  18.710  0.00  0.00    +0.007 C 
ENDBRANCH  10  15
ENDBRANCH   7  10
BRANCH   4  19
ATOM     19  C   UNL     1      -5.032  -8.465  10.463  0.00  0.00    +0.196 C 
BRANCH  19  24
ATOM      5  N   UNL     1      -6.808  -8.900   8.732  0.00  0.00    -0.336 N 
ATOM      6  N   UNL     1      -4.757  -9.584   8.225  0.00  0.00    -0.239 NA
ATOM     24  C   UNL     1      -5.504  -8.992   9.131  0.00  0.00    +0.129 A 
ATOM     25  C   UNL     1      -6.899  -9.468   7.492  0.00  0.00    +0.106 A 
ATOM     26  C   UNL     1      -7.902  -8.313   9.470  0.00  0.00    +0.150 C 
ATOM     27  C   UNL     1      -5.620  -9.882   7.201  0.00  0.00    +0.130 A 
ENDBRANCH  19  24
ENDBRANCH   4  19
TORSDOF 6
ENDMDL
