MODEL 1
REMARK VINA RESULT:      -7.2      0.000      0.000
REMARK  Name = 45783804
REMARK  7 active torsions:
REMARK  status: ('A' for Active; 'I' for Inactive)
REMARK    1  A    between atoms: N_3  and  C_12
REMARK    2  A    between atoms: N_7  and  C_25
REMARK    3  A    between atoms: N_7  and  C_26
REMARK    4  A    between atoms: N_7  and  C_27
REMARK    5  A    between atoms: C_8  and  C_13
REMARK    6  A    between atoms: C_12  and  C_14
REMARK    7  A    between atoms: C_17  and  C_18
REMARK                            x       y       z     vdW  Elec       q    Type
REMARK                         _______ _______ _______ _____ _____    ______ ____
ROOT
ATOM      2  O   UNL     1      14.977   8.909  19.541  0.00  0.00    -0.336 OA
ATOM      4  N   UNL     1      15.881   6.942  18.966  0.00  0.00    -0.190 NA
ATOM      5  N   UNL     1      16.122   8.759  20.334  0.00  0.00    -0.056 NA
ATOM     13  C   UNL     1      14.908   7.795  18.765  0.00  0.00    +0.245 A 
ATOM     17  C   UNL     1      16.600   7.576  19.936  0.00  0.00    +0.204 A 
ENDROOT
BRANCH  17  18
ATOM      6  N   UNL     1      19.495   7.027  22.204  0.00  0.00    -0.240 NA
ATOM     18  C   UNL     1      17.791   6.999  20.489  0.00  0.00    +0.041 A 
ATOM     22  C   UNL     1      18.397   5.898  19.895  0.00  0.00    +0.016 A 
ATOM     23  C   UNL     1      18.374   7.522  21.632  0.00  0.00    +0.124 A 
ATOM     24  C   UNL     1      19.551   5.361  20.453  0.00  0.00    +0.044 A 
ATOM     25  C   UNL     1      20.056   5.956  21.597  0.00  0.00    +0.121 A 
BRANCH  25   7
ATOM      7  N   UNL     1      21.232   5.397  22.155  0.00  0.00    -0.321 N 
ATOM     26  C   UNL     1      21.833   4.224  21.560  0.00  0.00    +0.130 C 
ATOM     27  C   UNL     1      21.835   5.991  23.328  0.00  0.00    +0.130 C 
ENDBRANCH  25   7
ENDBRANCH  17  18
BRANCH  13   8
ATOM      3  N   UNL     1      12.575   8.496  18.258  0.00  0.00    -0.287 NA
ATOM      8  C   UNL     1      13.741   7.713  17.803  0.00  0.00    +0.146 C 
ATOM      9  C   UNL     1      14.077   8.282  16.413  0.00  0.00    +0.030 C 
ATOM     10  C   UNL     1      13.010   9.334  16.146  0.00  0.00    +0.017 C 
ATOM     11  C   UNL     1      11.867   8.922  17.050  0.00  0.00    +0.085 C 
BRANCH   3  12
ATOM     12  C   UNL     1      11.710   7.761  19.171  0.00  0.00    +0.120 C 
BRANCH  12  14
ATOM      1  F   UNL     1      10.679  10.668  23.886  0.00  0.00    -0.205 F 
ATOM     14  C   UNL     1      11.435   8.539  20.431  0.00  0.00    -0.033 A 
ATOM     15  C   UNL     1      10.788   7.922  21.503  0.00  0.00    +0.008 A 
ATOM     16  C   UNL     1      11.825   9.874  20.526  0.00  0.00    +0.008 A 
ATOM     19  C   UNL     1      10.534   8.642  22.670  0.00  0.00    +0.038 A 
ATOM     20  C   UNL     1      11.569  10.594  21.693  0.00  0.00    +0.038 A 
ATOM     21  C   UNL     1      10.923   9.977  22.766  0.00  0.00    +0.123 A 
ENDBRANCH  12  14
ENDBRANCH   3  12
ENDBRANCH  13   8
TORSDOF 5
ENDMDL
MODEL 2
REMARK VINA RESULT:      -6.9      3.799      8.224
REMARK  Name = 45783804
REMARK  7 active torsions:
REMARK  status: ('A' for Active; 'I' for Inactive)
REMARK    1  A    between atoms: N_3  and  C_12
REMARK    2  A    between atoms: N_7  and  C_25
REMARK    3  A    between atoms: N_7  and  C_26
REMARK    4  A    between atoms: N_7  and  C_27
REMARK    5  A    between atoms: C_8  and  C_13
REMARK    6  A    between atoms: C_12  and  C_14
REMARK    7  A    between atoms: C_17  and  C_18
REMARK                            x       y       z     vdW  Elec       q    Type
REMARK                         _______ _______ _______ _____ _____    ______ ____
ROOT
ATOM      2  O   UNL     1      11.784   7.208  21.784  0.00  0.00    -0.336 OA
ATOM      4  N   UNL     1      12.874   9.136  21.451  0.00  0.00    -0.190 NA
ATOM      5  N   UNL     1      11.028   8.198  22.424  0.00  0.00    -0.056 NA
ATOM     13  C   UNL     1      12.854   7.844  21.238  0.00  0.00    +0.245 A 
ATOM     17  C   UNL     1      11.735   9.306  22.182  0.00  0.00    +0.204 A 
ENDROOT
BRANCH  17  18
ATOM      6  N   UNL     1      10.520  11.967  24.478  0.00  0.00    -0.240 NA
ATOM     18  C   UNL     1      11.332  10.598  22.658  0.00  0.00    +0.041 A 
ATOM     22  C   UNL     1      11.350  11.708  21.821  0.00  0.00    +0.016 A 
ATOM     23  C   UNL     1      10.913  10.778  23.966  0.00  0.00    +0.124 A 
ATOM     24  C   UNL     1      10.953  12.947  22.311  0.00  0.00    +0.044 A 
ATOM     25  C   UNL     1      10.551  13.024  23.634  0.00  0.00    +0.121 A 
BRANCH  25   7
ATOM      7  N   UNL     1      10.151  14.293  24.118  0.00  0.00    -0.321 N 
ATOM     26  C   UNL     1       9.218  15.099  23.362  0.00  0.00    +0.130 C 
ATOM     27  C   UNL     1      10.677  14.794  25.369  0.00  0.00    +0.130 C 
ENDBRANCH  25   7
ENDBRANCH  17  18
BRANCH  13   8
ATOM      3  N   UNL     1      14.530   7.718  19.403  0.00  0.00    -0.287 NA
ATOM      8  C   UNL     1      13.839   6.980  20.478  0.00  0.00    +0.146 C 
ATOM      9  C   UNL     1      14.969   6.441  21.374  0.00  0.00    +0.030 C 
ATOM     10  C   UNL     1      16.258   6.873  20.690  0.00  0.00    +0.017 C 
ATOM     11  C   UNL     1      15.843   7.089  19.249  0.00  0.00    +0.085 C 
BRANCH   3  12
ATOM     12  C   UNL     1      13.784   7.744  18.152  0.00  0.00    +0.120 C 
BRANCH  12  14
ATOM      1  F   UNL     1      14.331  12.680  15.490  0.00  0.00    -0.205 F 
ATOM     14  C   UNL     1      13.931   9.063  17.440  0.00  0.00    -0.033 A 
ATOM     15  C   UNL     1      13.899  10.254  18.167  0.00  0.00    +0.008 A 
ATOM     16  C   UNL     1      14.097   9.094  16.056  0.00  0.00    +0.008 A 
ATOM     19  C   UNL     1      14.035  11.475  17.507  0.00  0.00    +0.038 A 
ATOM     20  C   UNL     1      14.232  10.316  15.397  0.00  0.00    +0.038 A 
ATOM     21  C   UNL     1      14.201  11.508  16.123  0.00  0.00    +0.123 A 
ENDBRANCH  12  14
ENDBRANCH   3  12
ENDBRANCH  13   8
TORSDOF 5
ENDMDL
MODEL 3
REMARK VINA RESULT:      -6.8     25.975     29.232
REMARK  Name = 45783804
REMARK  7 active torsions:
REMARK  status: ('A' for Active; 'I' for Inactive)
REMARK    1  A    between atoms: N_3  and  C_12
REMARK    2  A    between atoms: N_7  and  C_25
REMARK    3  A    between atoms: N_7  and  C_26
REMARK    4  A    between atoms: N_7  and  C_27
REMARK    5  A    between atoms: C_8  and  C_13
REMARK    6  A    between atoms: C_12  and  C_14
REMARK    7  A    between atoms: C_17  and  C_18
REMARK                            x       y       z     vdW  Elec       q    Type
REMARK                         _______ _______ _______ _____ _____    ______ ____
ROOT
ATOM      2  O   UNL     1      -5.089 -12.045  16.669  0.00  0.00    -0.336 OA
ATOM      4  N   UNL     1      -5.443 -10.160  15.512  0.00  0.00    -0.190 NA
ATOM      5  N   UNL     1      -6.394 -11.640  16.975  0.00  0.00    -0.056 NA
ATOM     13  C   UNL     1      -4.600 -11.119  15.802  0.00  0.00    +0.245 A 
ATOM     17  C   UNL     1      -6.529 -10.522  16.254  0.00  0.00    +0.204 A 
ENDROOT
BRANCH  17  18
ATOM      6  N   UNL     1      -9.622  -8.859  15.032  0.00  0.00    -0.240 NA
ATOM     18  C   UNL     1      -7.734  -9.744  16.256  0.00  0.00    +0.041 A 
ATOM     22  C   UNL     1      -8.190  -9.131  17.417  0.00  0.00    +0.016 A 
ATOM     23  C   UNL     1      -8.479  -9.579  15.100  0.00  0.00    +0.124 A 
ATOM     24  C   UNL     1      -9.361  -8.382  17.388  0.00  0.00    +0.044 A 
ATOM     25  C   UNL     1     -10.035  -8.278  16.182  0.00  0.00    +0.121 A 
BRANCH  25   7
ATOM      7  N   UNL     1     -11.226  -7.513  16.168  0.00  0.00    -0.321 N 
ATOM     26  C   UNL     1     -12.505  -8.154  16.377  0.00  0.00    +0.130 C 
ATOM     27  C   UNL     1     -11.173  -6.086  15.936  0.00  0.00    +0.130 C 
ENDBRANCH  25   7
ENDBRANCH  17  18
BRANCH  13   8
ATOM      3  N   UNL     1      -2.876 -10.544  14.102  0.00  0.00    -0.287 NA
ATOM      8  C   UNL     1      -3.184 -11.334  15.311  0.00  0.00    +0.146 C 
ATOM      9  C   UNL     1      -2.126 -10.899  16.343  0.00  0.00    +0.030 C 
ATOM     10  C   UNL     1      -1.233  -9.912  15.604  0.00  0.00    +0.017 C 
ATOM     11  C   UNL     1      -1.440 -10.266  14.146  0.00  0.00    +0.085 C 
BRANCH   3  12
ATOM     12  C   UNL     1      -3.269 -11.209  12.867  0.00  0.00    +0.120 C 
BRANCH  12  14
ATOM      1  F   UNL     1      -5.630  -7.626   9.215  0.00  0.00    -0.205 F 
ATOM     14  C   UNL     1      -3.901 -10.252  11.891  0.00  0.00    -0.033 A 
ATOM     15  C   UNL     1      -3.193  -9.841  10.761  0.00  0.00    +0.008 A 
ATOM     16  C   UNL     1      -5.191  -9.776  12.117  0.00  0.00    +0.008 A 
ATOM     19  C   UNL     1      -3.778  -8.954   9.858  0.00  0.00    +0.038 A 
ATOM     20  C   UNL     1      -5.776  -8.888  11.214  0.00  0.00    +0.038 A 
ATOM     21  C   UNL     1      -5.069  -8.478  10.083  0.00  0.00    +0.123 A 
ENDBRANCH  12  14
ENDBRANCH   3  12
ENDBRANCH  13   8
TORSDOF 5
ENDMDL
MODEL 4
REMARK VINA RESULT:      -6.8      2.536      4.205
REMARK  Name = 45783804
REMARK  7 active torsions:
REMARK  status: ('A' for Active; 'I' for Inactive)
REMARK    1  A    between atoms: N_3  and  C_12
REMARK    2  A    between atoms: N_7  and  C_25
REMARK    3  A    between atoms: N_7  and  C_26
REMARK    4  A    between atoms: N_7  and  C_27
REMARK    5  A    between atoms: C_8  and  C_13
REMARK    6  A    between atoms: C_12  and  C_14
REMARK    7  A    between atoms: C_17  and  C_18
REMARK                            x       y       z     vdW  Elec       q    Type
REMARK                         _______ _______ _______ _____ _____    ______ ____
ROOT
ATOM      2  O   UNL     1      14.375   6.900  19.426  0.00  0.00    -0.336 OA
ATOM      4  N   UNL     1      15.683   7.671  21.074  0.00  0.00    -0.190 NA
ATOM      5  N   UNL     1      15.656   6.392  19.177  0.00  0.00    -0.056 NA
ATOM     13  C   UNL     1      14.479   7.642  20.561  0.00  0.00    +0.245 A 
ATOM     17  C   UNL     1      16.370   6.890  20.191  0.00  0.00    +0.204 A 
ENDROOT
BRANCH  17  18
ATOM      6  N   UNL     1      19.918   7.329  21.213  0.00  0.00    -0.240 NA
ATOM     18  C   UNL     1      17.772   6.628  20.350  0.00  0.00    +0.041 A 
ATOM     22  C   UNL     1      18.350   5.477  19.829  0.00  0.00    +0.016 A 
ATOM     23  C   UNL     1      18.591   7.516  21.028  0.00  0.00    +0.124 A 
ATOM     24  C   UNL     1      19.711   5.250  19.998  0.00  0.00    +0.044 A 
ATOM     25  C   UNL     1      20.445   6.198  20.692  0.00  0.00    +0.121 A 
BRANCH  25   7
ATOM      7  N   UNL     1      21.829   5.953  20.857  0.00  0.00    -0.321 N 
ATOM     26  C   UNL     1      22.775   7.046  20.793  0.00  0.00    +0.130 C 
ATOM     27  C   UNL     1      22.309   4.608  21.085  0.00  0.00    +0.130 C 
ENDBRANCH  25   7
ENDBRANCH  17  18
BRANCH  13   8
ATOM      3  N   UNL     1      12.402   8.869  19.948  0.00  0.00    -0.287 NA
ATOM      8  C   UNL     1      13.210   8.309  21.050  0.00  0.00    +0.146 C 
ATOM      9  C   UNL     1      12.265   7.330  21.770  0.00  0.00    +0.030 C 
ATOM     10  C   UNL     1      10.934   7.454  21.042  0.00  0.00    +0.017 C 
ATOM     11  C   UNL     1      11.008   8.820  20.393  0.00  0.00    +0.085 C 
BRANCH   3  12
ATOM     12  C   UNL     1      12.808  10.214  19.564  0.00  0.00    +0.120 C 
BRANCH  12  14
ATOM      1  F   UNL     1      15.198  10.307  14.462  0.00  0.00    -0.205 F 
ATOM     14  C   UNL     1      13.447  10.238  18.200  0.00  0.00    -0.033 A 
ATOM     15  C   UNL     1      14.484  11.133  17.932  0.00  0.00    +0.008 A 
ATOM     16  C   UNL     1      13.002   9.368  17.206  0.00  0.00    +0.008 A 
ATOM     19  C   UNL     1      15.074  11.156  16.670  0.00  0.00    +0.038 A 
ATOM     20  C   UNL     1      13.593   9.392  15.943  0.00  0.00    +0.038 A 
ATOM     21  C   UNL     1      14.630  10.286  15.675  0.00  0.00    +0.123 A 
ENDBRANCH  12  14
ENDBRANCH   3  12
ENDBRANCH  13   8
TORSDOF 5
ENDMDL
MODEL 5
REMARK VINA RESULT:      -6.6      3.824      7.270
REMARK  Name = 45783804
REMARK  7 active torsions:
REMARK  status: ('A' for Active; 'I' for Inactive)
REMARK    1  A    between atoms: N_3  and  C_12
REMARK    2  A    between atoms: N_7  and  C_25
REMARK    3  A    between atoms: N_7  and  C_26
REMARK    4  A    between atoms: N_7  and  C_27
REMARK    5  A    between atoms: C_8  and  C_13
REMARK    6  A    between atoms: C_12  and  C_14
REMARK    7  A    between atoms: C_17  and  C_18
REMARK                            x       y       z     vdW  Elec       q    Type
REMARK                         _______ _______ _______ _____ _____    ______ ____
ROOT
ATOM      2  O   UNL     1      13.171   7.555  17.070  0.00  0.00    -0.336 OA
ATOM      4  N   UNL     1      13.593   9.548  18.001  0.00  0.00    -0.190 NA
ATOM      5  N   UNL     1      13.879   8.290  16.112  0.00  0.00    -0.056 NA
ATOM     13  C   UNL     1      13.045   8.368  18.152  0.00  0.00    +0.245 A 
ATOM     17  C   UNL     1      14.092   9.453  16.735  0.00  0.00    +0.204 A 
ENDROOT
BRANCH  17  18
ATOM      6  N   UNL     1      15.882  11.455  14.163  0.00  0.00    -0.240 NA
ATOM     18  C   UNL     1      14.797  10.541  16.121  0.00  0.00    +0.041 A 
ATOM     22  C   UNL     1      15.083  11.702  16.830  0.00  0.00    +0.016 A 
ATOM     23  C   UNL     1      15.215  10.467  14.802  0.00  0.00    +0.124 A 
ATOM     24  C   UNL     1      15.768  12.740  16.208  0.00  0.00    +0.044 A 
ATOM     25  C   UNL     1      16.143  12.569  14.885  0.00  0.00    +0.121 A 
BRANCH  25   7
ATOM      7  N   UNL     1      16.839  13.634  14.265  0.00  0.00    -0.321 N 
ATOM     26  C   UNL     1      17.109  13.598  12.844  0.00  0.00    +0.130 C 
ATOM     27  C   UNL     1      17.291  14.763  15.048  0.00  0.00    +0.130 C 
ENDBRANCH  25   7
ENDBRANCH  17  18
BRANCH  13   8
ATOM      3  N   UNL     1      13.097   7.869  20.589  0.00  0.00    -0.287 NA
ATOM      8  C   UNL     1      12.306   7.797  19.344  0.00  0.00    +0.146 C 
ATOM      9  C   UNL     1      11.008   8.562  19.660  0.00  0.00    +0.030 C 
ATOM     10  C   UNL     1      11.133   8.971  21.120  0.00  0.00    +0.017 C 
ATOM     11  C   UNL     1      12.132   7.982  21.684  0.00  0.00    +0.085 C 
BRANCH   3  12
ATOM     12  C   UNL     1      13.996   6.736  20.765  0.00  0.00    +0.120 C 
BRANCH  12  14
ATOM      1  F   UNL     1      19.386   8.355  21.037  0.00  0.00    -0.205 F 
ATOM     14  C   UNL     1      15.436   7.169  20.838  0.00  0.00    -0.033 A 
ATOM     15  C   UNL     1      16.438   6.348  20.319  0.00  0.00    +0.008 A 
ATOM     16  C   UNL     1      15.769   8.390  21.424  0.00  0.00    +0.008 A 
ATOM     19  C   UNL     1      17.771   6.749  20.386  0.00  0.00    +0.038 A 
ATOM     20  C   UNL     1      17.103   8.791  21.492  0.00  0.00    +0.038 A 
ATOM     21  C   UNL     1      18.105   7.970  20.972  0.00  0.00    +0.123 A 
ENDBRANCH  12  14
ENDBRANCH   3  12
ENDBRANCH  13   8
TORSDOF 5
ENDMDL
MODEL 6
REMARK VINA RESULT:      -6.6     26.527     29.634
REMARK  Name = 45783804
REMARK  7 active torsions:
REMARK  status: ('A' for Active; 'I' for Inactive)
REMARK    1  A    between atoms: N_3  and  C_12
REMARK    2  A    between atoms: N_7  and  C_25
REMARK    3  A    between atoms: N_7  and  C_26
REMARK    4  A    between atoms: N_7  and  C_27
REMARK    5  A    between atoms: C_8  and  C_13
REMARK    6  A    between atoms: C_12  and  C_14
REMARK    7  A    between atoms: C_17  and  C_18
REMARK                            x       y       z     vdW  Elec       q    Type
REMARK                         _______ _______ _______ _____ _____    ______ ____
ROOT
ATOM      2  O   UNL     1      -5.318  -9.531  15.988  0.00  0.00    -0.336 OA
ATOM      4  N   UNL     1      -5.878 -11.430  17.035  0.00  0.00    -0.190 NA
ATOM      5  N   UNL     1      -6.560  -9.292  16.590  0.00  0.00    -0.056 NA
ATOM     13  C   UNL     1      -4.989 -10.813  16.299  0.00  0.00    +0.245 A 
ATOM     17  C   UNL     1      -6.823 -10.458  17.188  0.00  0.00    +0.204 A 
ENDROOT
BRANCH  17  18
ATOM      6  N   UNL     1      -9.054 -11.295  20.043  0.00  0.00    -0.240 NA
ATOM     18  C   UNL     1      -8.021 -10.686  17.944  0.00  0.00    +0.041 A 
ATOM     22  C   UNL     1      -9.275 -10.531  17.364  0.00  0.00    +0.016 A 
ATOM     23  C   UNL     1      -7.964 -11.066  19.275  0.00  0.00    +0.124 A 
ATOM     24  C   UNL     1     -10.418 -10.759  18.121  0.00  0.00    +0.044 A 
ATOM     25  C   UNL     1     -10.256 -11.136  19.444  0.00  0.00    +0.121 A 
BRANCH  25   7
ATOM      7  N   UNL     1     -11.429 -11.363  20.203  0.00  0.00    -0.321 N 
ATOM     26  C   UNL     1     -11.690 -12.668  20.767  0.00  0.00    +0.130 C 
ATOM     27  C   UNL     1     -12.380 -10.293  20.412  0.00  0.00    +0.130 C 
ENDBRANCH  25   7
ENDBRANCH  17  18
BRANCH  13   8
ATOM      3  N   UNL     1      -3.288 -10.673  14.487  0.00  0.00    -0.287 NA
ATOM      8  C   UNL     1      -3.668 -11.321  15.759  0.00  0.00    +0.146 C 
ATOM      9  C   UNL     1      -2.490 -11.039  16.709  0.00  0.00    +0.030 C 
ATOM     10  C   UNL     1      -1.472 -10.283  15.867  0.00  0.00    +0.017 C 
ATOM     11  C   UNL     1      -1.825 -10.672  14.446  0.00  0.00    +0.085 C 
BRANCH   3  12
ATOM     12  C   UNL     1      -3.869 -11.319  13.318  0.00  0.00    +0.120 C 
BRANCH  12  14
ATOM      1  F   UNL     1      -5.533  -7.564   9.460  0.00  0.00    -0.205 F 
ATOM     14  C   UNL     1      -4.315 -10.315  12.287  0.00  0.00    -0.033 A 
ATOM     15  C   UNL     1      -3.478  -9.999  11.216  0.00  0.00    +0.008 A 
ATOM     16  C   UNL     1      -5.562  -9.703  12.403  0.00  0.00    +0.008 A 
ATOM     19  C   UNL     1      -3.890  -9.070  10.262  0.00  0.00    +0.038 A 
ATOM     20  C   UNL     1      -5.974  -8.772  11.448  0.00  0.00    +0.038 A 
ATOM     21  C   UNL     1      -5.137  -8.457  10.377  0.00  0.00    +0.123 A 
ENDBRANCH  12  14
ENDBRANCH   3  12
ENDBRANCH  13   8
TORSDOF 5
ENDMDL
MODEL 7
REMARK VINA RESULT:      -6.4      2.508      3.369
REMARK  Name = 45783804
REMARK  7 active torsions:
REMARK  status: ('A' for Active; 'I' for Inactive)
REMARK    1  A    between atoms: N_3  and  C_12
REMARK    2  A    between atoms: N_7  and  C_25
REMARK    3  A    between atoms: N_7  and  C_26
REMARK    4  A    between atoms: N_7  and  C_27
REMARK    5  A    between atoms: C_8  and  C_13
REMARK    6  A    between atoms: C_12  and  C_14
REMARK    7  A    between atoms: C_17  and  C_18
REMARK                            x       y       z     vdW  Elec       q    Type
REMARK                         _______ _______ _______ _____ _____    ______ ____
ROOT
ATOM      2  O   UNL     1      14.469   8.847  20.242  0.00  0.00    -0.336 OA
ATOM      4  N   UNL     1      15.286   7.385  21.729  0.00  0.00    -0.190 NA
ATOM      5  N   UNL     1      15.794   8.605  19.862  0.00  0.00    -0.056 NA
ATOM     13  C   UNL     1      14.250   8.090  21.350  0.00  0.00    +0.245 A 
ATOM     17  C   UNL     1      16.208   7.734  20.787  0.00  0.00    +0.204 A 
ENDROOT
BRANCH  17  18
ATOM      6  N   UNL     1      19.812   7.322  21.610  0.00  0.00    -0.240 NA
ATOM     18  C   UNL     1      17.538   7.193  20.799  0.00  0.00    +0.041 A 
ATOM     22  C   UNL     1      17.860   6.066  20.053  0.00  0.00    +0.016 A 
ATOM     23  C   UNL     1      18.540   7.780  21.554  0.00  0.00    +0.124 A 
ATOM     24  C   UNL     1      19.157   5.565  20.084  0.00  0.00    +0.044 A 
ATOM     25  C   UNL     1      20.088   6.224  20.871  0.00  0.00    +0.121 A 
BRANCH  25   7
ATOM      7  N   UNL     1      21.404   5.702  20.893  0.00  0.00    -0.321 N 
ATOM     26  C   UNL     1      21.643   4.352  21.351  0.00  0.00    +0.130 C 
ATOM     27  C   UNL     1      22.518   6.518  20.464  0.00  0.00    +0.130 C 
ENDBRANCH  25   7
ENDBRANCH  17  18
BRANCH  13   8
ATOM      3  N   UNL     1      12.148   9.403  21.574  0.00  0.00    -0.287 NA
ATOM      8  C   UNL     1      12.868   8.175  21.964  0.00  0.00    +0.146 C 
ATOM      9  C   UNL     1      11.949   7.023  21.517  0.00  0.00    +0.030 C 
ATOM     10  C   UNL     1      10.712   7.701  20.945  0.00  0.00    +0.017 C 
ATOM     11  C   UNL     1      10.723   9.070  21.594  0.00  0.00    +0.085 C 
BRANCH   3  12
ATOM     12  C   UNL     1      12.457  10.544  22.425  0.00  0.00    +0.120 C 
BRANCH  12  14
ATOM      1  F   UNL     1      10.930  15.414  20.037  0.00  0.00    -0.205 F 
ATOM     14  C   UNL     1      12.049  11.846  21.786  0.00  0.00    -0.033 A 
ATOM     15  C   UNL     1      10.972  12.568  22.302  0.00  0.00    +0.008 A 
ATOM     16  C   UNL     1      12.747  12.329  20.680  0.00  0.00    +0.008 A 
ATOM     19  C   UNL     1      10.595  13.773  21.711  0.00  0.00    +0.038 A 
ATOM     20  C   UNL     1      12.369  13.534  20.088  0.00  0.00    +0.038 A 
ATOM     21  C   UNL     1      11.293  14.257  20.604  0.00  0.00    +0.123 A 
ENDBRANCH  12  14
ENDBRANCH   3  12
ENDBRANCH  13   8
TORSDOF 5
ENDMDL
MODEL 8
REMARK VINA RESULT:      -6.4     30.116     32.096
REMARK  Name = 45783804
REMARK  7 active torsions:
REMARK  status: ('A' for Active; 'I' for Inactive)
REMARK    1  A    between atoms: N_3  and  C_12
REMARK    2  A    between atoms: N_7  and  C_25
REMARK    3  A    between atoms: N_7  and  C_26
REMARK    4  A    between atoms: N_7  and  C_27
REMARK    5  A    between atoms: C_8  and  C_13
REMARK    6  A    between atoms: C_12  and  C_14
REMARK    7  A    between atoms: C_17  and  C_18
REMARK                            x       y       z     vdW  Elec       q    Type
REMARK                         _______ _______ _______ _____ _____    ______ ____
ROOT
ATOM      2  O   UNL     1     -14.076   6.359  34.764  0.00  0.00    -0.336 OA
ATOM      4  N   UNL     1     -13.544   5.928  32.632  0.00  0.00    -0.190 NA
ATOM      5  N   UNL     1     -14.354   5.002  34.560  0.00  0.00    -0.056 NA
ATOM     13  C   UNL     1     -13.603   6.829  33.580  0.00  0.00    +0.245 A 
ATOM     17  C   UNL     1     -14.014   4.824  33.280  0.00  0.00    +0.204 A 
ENDROOT
BRANCH  17  18
ATOM      6  N   UNL     1     -14.824   1.241  32.701  0.00  0.00    -0.240 NA
ATOM     18  C   UNL     1     -14.134   3.557  32.618  0.00  0.00    +0.041 A 
ATOM     22  C   UNL     1     -13.705   3.389  31.307  0.00  0.00    +0.016 A 
ATOM     23  C   UNL     1     -14.682   2.462  33.266  0.00  0.00    +0.124 A 
ATOM     24  C   UNL     1     -13.834   2.149  30.692  0.00  0.00    +0.044 A 
ATOM     25  C   UNL     1     -14.395   1.116  31.425  0.00  0.00    +0.121 A 
BRANCH  25   7
ATOM      7  N   UNL     1     -14.520  -0.141  30.785  0.00  0.00    -0.321 N 
ATOM     26  C   UNL     1     -15.568  -1.056  31.179  0.00  0.00    +0.130 C 
ATOM     27  C   UNL     1     -13.597  -0.520  29.738  0.00  0.00    +0.130 C 
ENDBRANCH  25   7
ENDBRANCH  17  18
BRANCH  13   8
ATOM      3  N   UNL     1     -12.236   8.654  34.575  0.00  0.00    -0.287 NA
ATOM      8  C   UNL     1     -13.223   8.295  33.538  0.00  0.00    +0.146 C 
ATOM      9  C   UNL     1     -12.560   8.698  32.209  0.00  0.00    +0.030 C 
ATOM     10  C   UNL     1     -11.233   9.331  32.603  0.00  0.00    +0.017 C 
ATOM     11  C   UNL     1     -11.458   9.770  34.035  0.00  0.00    +0.085 C 
BRANCH   3  12
ATOM     12  C   UNL     1     -12.844   8.980  35.859  0.00  0.00    +0.120 C 
BRANCH  12  14
ATOM      1  F   UNL     1      -9.328   8.008  40.153  0.00  0.00    -0.205 F 
ATOM     14  C   UNL     1     -11.904   8.720  37.006  0.00  0.00    -0.033 A 
ATOM     15  C   UNL     1     -11.809   9.639  38.052  0.00  0.00    +0.008 A 
ATOM     16  C   UNL     1     -11.129   7.561  37.024  0.00  0.00    +0.008 A 
ATOM     19  C   UNL     1     -10.939   9.398  39.114  0.00  0.00    +0.038 A 
ATOM     20  C   UNL     1     -10.258   7.320  38.087  0.00  0.00    +0.038 A 
ATOM     21  C   UNL     1     -10.164   8.239  39.133  0.00  0.00    +0.123 A 
ENDBRANCH  12  14
ENDBRANCH   3  12
ENDBRANCH  13   8
TORSDOF 5
ENDMDL
MODEL 9
REMARK VINA RESULT:      -6.2     27.455     28.976
REMARK  Name = 45783804
REMARK  7 active torsions:
REMARK  status: ('A' for Active; 'I' for Inactive)
REMARK    1  A    between atoms: N_3  and  C_12
REMARK    2  A    between atoms: N_7  and  C_25
REMARK    3  A    between atoms: N_7  and  C_26
REMARK    4  A    between atoms: N_7  and  C_27
REMARK    5  A    between atoms: C_8  and  C_13
REMARK    6  A    between atoms: C_12  and  C_14
REMARK    7  A    between atoms: C_17  and  C_18
REMARK                            x       y       z     vdW  Elec       q    Type
REMARK                         _______ _______ _______ _____ _____    ______ ____
ROOT
ATOM      2  O   UNL     1      -7.938  -9.380  11.593  0.00  0.00    -0.336 OA
ATOM      4  N   UNL     1      -5.851  -9.364  12.404  0.00  0.00    -0.190 NA
ATOM      5  N   UNL     1      -8.041  -9.759  12.937  0.00  0.00    -0.056 NA
ATOM     13  C   UNL     1      -6.616  -9.166  11.360  0.00  0.00    +0.245 A 
ATOM     17  C   UNL     1      -6.769  -9.726  13.346  0.00  0.00    +0.204 A 
ENDROOT
BRANCH  17  18
ATOM      6  N   UNL     1      -7.019 -10.397  16.996  0.00  0.00    -0.240 NA
ATOM     18  C   UNL     1      -6.381 -10.050  14.689  0.00  0.00    +0.041 A 
ATOM     22  C   UNL     1      -5.057 -10.326  15.007  0.00  0.00    +0.016 A 
ATOM     23  C   UNL     1      -7.317 -10.098  15.710  0.00  0.00    +0.124 A 
ATOM     24  C   UNL     1      -4.712 -10.638  16.317  0.00  0.00    +0.044 A 
ATOM     25  C   UNL     1      -5.720 -10.659  17.266  0.00  0.00    +0.121 A 
BRANCH  25   7
ATOM      7  N   UNL     1      -5.354 -10.978  18.596  0.00  0.00    -0.321 N 
ATOM     26  C   UNL     1      -6.136 -10.481  19.706  0.00  0.00    +0.130 C 
ATOM     27  C   UNL     1      -4.189 -11.797  18.854  0.00  0.00    +0.130 C 
ENDBRANCH  25   7
ENDBRANCH  17  18
BRANCH  13   8
ATOM      3  N   UNL     1      -5.315  -9.689   9.305  0.00  0.00    -0.287 NA
ATOM      8  C   UNL     1      -6.237  -8.739   9.958  0.00  0.00    +0.146 C 
ATOM      9  C   UNL     1      -7.450  -8.658   9.013  0.00  0.00    +0.030 C 
ATOM     10  C   UNL     1      -7.092  -9.547   7.830  0.00  0.00    +0.017 C 
ATOM     11  C   UNL     1      -5.579  -9.599   7.868  0.00  0.00    +0.085 C 
BRANCH   3  12
ATOM     12  C   UNL     1      -3.914  -9.440   9.622  0.00  0.00    +0.120 C 
BRANCH  12  14
ATOM      1  F   UNL     1      -1.868 -13.271  13.212  0.00  0.00    -0.205 F 
ATOM     14  C   UNL     1      -3.367 -10.464  10.582  0.00  0.00    -0.033 A 
ATOM     15  C   UNL     1      -3.845 -11.775  10.550  0.00  0.00    +0.008 A 
ATOM     16  C   UNL     1      -2.384 -10.102  11.502  0.00  0.00    +0.008 A 
ATOM     19  C   UNL     1      -3.338 -12.722  11.438  0.00  0.00    +0.038 A 
ATOM     20  C   UNL     1      -1.878 -11.050  12.392  0.00  0.00    +0.038 A 
ATOM     21  C   UNL     1      -2.355 -12.361  12.359  0.00  0.00    +0.123 A 
ENDBRANCH  12  14
ENDBRANCH   3  12
ENDBRANCH  13   8
TORSDOF 5
ENDMDL
MODEL 10
REMARK VINA RESULT:      -6.1     14.568     18.451
REMARK  Name = 45783804
REMARK  7 active torsions:
REMARK  status: ('A' for Active; 'I' for Inactive)
REMARK    1  A    between atoms: N_3  and  C_12
REMARK    2  A    between atoms: N_7  and  C_25
REMARK    3  A    between atoms: N_7  and  C_26
REMARK    4  A    between atoms: N_7  and  C_27
REMARK    5  A    between atoms: C_8  and  C_13
REMARK    6  A    between atoms: C_12  and  C_14
REMARK    7  A    between atoms: C_17  and  C_18
REMARK                            x       y       z     vdW  Elec       q    Type
REMARK                         _______ _______ _______ _____ _____    ______ ____
ROOT
ATOM      2  O   UNL     1      10.963   7.117   4.073  0.00  0.00    -0.336 OA
ATOM      4  N   UNL     1      10.729   4.918   3.713  0.00  0.00    -0.190 NA
ATOM      5  N   UNL     1      11.243   6.913   2.717  0.00  0.00    -0.056 NA
ATOM     13  C   UNL     1      10.670   5.892   4.586  0.00  0.00    +0.245 A 
ATOM     17  C   UNL     1      11.084   5.593   2.581  0.00  0.00    +0.204 A 
ENDROOT
BRANCH  17  18
ATOM      6  N   UNL     1      10.384   4.265  -0.821  0.00  0.00    -0.240 NA
ATOM     18  C   UNL     1      11.274   4.916   1.330  0.00  0.00    +0.041 A 
ATOM     22  C   UNL     1      12.471   4.273   1.037  0.00  0.00    +0.016 A 
ATOM     23  C   UNL     1      10.270   4.883   0.376  0.00  0.00    +0.124 A 
ATOM     24  C   UNL     1      12.626   3.625  -0.183  0.00  0.00    +0.044 A 
ATOM     25  C   UNL     1      11.562   3.650  -1.070  0.00  0.00    +0.121 A 
BRANCH  25   7
ATOM      7  N   UNL     1      11.735   2.987  -2.309  0.00  0.00    -0.321 N 
ATOM     26  C   UNL     1      10.754   2.027  -2.764  0.00  0.00    +0.130 C 
ATOM     27  C   UNL     1      12.898   3.260  -3.125  0.00  0.00    +0.130 C 
ENDBRANCH  25   7
ENDBRANCH  17  18
BRANCH  13   8
ATOM      3  N   UNL     1      11.006   6.896   6.838  0.00  0.00    -0.287 NA
ATOM      8  C   UNL     1      10.325   5.842   6.060  0.00  0.00    +0.146 C 
ATOM      9  C   UNL     1       8.825   6.065   6.326  0.00  0.00    +0.030 C 
ATOM     10  C   UNL     1       8.765   7.223   7.312  0.00  0.00    +0.017 C 
ATOM     11  C   UNL     1      10.129   7.204   7.969  0.00  0.00    +0.085 C 
BRANCH   3  12
ATOM     12  C   UNL     1      12.345   6.517   7.269  0.00  0.00    +0.120 C 
BRANCH  12  14
ATOM      1  F   UNL     1      16.169  10.423   5.902  0.00  0.00    -0.205 F 
ATOM     14  C   UNL     1      13.367   7.561   6.904  0.00  0.00    -0.033 A 
ATOM     15  C   UNL     1      13.027   8.913   6.944  0.00  0.00    +0.008 A 
ATOM     16  C   UNL     1      14.653   7.176   6.525  0.00  0.00    +0.008 A 
ATOM     19  C   UNL     1      13.974   9.879   6.606  0.00  0.00    +0.038 A 
ATOM     20  C   UNL     1      15.599   8.143   6.186  0.00  0.00    +0.038 A 
ATOM     21  C   UNL     1      15.260   9.495   6.227  0.00  0.00    +0.123 A 
ENDBRANCH  12  14
ENDBRANCH   3  12
ENDBRANCH  13   8
TORSDOF 5
ENDMDL
