MODEL 1
REMARK VINA RESULT:      -6.9      0.000      0.000
REMARK  Name = 45784099
REMARK  11 active torsions:
REMARK  status: ('A' for Active; 'I' for Inactive)
REMARK    1  A    between atoms: N_3  and  C_14
REMARK    2  A    between atoms: N_7  and  C_32
REMARK    3  A    between atoms: C_9  and  C_13
REMARK    4  A    between atoms: C_10  and  C_14
REMARK    5  A    between atoms: C_12  and  C_19
REMARK    6  A    between atoms: C_13  and  C_23
REMARK    7  A    between atoms: C_13  and  C_24
REMARK    8  A    between atoms: C_16  and  C_25
REMARK    9  A    between atoms: C_19  and  C_26
REMARK   10  A    between atoms: C_20  and  C_27
REMARK   11  A    between atoms: C_28  and  C_29
REMARK                            x       y       z     vdW  Elec       q    Type
REMARK                         _______ _______ _______ _____ _____    ______ ____
ROOT
ATOM      9  C   UNL     1     -13.373  10.483  21.705  0.00  0.00    +0.000 C 
ATOM     10  C   UNL     1     -12.004  10.378  20.991  0.00  0.00    +0.029 C 
ATOM     11  C   UNL     1     -14.365   9.469  21.119  0.00  0.00    +0.012 C 
ATOM     12  C   UNL     1     -13.861   8.011  21.185  0.00  0.00    +0.024 C 
ATOM     15  C   UNL     1     -11.567   8.951  20.786  0.00  0.00    -0.023 C 
ATOM     16  C   UNL     1     -12.377   7.880  20.880  0.00  0.00    -0.073 C 
ATOM     25  C   UNL     1     -11.816   6.491  20.741  0.00  0.00    +0.039 C 
ENDROOT
BRANCH   9  13
ATOM     13  C   UNL     1     -13.226  10.302  23.223  0.00  0.00    -0.013 C 
ATOM     23  C   UNL     1     -12.176  11.261  23.774  0.00  0.00    +0.007 C 
ATOM     24  C   UNL     1     -14.569  10.514  23.915  0.00  0.00    +0.007 C 
ENDBRANCH   9  13
BRANCH  10  14
ATOM     14  C   UNL     1     -12.015  11.101  19.640  0.00  0.00    +0.092 C 
BRANCH  14   3
ATOM      3  N   UNL     1     -11.684  10.175  18.557  0.00  0.00    -0.302 NA
ATOM     17  C   UNL     1     -12.844   9.982  17.675  0.00  0.00    +0.085 C 
ATOM     18  C   UNL     1     -10.520  10.661  17.804  0.00  0.00    +0.085 C 
ATOM     20  C   UNL     1     -11.303   9.396  15.765  0.00  0.00    +0.077 C 
ATOM     21  C   UNL     1     -12.532   8.974  16.567  0.00  0.00    +0.028 C 
ATOM     22  C   UNL     1     -10.128   9.677  16.700  0.00  0.00    +0.028 C 
BRANCH  20  27
ATOM      2  O   UNL     1     -11.188   8.401  13.596  0.00  0.00    -0.276 OA
ATOM      5  N   UNL     1     -10.281   7.252  15.371  0.00  0.00    -0.329 N 
ATOM     27  C   UNL     1     -10.924   8.322  14.793  0.00  0.00    +0.214 C 
ATOM     33  H   UNL     1      -9.982   6.460  14.813  0.00  0.00    +0.145 HD
ATOM     34  H   UNL     1     -10.071   7.214  16.364  0.00  0.00    +0.145 HD
ENDBRANCH  20  27
ENDBRANCH  14   3
ENDBRANCH  10  14
BRANCH  12  19
ATOM     19  C   UNL     1     -14.737   7.149  20.267  0.00  0.00    +0.105 C 
BRANCH  19  26
ATOM      1  O   UNL     1     -15.247   6.045  22.382  0.00  0.00    -0.419 OA
ATOM      4  N   UNL     1     -16.185   5.080  20.596  0.00  0.00    -0.112 NA
ATOM      6  N   UNL     1     -16.555   4.357  21.715  0.00  0.00    -0.106 NA
ATOM     26  C   UNL     1     -15.423   6.055  21.033  0.00  0.00    +0.218 A 
ATOM     28  C   UNL     1     -15.984   4.956  22.734  0.00  0.00    +0.266 A 
BRANCH  28  29
ATOM      7  N   UNL     1     -16.897   5.118  25.020  0.00  0.00    -0.329 N 
ATOM      8  N   UNL     1     -15.957   3.375  26.026  0.00  0.00    -0.243 NA
ATOM     29  C   UNL     1     -16.120   4.513  24.073  0.00  0.00    +0.125 A 
ATOM     30  C   UNL     1     -15.551   3.439  24.716  0.00  0.00    +0.143 A 
ATOM     31  C   UNL     1     -16.766   4.400  26.176  0.00  0.00    +0.199 A 
ATOM     32  C   UNL     1     -17.713   6.298  24.857  0.00  0.00    +0.150 C 
ENDBRANCH  28  29
ENDBRANCH  19  26
ENDBRANCH  12  19
TORSDOF 7
ENDMDL
MODEL 2
REMARK VINA RESULT:      -6.5      2.249      2.931
REMARK  Name = 45784099
REMARK  11 active torsions:
REMARK  status: ('A' for Active; 'I' for Inactive)
REMARK    1  A    between atoms: N_3  and  C_14
REMARK    2  A    between atoms: N_7  and  C_32
REMARK    3  A    between atoms: C_9  and  C_13
REMARK    4  A    between atoms: C_10  and  C_14
REMARK    5  A    between atoms: C_12  and  C_19
REMARK    6  A    between atoms: C_13  and  C_23
REMARK    7  A    between atoms: C_13  and  C_24
REMARK    8  A    between atoms: C_16  and  C_25
REMARK    9  A    between atoms: C_19  and  C_26
REMARK   10  A    between atoms: C_20  and  C_27
REMARK   11  A    between atoms: C_28  and  C_29
REMARK                            x       y       z     vdW  Elec       q    Type
REMARK                         _______ _______ _______ _____ _____    ______ ____
ROOT
ATOM      9  C   UNL     1     -13.325   8.841  20.528  0.00  0.00    +0.000 C 
ATOM     10  C   UNL     1     -11.979   8.126  20.266  0.00  0.00    +0.029 C 
ATOM     11  C   UNL     1     -14.487   7.840  20.471  0.00  0.00    +0.012 C 
ATOM     12  C   UNL     1     -14.330   6.663  21.457  0.00  0.00    +0.024 C 
ATOM     15  C   UNL     1     -11.865   6.818  21.007  0.00  0.00    -0.023 C 
ATOM     16  C   UNL     1     -12.900   6.156  21.555  0.00  0.00    -0.073 C 
ATOM     25  C   UNL     1     -12.660   4.900  22.350  0.00  0.00    +0.039 C 
ENDROOT
BRANCH   9  13
ATOM     13  C   UNL     1     -13.306   9.593  21.867  0.00  0.00    -0.013 C 
ATOM     23  C   UNL     1     -12.329  10.762  21.806  0.00  0.00    +0.007 C 
ATOM     24  C   UNL     1     -14.708  10.076  22.224  0.00  0.00    +0.007 C 
ENDBRANCH   9  13
BRANCH  10  14
ATOM     14  C   UNL     1     -11.752   7.879  18.770  0.00  0.00    +0.092 C 
BRANCH  14   3
ATOM      3  N   UNL     1     -11.473   9.136  18.076  0.00  0.00    -0.302 NA
ATOM     17  C   UNL     1     -10.425   9.889  18.780  0.00  0.00    +0.085 C 
ATOM     18  C   UNL     1     -11.094   8.878  16.680  0.00  0.00    +0.085 C 
ATOM     20  C   UNL     1      -9.797  11.043  16.626  0.00  0.00    +0.077 C 
ATOM     21  C   UNL     1     -10.160  11.232  18.098  0.00  0.00    +0.028 C 
ATOM     22  C   UNL     1     -10.850  10.186  15.925  0.00  0.00    +0.028 C 
BRANCH  20  27
ATOM      2  O   UNL     1      -9.120  13.328  16.455  0.00  0.00    -0.276 OA
ATOM      5  N   UNL     1     -10.315  12.412  14.715  0.00  0.00    -0.329 N 
ATOM     27  C   UNL     1      -9.695  12.371  15.942  0.00  0.00    +0.214 C 
ATOM     33  H   UNL     1     -10.319  13.262  14.161  0.00  0.00    +0.145 HD
ATOM     34  H   UNL     1     -10.781  11.605  14.312  0.00  0.00    +0.145 HD
ENDBRANCH  20  27
ENDBRANCH  14   3
ENDBRANCH  10  14
BRANCH  12  19
ATOM     19  C   UNL     1     -15.327   5.563  21.069  0.00  0.00    +0.105 C 
BRANCH  19  26
ATOM      1  O   UNL     1     -15.961   3.760  22.585  0.00  0.00    -0.419 OA
ATOM      4  N   UNL     1     -16.903   5.732  23.062  0.00  0.00    -0.112 NA
ATOM      6  N   UNL     1     -17.347   4.810  23.993  0.00  0.00    -0.106 NA
ATOM     26  C   UNL     1     -16.097   5.075  22.262  0.00  0.00    +0.218 A 
ATOM     28  C   UNL     1     -16.772   3.674  23.676  0.00  0.00    +0.266 A 
BRANCH  28  29
ATOM      7  N   UNL     1     -17.689   1.400  23.942  0.00  0.00    -0.329 N 
ATOM      8  N   UNL     1     -16.964   0.834  25.964  0.00  0.00    -0.243 NA
ATOM     29  C   UNL     1     -16.974   2.472  24.397  0.00  0.00    +0.125 A 
ATOM     30  C   UNL     1     -16.536   2.099  25.645  0.00  0.00    +0.143 A 
ATOM     31  C   UNL     1     -17.656   0.442  24.917  0.00  0.00    +0.199 A 
ATOM     32  C   UNL     1     -18.366   1.276  22.672  0.00  0.00    +0.150 C 
ENDBRANCH  28  29
ENDBRANCH  19  26
ENDBRANCH  12  19
TORSDOF 7
ENDMDL
MODEL 3
REMARK VINA RESULT:      -6.5     19.634     22.852
REMARK  Name = 45784099
REMARK  11 active torsions:
REMARK  status: ('A' for Active; 'I' for Inactive)
REMARK    1  A    between atoms: N_3  and  C_14
REMARK    2  A    between atoms: N_7  and  C_32
REMARK    3  A    between atoms: C_9  and  C_13
REMARK    4  A    between atoms: C_10  and  C_14
REMARK    5  A    between atoms: C_12  and  C_19
REMARK    6  A    between atoms: C_13  and  C_23
REMARK    7  A    between atoms: C_13  and  C_24
REMARK    8  A    between atoms: C_16  and  C_25
REMARK    9  A    between atoms: C_19  and  C_26
REMARK   10  A    between atoms: C_20  and  C_27
REMARK   11  A    between atoms: C_28  and  C_29
REMARK                            x       y       z     vdW  Elec       q    Type
REMARK                         _______ _______ _______ _____ _____    ______ ____
ROOT
ATOM      9  C   UNL     1      -4.898 -11.820  12.328  0.00  0.00    +0.000 C 
ATOM     10  C   UNL     1      -4.100 -11.340  13.563  0.00  0.00    +0.029 C 
ATOM     11  C   UNL     1      -4.866 -10.758  11.221  0.00  0.00    +0.012 C 
ATOM     12  C   UNL     1      -3.436 -10.368  10.788  0.00  0.00    +0.024 C 
ATOM     15  C   UNL     1      -2.786 -10.701  13.190  0.00  0.00    -0.023 C 
ATOM     16  C   UNL     1      -2.467 -10.272  11.955  0.00  0.00    -0.073 C 
ATOM     25  C   UNL     1      -1.092  -9.728  11.674  0.00  0.00    +0.039 C 
ENDROOT
BRANCH   9  13
ATOM     13  C   UNL     1      -4.378 -13.171  11.817  0.00  0.00    -0.013 C 
ATOM     23  C   UNL     1      -4.249 -14.161  12.970  0.00  0.00    +0.007 C 
ATOM     24  C   UNL     1      -5.300 -13.719  10.733  0.00  0.00    +0.007 C 
ENDBRANCH   9  13
BRANCH  10  14
ATOM     14  C   UNL     1      -4.912 -10.360  14.416  0.00  0.00    +0.092 C 
BRANCH  14   3
ATOM      3  N   UNL     1      -5.212 -10.940  15.724  0.00  0.00    -0.302 NA
ATOM     17  C   UNL     1      -4.423 -10.278  16.773  0.00  0.00    +0.085 C 
ATOM     18  C   UNL     1      -6.651 -10.851  16.008  0.00  0.00    +0.085 C 
ATOM     20  C   UNL     1      -6.172 -10.888  18.486  0.00  0.00    +0.077 C 
ATOM     21  C   UNL     1      -4.684 -10.910  18.141  0.00  0.00    +0.028 C 
ATOM     22  C   UNL     1      -6.990 -11.502  17.351  0.00  0.00    +0.028 C 
BRANCH  20  27
ATOM      2  O   UNL     1      -5.905 -11.329  20.819  0.00  0.00    -0.276 OA
ATOM      5  N   UNL     1      -7.258 -12.730  19.593  0.00  0.00    -0.329 N 
ATOM     27  C   UNL     1      -6.422 -11.649  19.752  0.00  0.00    +0.214 C 
ATOM     33  H   UNL     1      -7.495 -13.325  20.380  0.00  0.00    +0.145 HD
ATOM     34  H   UNL     1      -7.675 -12.970  18.700  0.00  0.00    +0.145 HD
ENDBRANCH  20  27
ENDBRANCH  14   3
ENDBRANCH  10  14
BRANCH  12  19
ATOM     19  C   UNL     1      -3.510  -9.075   9.966  0.00  0.00    +0.105 C 
BRANCH  19  26
ATOM      1  O   UNL     1      -5.697  -8.085   9.531  0.00  0.00    -0.419 OA
ATOM      4  N   UNL     1      -5.138  -9.726   8.118  0.00  0.00    -0.112 NA
ATOM      6  N   UNL     1      -6.389  -9.261   7.758  0.00  0.00    -0.106 NA
ATOM     26  C   UNL     1      -4.773  -9.011   9.156  0.00  0.00    +0.218 A 
ATOM     28  C   UNL     1      -6.676  -8.304   8.610  0.00  0.00    +0.266 A 
BRANCH  28  29
ATOM      7  N   UNL     1      -9.029  -7.919   9.237  0.00  0.00    -0.329 N 
ATOM      8  N   UNL     1      -9.500  -6.033   8.162  0.00  0.00    -0.243 NA
ATOM     29  C   UNL     1      -7.886  -7.570   8.576  0.00  0.00    +0.125 A 
ATOM     30  C   UNL     1      -8.200  -6.403   7.920  0.00  0.00    +0.143 A 
ATOM     31  C   UNL     1      -9.971  -6.967   8.958  0.00  0.00    +0.199 A 
ATOM     32  C   UNL     1      -9.234  -9.073  10.080  0.00  0.00    +0.150 C 
ENDBRANCH  28  29
ENDBRANCH  19  26
ENDBRANCH  12  19
TORSDOF 7
ENDMDL
MODEL 4
REMARK VINA RESULT:      -6.5     25.983     29.452
REMARK  Name = 45784099
REMARK  11 active torsions:
REMARK  status: ('A' for Active; 'I' for Inactive)
REMARK    1  A    between atoms: N_3  and  C_14
REMARK    2  A    between atoms: N_7  and  C_32
REMARK    3  A    between atoms: C_9  and  C_13
REMARK    4  A    between atoms: C_10  and  C_14
REMARK    5  A    between atoms: C_12  and  C_19
REMARK    6  A    between atoms: C_13  and  C_23
REMARK    7  A    between atoms: C_13  and  C_24
REMARK    8  A    between atoms: C_16  and  C_25
REMARK    9  A    between atoms: C_19  and  C_26
REMARK   10  A    between atoms: C_20  and  C_27
REMARK   11  A    between atoms: C_28  and  C_29
REMARK                            x       y       z     vdW  Elec       q    Type
REMARK                         _______ _______ _______ _____ _____    ______ ____
ROOT
ATOM      9  C   UNL     1      12.892  10.455  20.646  0.00  0.00    +0.000 C 
ATOM     10  C   UNL     1      11.930   9.271  20.901  0.00  0.00    +0.029 C 
ATOM     11  C   UNL     1      13.776  10.177  19.423  0.00  0.00    +0.012 C 
ATOM     12  C   UNL     1      12.969   9.884  18.139  0.00  0.00    +0.024 C 
ATOM     15  C   UNL     1      11.296   8.757  19.634  0.00  0.00    -0.023 C 
ATOM     16  C   UNL     1      11.738   9.029  18.392  0.00  0.00    -0.073 C 
ATOM     25  C   UNL     1      10.976   8.535  17.192  0.00  0.00    +0.039 C 
ENDROOT
BRANCH   9  13
ATOM     13  C   UNL     1      12.123  11.775  20.487  0.00  0.00    -0.013 C 
ATOM     23  C   UNL     1      11.298  12.063  21.737  0.00  0.00    +0.007 C 
ATOM     24  C   UNL     1      13.089  12.920  20.199  0.00  0.00    +0.007 C 
ENDBRANCH   9  13
BRANCH  10  14
ATOM     14  C   UNL     1      12.635   8.114  21.616  0.00  0.00    +0.092 C 
BRANCH  14   3
ATOM      3  N   UNL     1      13.976   7.909  21.068  0.00  0.00    -0.302 NA
ATOM     17  C   UNL     1      14.979   7.931  22.143  0.00  0.00    +0.085 C 
ATOM     18  C   UNL     1      14.036   6.649  20.314  0.00  0.00    +0.085 C 
ATOM     20  C   UNL     1      16.518   6.500  20.748  0.00  0.00    +0.077 C 
ATOM     21  C   UNL     1      16.393   7.774  21.581  0.00  0.00    +0.028 C 
ATOM     22  C   UNL     1      15.418   6.446  19.689  0.00  0.00    +0.028 C 
BRANCH  20  27
ATOM      2  O   UNL     1      18.038   5.846  19.024  0.00  0.00    -0.276 OA
ATOM      5  N   UNL     1      18.847   7.107  20.770  0.00  0.00    -0.329 N 
ATOM     27  C   UNL     1      17.858   6.446  20.081  0.00  0.00    +0.214 C 
ATOM     33  H   UNL     1      19.799   7.134  20.420  0.00  0.00    +0.145 HD
ATOM     34  H   UNL     1      18.670   7.599  21.641  0.00  0.00    +0.145 HD
ENDBRANCH  20  27
ENDBRANCH  14   3
ENDBRANCH  10  14
BRANCH  12  19
ATOM     19  C   UNL     1      13.914   9.275  17.096  0.00  0.00    +0.105 C 
BRANCH  19  26
ATOM      1  O   UNL     1      15.274  10.843  15.812  0.00  0.00    -0.419 OA
ATOM      4  N   UNL     1      13.252  10.456  14.938  0.00  0.00    -0.112 NA
ATOM      6  N   UNL     1      13.908  11.354  14.117  0.00  0.00    -0.106 NA
ATOM     26  C   UNL     1      14.087  10.185  15.914  0.00  0.00    +0.218 A 
ATOM     28  C   UNL     1      15.083  11.551  14.665  0.00  0.00    +0.266 A 
BRANCH  28  29
ATOM      7  N   UNL     1      16.514  13.559  14.716  0.00  0.00    -0.329 N 
ATOM      8  N   UNL     1      17.618  13.400  12.796  0.00  0.00    -0.243 NA
ATOM     29  C   UNL     1      16.062  12.418  14.119  0.00  0.00    +0.125 A 
ATOM     30  C   UNL     1      16.757  12.339  12.935  0.00  0.00    +0.143 A 
ATOM     31  C   UNL     1      17.446  14.115  13.885  0.00  0.00    +0.199 A 
ATOM     32  C   UNL     1      16.101  14.103  15.989  0.00  0.00    +0.150 C 
ENDBRANCH  28  29
ENDBRANCH  19  26
ENDBRANCH  12  19
TORSDOF 7
ENDMDL
MODEL 5
REMARK VINA RESULT:      -6.4     26.581     30.576
REMARK  Name = 45784099
REMARK  11 active torsions:
REMARK  status: ('A' for Active; 'I' for Inactive)
REMARK    1  A    between atoms: N_3  and  C_14
REMARK    2  A    between atoms: N_7  and  C_32
REMARK    3  A    between atoms: C_9  and  C_13
REMARK    4  A    between atoms: C_10  and  C_14
REMARK    5  A    between atoms: C_12  and  C_19
REMARK    6  A    between atoms: C_13  and  C_23
REMARK    7  A    between atoms: C_13  and  C_24
REMARK    8  A    between atoms: C_16  and  C_25
REMARK    9  A    between atoms: C_19  and  C_26
REMARK   10  A    between atoms: C_20  and  C_27
REMARK   11  A    between atoms: C_28  and  C_29
REMARK                            x       y       z     vdW  Elec       q    Type
REMARK                         _______ _______ _______ _____ _____    ______ ____
ROOT
ATOM      9  C   UNL     1      15.266   9.169  19.932  0.00  0.00    +0.000 C 
ATOM     10  C   UNL     1      14.620   7.997  20.709  0.00  0.00    +0.029 C 
ATOM     11  C   UNL     1      14.626   9.312  18.545  0.00  0.00    +0.012 C 
ATOM     12  C   UNL     1      13.095   9.511  18.595  0.00  0.00    +0.024 C 
ATOM     15  C   UNL     1      13.118   7.979  20.584  0.00  0.00    -0.023 C 
ATOM     16  C   UNL     1      12.419   8.656  19.655  0.00  0.00    -0.073 C 
ATOM     25  C   UNL     1      10.914   8.636  19.676  0.00  0.00    +0.039 C 
ENDROOT
BRANCH   9  13
ATOM     13  C   UNL     1      15.177  10.481  20.723  0.00  0.00    -0.013 C 
ATOM     23  C   UNL     1      15.794  10.310  22.108  0.00  0.00    +0.007 C 
ATOM     24  C   UNL     1      15.863  11.609  19.960  0.00  0.00    +0.007 C 
ENDBRANCH   9  13
BRANCH  10  14
ATOM     14  C   UNL     1      15.180   6.644  20.259  0.00  0.00    +0.092 C 
BRANCH  14   3
ATOM      3  N   UNL     1      16.638   6.699  20.148  0.00  0.00    -0.302 NA
ATOM     17  C   UNL     1      17.251   6.805  21.479  0.00  0.00    +0.085 C 
ATOM     18  C   UNL     1      17.142   5.524  19.424  0.00  0.00    +0.085 C 
ATOM     20  C   UNL     1      19.365   5.747  20.598  0.00  0.00    +0.077 C 
ATOM     21  C   UNL     1      18.773   6.920  21.377  0.00  0.00    +0.028 C 
ATOM     22  C   UNL     1      18.661   5.593  19.251  0.00  0.00    +0.028 C 
BRANCH  20  27
ATOM      2  O   UNL     1      21.371   7.045  20.573  0.00  0.00    -0.276 OA
ATOM      5  N   UNL     1      21.491   4.841  19.923  0.00  0.00    -0.329 N 
ATOM     27  C   UNL     1      20.831   5.959  20.377  0.00  0.00    +0.214 C 
ATOM     33  H   UNL     1      22.487   4.866  19.730  0.00  0.00    +0.145 HD
ATOM     34  H   UNL     1      21.021   3.954  19.772  0.00  0.00    +0.145 HD
ENDBRANCH  20  27
ENDBRANCH  14   3
ENDBRANCH  10  14
BRANCH  12  19
ATOM     19  C   UNL     1      12.525   9.280  17.190  0.00  0.00    +0.105 C 
BRANCH  19  26
ATOM      1  O   UNL     1      14.106  10.692  15.980  0.00  0.00    -0.419 OA
ATOM      4  N   UNL     1      14.091   8.556  15.316  0.00  0.00    -0.112 NA
ATOM      6  N   UNL     1      15.023   9.234  14.553  0.00  0.00    -0.106 NA
ATOM     26  C   UNL     1      13.581   9.446  16.135  0.00  0.00    +0.218 A 
ATOM     28  C   UNL     1      14.998  10.477  14.974  0.00  0.00    +0.266 A 
BRANCH  28  29
ATOM      7  N   UNL     1      15.422  12.400  13.490  0.00  0.00    -0.329 N 
ATOM      8  N   UNL     1      17.538  12.894  13.952  0.00  0.00    -0.243 NA
ATOM     29  C   UNL     1      15.818  11.498  14.436  0.00  0.00    +0.125 A 
ATOM     30  C   UNL     1      17.127  11.822  14.706  0.00  0.00    +0.143 A 
ATOM     31  C   UNL     1      16.487  13.217  13.231  0.00  0.00    +0.199 A 
ATOM     32  C   UNL     1      14.124  12.496  12.863  0.00  0.00    +0.150 C 
ENDBRANCH  28  29
ENDBRANCH  19  26
ENDBRANCH  12  19
TORSDOF 7
ENDMDL
MODEL 6
REMARK VINA RESULT:      -6.4     19.477     22.974
REMARK  Name = 45784099
REMARK  11 active torsions:
REMARK  status: ('A' for Active; 'I' for Inactive)
REMARK    1  A    between atoms: N_3  and  C_14
REMARK    2  A    between atoms: N_7  and  C_32
REMARK    3  A    between atoms: C_9  and  C_13
REMARK    4  A    between atoms: C_10  and  C_14
REMARK    5  A    between atoms: C_12  and  C_19
REMARK    6  A    between atoms: C_13  and  C_23
REMARK    7  A    between atoms: C_13  and  C_24
REMARK    8  A    between atoms: C_16  and  C_25
REMARK    9  A    between atoms: C_19  and  C_26
REMARK   10  A    between atoms: C_20  and  C_27
REMARK   11  A    between atoms: C_28  and  C_29
REMARK                            x       y       z     vdW  Elec       q    Type
REMARK                         _______ _______ _______ _____ _____    ______ ____
ROOT
ATOM      9  C   UNL     1      -5.103 -11.986  15.297  0.00  0.00    +0.000 C 
ATOM     10  C   UNL     1      -4.810 -11.038  16.484  0.00  0.00    +0.029 C 
ATOM     11  C   UNL     1      -4.447 -11.461  14.013  0.00  0.00    +0.012 C 
ATOM     12  C   UNL     1      -2.922 -11.257  14.144  0.00  0.00    +0.024 C 
ATOM     15  C   UNL     1      -3.373 -10.585  16.521  0.00  0.00    -0.023 C 
ATOM     16  C   UNL     1      -2.511 -10.685  15.492  0.00  0.00    -0.073 C 
ATOM     25  C   UNL     1      -1.072 -10.280  15.666  0.00  0.00    +0.039 C 
ENDROOT
BRANCH   9  13
ATOM     13  C   UNL     1      -4.651 -13.421  15.604  0.00  0.00    -0.013 C 
ATOM     23  C   UNL     1      -5.249 -13.896  16.924  0.00  0.00    +0.007 C 
ATOM     24  C   UNL     1      -5.042 -14.356  14.464  0.00  0.00    +0.007 C 
ENDBRANCH   9  13
BRANCH  10  14
ATOM     14  C   UNL     1      -5.725  -9.809  16.464  0.00  0.00    +0.092 C 
BRANCH  14   3
ATOM      3  N   UNL     1      -6.798  -9.949  17.449  0.00  0.00    -0.302 NA
ATOM     17  C   UNL     1      -8.034 -10.409  16.801  0.00  0.00    +0.085 C 
ATOM     18  C   UNL     1      -6.392 -10.864  18.524  0.00  0.00    +0.085 C 
ATOM     20  C   UNL     1      -8.812 -11.416  18.979  0.00  0.00    +0.077 C 
ATOM     21  C   UNL     1      -9.181 -10.507  17.808  0.00  0.00    +0.028 C 
ATOM     22  C   UNL     1      -7.482 -10.981  19.591  0.00  0.00    +0.028 C 
BRANCH  20  27
ATOM      2  O   UNL     1     -10.387 -12.395  20.485  0.00  0.00    -0.276 OA
ATOM      5  N   UNL     1     -10.247 -10.100  20.395  0.00  0.00    -0.329 N 
ATOM     27  C   UNL     1      -9.883 -11.374  20.025  0.00  0.00    +0.214 C 
ATOM     33  H   UNL     1     -10.969  -9.946  21.091  0.00  0.00    +0.145 HD
ATOM     34  H   UNL     1      -9.811  -9.272  20.001  0.00  0.00    +0.145 HD
ENDBRANCH  20  27
ENDBRANCH  14   3
ENDBRANCH  10  14
BRANCH  12  19
ATOM     19  C   UNL     1      -2.438 -10.406  12.963  0.00  0.00    +0.105 C 
BRANCH  19  26
ATOM      1  O   UNL     1      -3.913  -9.903  11.085  0.00  0.00    -0.419 OA
ATOM      4  N   UNL     1      -3.025 -11.956  11.028  0.00  0.00    -0.112 NA
ATOM      6  N   UNL     1      -3.832 -11.808   9.915  0.00  0.00    -0.106 NA
ATOM     26  C   UNL     1      -3.102 -10.820  11.681  0.00  0.00    +0.218 A 
ATOM     28  C   UNL     1      -4.329 -10.596   9.989  0.00  0.00    +0.266 A 
BRANCH  28  29
ATOM      7  N   UNL     1      -6.391  -9.425   9.310  0.00  0.00    -0.329 N 
ATOM      8  N   UNL     1      -6.215  -9.407   7.096  0.00  0.00    -0.243 NA
ATOM     29  C   UNL     1      -5.215 -10.058   9.023  0.00  0.00    +0.125 A 
ATOM     30  C   UNL     1      -5.127 -10.035   7.652  0.00  0.00    +0.143 A 
ATOM     31  C   UNL     1      -6.956  -9.053   8.122  0.00  0.00    +0.199 A 
ATOM     32  C   UNL     1      -6.957  -9.181  10.617  0.00  0.00    +0.150 C 
ENDBRANCH  28  29
ENDBRANCH  19  26
ENDBRANCH  12  19
TORSDOF 7
ENDMDL
MODEL 7
REMARK VINA RESULT:      -6.4     18.869     20.994
REMARK  Name = 45784099
REMARK  11 active torsions:
REMARK  status: ('A' for Active; 'I' for Inactive)
REMARK    1  A    between atoms: N_3  and  C_14
REMARK    2  A    between atoms: N_7  and  C_32
REMARK    3  A    between atoms: C_9  and  C_13
REMARK    4  A    between atoms: C_10  and  C_14
REMARK    5  A    between atoms: C_12  and  C_19
REMARK    6  A    between atoms: C_13  and  C_23
REMARK    7  A    between atoms: C_13  and  C_24
REMARK    8  A    between atoms: C_16  and  C_25
REMARK    9  A    between atoms: C_19  and  C_26
REMARK   10  A    between atoms: C_20  and  C_27
REMARK   11  A    between atoms: C_28  and  C_29
REMARK                            x       y       z     vdW  Elec       q    Type
REMARK                         _______ _______ _______ _____ _____    ______ ____
ROOT
ATOM      9  C   UNL     1      -3.432 -10.441  15.577  0.00  0.00    +0.000 C 
ATOM     10  C   UNL     1      -4.449 -11.166  14.665  0.00  0.00    +0.029 C 
ATOM     11  C   UNL     1      -3.975 -10.329  17.008  0.00  0.00    +0.012 C 
ATOM     12  C   UNL     1      -4.342 -11.693  17.631  0.00  0.00    +0.024 C 
ATOM     15  C   UNL     1      -5.052 -12.381  15.323  0.00  0.00    -0.023 C 
ATOM     16  C   UNL     1      -5.005 -12.640  16.643  0.00  0.00    -0.073 C 
ATOM     25  C   UNL     1      -5.564 -13.928  17.183  0.00  0.00    +0.039 C 
ENDROOT
BRANCH   9  13
ATOM     13  C   UNL     1      -2.065 -11.140  15.555  0.00  0.00    -0.013 C 
ATOM     23  C   UNL     1      -1.885 -11.916  14.255  0.00  0.00    +0.007 C 
ATOM     24  C   UNL     1      -0.944 -10.121  15.737  0.00  0.00    +0.007 C 
ENDBRANCH   9  13
BRANCH  10  14
ATOM     14  C   UNL     1      -5.573 -10.228  14.214  0.00  0.00    +0.092 C 
BRANCH  14   3
ATOM      3  N   UNL     1      -5.688 -10.224  12.756  0.00  0.00    -0.302 NA
ATOM     17  C   UNL     1      -6.465  -9.061  12.305  0.00  0.00    +0.085 C 
ATOM     18  C   UNL     1      -4.356 -10.243  12.136  0.00  0.00    +0.085 C 
ATOM     20  C   UNL     1      -5.292  -9.131  10.073  0.00  0.00    +0.077 C 
ATOM     21  C   UNL     1      -6.642  -9.071  10.785  0.00  0.00    +0.028 C 
ATOM     22  C   UNL     1      -4.458 -10.293  10.610  0.00  0.00    +0.028 C 
BRANCH  20  27
ATOM      2  O   UNL     1      -4.843 -10.105   7.937  0.00  0.00    -0.276 OA
ATOM      5  N   UNL     1      -6.445  -8.459   8.069  0.00  0.00    -0.329 N 
ATOM     27  C   UNL     1      -5.492  -9.298   8.598  0.00  0.00    +0.214 C 
ATOM     33  H   UNL     1      -6.663  -8.476   7.078  0.00  0.00    +0.145 HD
ATOM     34  H   UNL     1      -6.971  -7.803   8.638  0.00  0.00    +0.145 HD
ENDBRANCH  20  27
ENDBRANCH  14   3
ENDBRANCH  10  14
BRANCH  12  19
ATOM     19  C   UNL     1      -5.194 -11.446  18.882  0.00  0.00    +0.105 C 
BRANCH  19  26
ATOM      1  O   UNL     1      -6.857 -10.120  17.687  0.00  0.00    -0.419 OA
ATOM      4  N   UNL     1      -7.718 -11.786  18.905  0.00  0.00    -0.112 NA
ATOM      6  N   UNL     1      -8.764 -11.124  18.288  0.00  0.00    -0.106 NA
ATOM     26  C   UNL     1      -6.626 -11.166  18.525  0.00  0.00    +0.218 A 
ATOM     28  C   UNL     1      -8.215 -10.159  17.588  0.00  0.00    +0.266 A 
BRANCH  28  29
ATOM      7  N   UNL     1      -9.373  -9.472  15.521  0.00  0.00    -0.329 N 
ATOM      8  N   UNL     1     -10.113  -7.446  16.048  0.00  0.00    -0.243 NA
ATOM     29  C   UNL     1      -8.961  -9.246  16.804  0.00  0.00    +0.125 A 
ATOM     30  C   UNL     1      -9.430  -7.989  17.108  0.00  0.00    +0.143 A 
ATOM     31  C   UNL     1     -10.059  -8.364  15.110  0.00  0.00    +0.199 A 
ATOM     32  C   UNL     1      -9.140 -10.654  14.724  0.00  0.00    +0.150 C 
ENDBRANCH  28  29
ENDBRANCH  19  26
ENDBRANCH  12  19
TORSDOF 7
ENDMDL
MODEL 8
REMARK VINA RESULT:      -6.3     11.242     14.247
REMARK  Name = 45784099
REMARK  11 active torsions:
REMARK  status: ('A' for Active; 'I' for Inactive)
REMARK    1  A    between atoms: N_3  and  C_14
REMARK    2  A    between atoms: N_7  and  C_32
REMARK    3  A    between atoms: C_9  and  C_13
REMARK    4  A    between atoms: C_10  and  C_14
REMARK    5  A    between atoms: C_12  and  C_19
REMARK    6  A    between atoms: C_13  and  C_23
REMARK    7  A    between atoms: C_13  and  C_24
REMARK    8  A    between atoms: C_16  and  C_25
REMARK    9  A    between atoms: C_19  and  C_26
REMARK   10  A    between atoms: C_20  and  C_27
REMARK   11  A    between atoms: C_28  and  C_29
REMARK                            x       y       z     vdW  Elec       q    Type
REMARK                         _______ _______ _______ _____ _____    ______ ____
ROOT
ATOM      9  C   UNL     1     -15.017   5.202  32.758  0.00  0.00    +0.000 C 
ATOM     10  C   UNL     1     -16.014   5.647  31.662  0.00  0.00    +0.029 C 
ATOM     11  C   UNL     1     -13.702   5.985  32.640  0.00  0.00    +0.012 C 
ATOM     12  C   UNL     1     -13.894   7.516  32.710  0.00  0.00    +0.024 C 
ATOM     15  C   UNL     1     -16.059   7.145  31.496  0.00  0.00    -0.023 C 
ATOM     16  C   UNL     1     -15.129   7.996  31.966  0.00  0.00    -0.073 C 
ATOM     25  C   UNL     1     -15.319   9.482  31.819  0.00  0.00    +0.039 C 
ENDROOT
BRANCH   9  13
ATOM     13  C   UNL     1     -15.625   5.347  34.160  0.00  0.00    -0.013 C 
ATOM     23  C   UNL     1     -17.017   4.725  34.202  0.00  0.00    +0.007 C 
ATOM     24  C   UNL     1     -14.714   4.707  35.203  0.00  0.00    +0.007 C 
ENDBRANCH   9  13
BRANCH  10  14
ATOM     14  C   UNL     1     -15.696   4.999  30.311  0.00  0.00    +0.092 C 
BRANCH  14   3
ATOM      3  N   UNL     1     -15.461   3.564  30.469  0.00  0.00    -0.302 NA
ATOM     17  C   UNL     1     -16.362   2.797  29.596  0.00  0.00    +0.085 C 
ATOM     18  C   UNL     1     -14.055   3.240  30.194  0.00  0.00    +0.085 C 
ATOM     20  C   UNL     1     -14.713   0.888  29.558  0.00  0.00    +0.077 C 
ATOM     21  C   UNL     1     -16.168   1.292  29.790  0.00  0.00    +0.028 C 
ATOM     22  C   UNL     1     -13.780   1.750  30.407  0.00  0.00    +0.028 C 
BRANCH  20  27
ATOM      2  O   UNL     1     -13.708  -1.265  29.309  0.00  0.00    -0.276 OA
ATOM      5  N   UNL     1     -15.326  -0.998  30.924  0.00  0.00    -0.329 N 
ATOM     27  C   UNL     1     -14.515  -0.555  29.905  0.00  0.00    +0.214 C 
ATOM     33  H   UNL     1     -15.286  -1.960  31.242  0.00  0.00    +0.145 HD
ATOM     34  H   UNL     1     -15.982  -0.388  31.402  0.00  0.00    +0.145 HD
ENDBRANCH  20  27
ENDBRANCH  14   3
ENDBRANCH  10  14
BRANCH  12  19
ATOM     19  C   UNL     1     -12.605   8.193  32.226  0.00  0.00    +0.105 C 
BRANCH  19  26
ATOM      1  O   UNL     1     -12.245   8.561  34.611  0.00  0.00    -0.419 OA
ATOM      4  N   UNL     1     -11.032   9.893  33.285  0.00  0.00    -0.112 NA
ATOM      6  N   UNL     1     -10.731  10.208  34.598  0.00  0.00    -0.106 NA
ATOM     26  C   UNL     1     -11.919   8.927  33.342  0.00  0.00    +0.218 A 
ATOM     28  C   UNL     1     -11.461   9.407  35.336  0.00  0.00    +0.266 A 
BRANCH  28  29
ATOM      7  N   UNL     1     -10.449   8.878  37.522  0.00  0.00    -0.329 N 
ATOM      8  N   UNL     1     -11.928   9.729  38.944  0.00  0.00    -0.243 NA
ATOM     29  C   UNL     1     -11.439   9.418  36.753  0.00  0.00    +0.125 A 
ATOM     30  C   UNL     1     -12.340   9.938  37.652  0.00  0.00    +0.143 A 
ATOM     31  C   UNL     1     -10.786   9.088  38.830  0.00  0.00    +0.199 A 
ATOM     32  C   UNL     1      -9.256   8.203  37.065  0.00  0.00    +0.150 C 
ENDBRANCH  28  29
ENDBRANCH  19  26
ENDBRANCH  12  19
TORSDOF 7
ENDMDL
MODEL 9
REMARK VINA RESULT:      -6.3     20.319     22.839
REMARK  Name = 45784099
REMARK  11 active torsions:
REMARK  status: ('A' for Active; 'I' for Inactive)
REMARK    1  A    between atoms: N_3  and  C_14
REMARK    2  A    between atoms: N_7  and  C_32
REMARK    3  A    between atoms: C_9  and  C_13
REMARK    4  A    between atoms: C_10  and  C_14
REMARK    5  A    between atoms: C_12  and  C_19
REMARK    6  A    between atoms: C_13  and  C_23
REMARK    7  A    between atoms: C_13  and  C_24
REMARK    8  A    between atoms: C_16  and  C_25
REMARK    9  A    between atoms: C_19  and  C_26
REMARK   10  A    between atoms: C_20  and  C_27
REMARK   11  A    between atoms: C_28  and  C_29
REMARK                            x       y       z     vdW  Elec       q    Type
REMARK                         _______ _______ _______ _____ _____    ______ ____
ROOT
ATOM      9  C   UNL     1      -5.538 -10.537  10.654  0.00  0.00    +0.000 C 
ATOM     10  C   UNL     1      -4.732 -10.190   9.380  0.00  0.00    +0.029 C 
ATOM     11  C   UNL     1      -4.647 -11.257  11.675  0.00  0.00    +0.012 C 
ATOM     12  C   UNL     1      -3.390 -10.450  12.067  0.00  0.00    +0.024 C 
ATOM     15  C   UNL     1      -3.368  -9.630   9.694  0.00  0.00    -0.023 C 
ATOM     16  C   UNL     1      -2.757  -9.725  10.889  0.00  0.00    -0.073 C 
ATOM     25  C   UNL     1      -1.430  -9.054  11.118  0.00  0.00    +0.039 C 
ENDROOT
BRANCH   9  13
ATOM     13  C   UNL     1      -6.184  -9.286  11.265  0.00  0.00    -0.013 C 
ATOM     23  C   UNL     1      -7.292  -8.762  10.357  0.00  0.00    +0.007 C 
ATOM     24  C   UNL     1      -6.724  -9.593  12.658  0.00  0.00    +0.007 C 
ENDBRANCH   9  13
BRANCH  10  14
ATOM     14  C   UNL     1      -4.578 -11.405   8.459  0.00  0.00    +0.092 C 
BRANCH  14   3
ATOM      3  N   UNL     1      -5.185 -11.143   7.154  0.00  0.00    -0.302 NA
ATOM     17  C   UNL     1      -6.122 -12.218   6.798  0.00  0.00    +0.085 C 
ATOM     18  C   UNL     1      -5.853  -9.835   7.151  0.00  0.00    +0.085 C 
ATOM     20  C   UNL     1      -7.404 -10.623   5.323  0.00  0.00    +0.077 C 
ATOM     21  C   UNL     1      -6.724 -11.988   5.411  0.00  0.00    +0.028 C 
ATOM     22  C   UNL     1      -6.447  -9.522   5.777  0.00  0.00    +0.028 C 
BRANCH  20  27
ATOM      2  O   UNL     1      -7.141 -10.622   2.948  0.00  0.00    -0.276 OA
ATOM      5  N   UNL     1      -9.090  -9.773   3.829  0.00  0.00    -0.329 N 
ATOM     27  C   UNL     1      -7.847 -10.354   3.917  0.00  0.00    +0.214 C 
ATOM     33  H   UNL     1      -9.493  -9.539   2.928  0.00  0.00    +0.145 HD
ATOM     34  H   UNL     1      -9.655  -9.566   4.647  0.00  0.00    +0.145 HD
ENDBRANCH  20  27
ENDBRANCH  14   3
ENDBRANCH  10  14
BRANCH  12  19
ATOM     19  C   UNL     1      -2.412 -11.386  12.787  0.00  0.00    +0.105 C 
BRANCH  19  26
ATOM      1  O   UNL     1      -3.574 -11.345  14.932  0.00  0.00    -0.419 OA
ATOM      4  N   UNL     1      -1.423 -10.743  15.044  0.00  0.00    -0.112 NA
ATOM      6  N   UNL     1      -1.953 -10.674  16.319  0.00  0.00    -0.106 NA
ATOM     26  C   UNL     1      -2.404 -11.139  14.268  0.00  0.00    +0.218 A 
ATOM     28  C   UNL     1      -3.210 -11.034  16.206  0.00  0.00    +0.266 A 
BRANCH  28  29
ATOM      7  N   UNL     1      -5.300 -10.436  17.371  0.00  0.00    -0.329 N 
ATOM      8  N   UNL     1      -5.109 -11.551  19.282  0.00  0.00    -0.243 NA
ATOM     29  C   UNL     1      -4.104 -11.092  17.303  0.00  0.00    +0.125 A 
ATOM     30  C   UNL     1      -4.008 -11.774  18.493  0.00  0.00    +0.143 A 
ATOM     31  C   UNL     1      -5.867 -10.741  18.577  0.00  0.00    +0.199 A 
ATOM     32  C   UNL     1      -5.882  -9.573  16.369  0.00  0.00    +0.150 C 
ENDBRANCH  28  29
ENDBRANCH  19  26
ENDBRANCH  12  19
TORSDOF 7
ENDMDL
MODEL 10
REMARK VINA RESULT:      -6.1     26.093     32.095
REMARK  Name = 45784099
REMARK  11 active torsions:
REMARK  status: ('A' for Active; 'I' for Inactive)
REMARK    1  A    between atoms: N_3  and  C_14
REMARK    2  A    between atoms: N_7  and  C_32
REMARK    3  A    between atoms: C_9  and  C_13
REMARK    4  A    between atoms: C_10  and  C_14
REMARK    5  A    between atoms: C_12  and  C_19
REMARK    6  A    between atoms: C_13  and  C_23
REMARK    7  A    between atoms: C_13  and  C_24
REMARK    8  A    between atoms: C_16  and  C_25
REMARK    9  A    between atoms: C_19  and  C_26
REMARK   10  A    between atoms: C_20  and  C_27
REMARK   11  A    between atoms: C_28  and  C_29
REMARK                            x       y       z     vdW  Elec       q    Type
REMARK                         _______ _______ _______ _____ _____    ______ ____
ROOT
ATOM      9  C   UNL     1      11.069   7.042   3.493  0.00  0.00    +0.000 C 
ATOM     10  C   UNL     1       9.832   7.972   3.496  0.00  0.00    +0.029 C 
ATOM     11  C   UNL     1      10.875   5.891   2.497  0.00  0.00    +0.012 C 
ATOM     12  C   UNL     1      10.589   6.369   1.057  0.00  0.00    +0.024 C 
ATOM     15  C   UNL     1       9.333   8.274   2.106  0.00  0.00    -0.023 C 
ATOM     16  C   UNL     1       9.669   7.579   1.003  0.00  0.00    -0.073 C 
ATOM     25  C   UNL     1       9.181   8.021  -0.349  0.00  0.00    +0.039 C 
ENDROOT
BRANCH   9  13
ATOM     13  C   UNL     1      12.355   7.825   3.194  0.00  0.00    -0.013 C 
ATOM     23  C   UNL     1      12.520   8.975   4.182  0.00  0.00    +0.007 C 
ATOM     24  C   UNL     1      13.564   6.896   3.238  0.00  0.00    +0.007 C 
ENDBRANCH   9  13
BRANCH  10  14
ATOM     14  C   UNL     1       8.686   7.386   4.326  0.00  0.00    +0.092 C 
BRANCH  14   3
ATOM      3  N   UNL     1       9.173   6.926   5.626  0.00  0.00    -0.302 NA
ATOM     17  C   UNL     1       8.432   7.583   6.713  0.00  0.00    +0.085 C 
ATOM     18  C   UNL     1       9.072   5.464   5.725  0.00  0.00    +0.085 C 
ATOM     20  C   UNL     1       8.929   5.636   8.239  0.00  0.00    +0.077 C 
ATOM     21  C   UNL     1       8.966   7.155   8.081  0.00  0.00    +0.028 C 
ATOM     22  C   UNL     1       9.627   4.961   7.059  0.00  0.00    +0.028 C 
BRANCH  20  27
ATOM      2  O   UNL     1      10.800   5.402   9.706  0.00  0.00    -0.276 OA
ATOM      5  N   UNL     1       8.750   4.644  10.425  0.00  0.00    -0.329 N 
ATOM     27  C   UNL     1       9.599   5.231   9.516  0.00  0.00    +0.214 C 
ATOM     33  H   UNL     1       9.091   4.322  11.324  0.00  0.00    +0.145 HD
ATOM     34  H   UNL     1       7.759   4.517  10.244  0.00  0.00    +0.145 HD
ENDBRANCH  20  27
ENDBRANCH  14   3
ENDBRANCH  10  14
BRANCH  12  19
ATOM     19  C   UNL     1      10.061   5.182   0.243  0.00  0.00    +0.105 C 
BRANCH  19  26
ATOM      1  O   UNL     1      12.409   5.040  -0.405  0.00  0.00    -0.419 OA
ATOM      4  N   UNL     1      11.128   3.409  -1.243  0.00  0.00    -0.112 NA
ATOM      6  N   UNL     1      12.421   3.207  -1.688  0.00  0.00    -0.106 NA
ATOM     26  C   UNL     1      11.168   4.489  -0.498  0.00  0.00    +0.218 A 
ATOM     28  C   UNL     1      13.134   4.182  -1.174  0.00  0.00    +0.266 A 
BRANCH  28  29
ATOM      7  N   UNL     1      15.084   4.801  -2.552  0.00  0.00    -0.329 N 
ATOM      8  N   UNL     1      16.782   4.350  -1.194  0.00  0.00    -0.243 NA
ATOM     29  C   UNL     1      14.525   4.329  -1.398  0.00  0.00    +0.125 A 
ATOM     30  C   UNL     1      15.592   4.058  -0.575  0.00  0.00    +0.143 A 
ATOM     31  C   UNL     1      16.441   4.795  -2.382  0.00  0.00    +0.199 A 
ATOM     32  C   UNL     1      14.394   5.233  -3.745  0.00  0.00    +0.150 C 
ENDBRANCH  28  29
ENDBRANCH  19  26
ENDBRANCH  12  19
TORSDOF 7
ENDMDL
