REMARK  Name = 7687036
REMARK  4 active torsions:
REMARK  status: ('A' for Active; 'I' for Inactive)
REMARK    1  A    between atoms: O_3  and  C_24
REMARK    2  A    between atoms: O_3  and  C_30
REMARK    3  A    between atoms: C_15  and  C_20
REMARK    4  A    between atoms: C_17  and  C_21
REMARK                            x       y       z     vdW  Elec       q    Type
REMARK                         _______ _______ _______ _____ _____    ______ ____
ROOT
ATOM      1  O   UNL     1      -0.999  -3.553   2.399  0.00  0.00    -0.268 OA
ATOM      2  O   UNL     1       3.187  -1.635   0.267  0.00  0.00    -0.270 OA
ATOM      4  N   UNL     1       1.422  -1.130  -1.180  0.00  0.00    -0.296 N 
ATOM      5  N   UNL     1      -1.037  -2.242   0.459  0.00  0.00    -0.311 N 
ATOM      8  C   UNL     1      -0.014  -3.074  -1.742  0.00  0.00    +0.027 C 
ATOM      9  C   UNL     1      -1.006  -0.826  -1.618  0.00  0.00    +0.054 C 
ATOM     10  C   UNL     1      -1.024  -2.142  -2.394  0.00  0.00    +0.018 C 
ATOM     11  C   UNL     1       1.395  -2.460  -1.785  0.00  0.00    +0.113 C 
ATOM     12  C   UNL     1      -0.472  -3.360  -0.311  0.00  0.00    +0.130 C 
ATOM     13  C   UNL     1       0.404  -0.202  -1.694  0.00  0.00    +0.117 C 
ATOM     14  C   UNL     1      -1.410  -1.030  -0.155  0.00  0.00    +0.034 A 
ATOM     15  C   UNL     1      -2.071  -0.083   0.561  0.00  0.00    +0.005 A 
ATOM     16  C   UNL     1      -1.290  -2.508   1.816  0.00  0.00    +0.252 A 
ATOM     17  C   UNL     1       2.337  -0.856  -0.160  0.00  0.00    +0.250 C 
ATOM     18  C   UNL     1      -2.346  -0.321   1.965  0.00  0.00    +0.015 A 
ATOM     19  C   UNL     1      -1.976  -1.443   2.582  0.00  0.00    +0.071 A 
ENDROOT
BRANCH  15  20
ATOM      6  N   UNL     1      -2.051   3.478  -0.611  0.00  0.00    -0.243 NA
ATOM      7  N   UNL     1      -4.168   2.483  -1.193  0.00  0.00    -0.243 NA
ATOM     20  C   UNL     1      -2.504   1.194  -0.049  0.00  0.00    +0.020 A 
ATOM     22  C   UNL     1      -1.689   2.299  -0.064  0.00  0.00    +0.122 A 
ATOM     23  C   UNL     1      -3.741   1.335  -0.628  0.00  0.00    +0.122 A 
ATOM     29  C   UNL     1      -3.285   3.500  -1.150  0.00  0.00    +0.221 A 
ENDBRANCH  15  20
BRANCH  17  21
ATOM     21  C   UNL     1       2.284   0.462   0.484  0.00  0.00    +0.078 A 
ATOM     24  C   UNL     1       3.033   1.528  -0.011  0.00  0.00    +0.132 A 
ATOM     25  C   UNL     1       1.473   0.635   1.604  0.00  0.00    +0.017 A 
ATOM     26  C   UNL     1       2.969   2.772   0.616  0.00  0.00    +0.046 A 
ATOM     27  C   UNL     1       1.409   1.879   2.231  0.00  0.00    +0.001 A 
ATOM     28  C   UNL     1       2.158   2.948   1.737  0.00  0.00    +0.004 A 
BRANCH  24   3
ATOM      3  O   UNL     1       3.832   1.377  -1.105  0.00  0.00    -0.494 OA
ATOM     30  C   UNL     1       5.180   0.975  -0.871  0.00  0.00    +0.277 C 
ENDBRANCH  24   3
ENDBRANCH  17  21
TORSDOF 3
