REMARK  Name = 71693333
REMARK  9 active torsions:
REMARK  status: ('A' for Active; 'I' for Inactive)
REMARK    1  A    between atoms: O_2  and  C_17
REMARK    2  A    between atoms: N_5  and  C_13
REMARK    3  A    between atoms: N_6  and  C_20
REMARK    4  A    between atoms: C_7  and  C_14
REMARK    5  A    between atoms: C_11  and  C_17
REMARK    6  A    between atoms: C_12  and  C_16
REMARK    7  A    between atoms: C_13  and  C_15
REMARK    8  A    between atoms: C_15  and  C_23
REMARK    9  A    between atoms: C_15  and  C_24
REMARK                            x       y       z     vdW  Elec       q    Type
REMARK                         _______ _______ _______ _____ _____    ______ ____
ROOT
ATOM      1  O   UNL     1       2.075   1.759   0.912  0.00  0.00    -0.361 OA
ATOM      4  O   UNL     1       5.599   1.578   0.418  0.00  0.00    -0.273 OA
ATOM      5  N   UNL     1       3.941   0.120  -0.328  0.00  0.00    -0.291 N 
ATOM     11  C   UNL     1       2.502  -0.239  -0.351  0.00  0.00    +0.135 C 
ATOM     12  C   UNL     1       1.613   1.012  -0.214  0.00  0.00    +0.171 C 
ATOM     18  C   UNL     1       4.409   1.295   0.262  0.00  0.00    +0.242 C 
ATOM     19  C   UNL     1       3.349   2.302   0.663  0.00  0.00    +0.256 C 
ENDROOT
BRANCH  12  16
ATOM     16  C   UNL     1       0.148   0.711   0.025  0.00  0.00    -0.017 A 
ATOM     20  C   UNL     1      -2.551   0.159   0.465  0.00  0.00    +0.033 A 
ATOM     21  C   UNL     1      -0.820   1.227  -0.838  0.00  0.00    +0.008 A 
ATOM     22  C   UNL     1      -0.235  -0.081   1.107  0.00  0.00    +0.008 A 
ATOM     25  C   UNL     1      -2.169   0.951  -0.618  0.00  0.00    +0.023 A 
ATOM     26  C   UNL     1      -1.584  -0.357   1.327  0.00  0.00    +0.023 A 
BRANCH  20   6
ATOM      3  O   UNL     1      -4.970   1.010  -1.069  0.00  0.00    -0.275 OA
ATOM      6  N   UNL     1      -3.901  -0.118   0.686  0.00  0.00    -0.285 N 
ATOM     14  C   UNL     1      -5.012   0.300  -0.061  0.00  0.00    +0.220 C 
ATOM     27  H   UNL     1      -4.097  -0.701   1.496  0.00  0.00    +0.155 HD
BRANCH  14   7
ATOM      7  C   UNL     1      -6.341  -0.212   0.501  0.00  0.00    +0.075 C 
ATOM      8  C   UNL     1      -7.620  -0.001  -0.351  0.00  0.00    +0.013 C 
ATOM      9  C   UNL     1      -6.628  -1.732   0.389  0.00  0.00    +0.013 C 
ATOM     10  C   UNL     1      -8.107  -1.371   0.157  0.00  0.00    +0.001 C 
ENDBRANCH  14   7
ENDBRANCH  20   6
ENDBRANCH  12  16
BRANCH   5  13
ATOM     13  C   UNL     1       4.910  -0.899  -0.721  0.00  0.00    +0.111 C 
BRANCH  13  15
ATOM     15  C   UNL     1       5.161  -1.924   0.390  0.00  0.00    +0.000 C 
ATOM     23  C   UNL     1       6.133  -3.017  -0.059  0.00  0.00    +0.009 C 
ATOM     24  C   UNL     1       5.702  -1.224   1.637  0.00  0.00    +0.009 C 
ENDBRANCH  13  15
ENDBRANCH   5  13
BRANCH  11  17
ATOM     17  C   UNL     1       2.115  -1.042  -1.602  0.00  0.00    +0.181 C 
BRANCH  17   2
ATOM      2  O   UNL     1       2.281  -0.207  -2.730  0.00  0.00    -0.393 OA
ATOM     28  H   UNL     1       2.012  -0.721  -3.510  0.00  0.00    +0.209 HD
ENDBRANCH  17   2
ENDBRANCH  11  17
TORSDOF 7
