MODEL 1
REMARK VINA RESULT:      -7.0      0.000      0.000
REMARK  Name = 25389311
REMARK  6 active torsions:
REMARK  status: ('A' for Active; 'I' for Inactive)
REMARK    1  A    between atoms: N_6  and  C_15
REMARK    2  A    between atoms: N_7  and  C_16
REMARK    3  A    between atoms: C_9  and  C_15
REMARK    4  A    between atoms: C_10  and  C_16
REMARK    5  A    between atoms: C_22  and  C_23
REMARK    6  A    between atoms: C_28  and  C_29
REMARK                            x       y       z     vdW  Elec       q    Type
REMARK                         _______ _______ _______ _____ _____    ______ ____
ROOT
ATOM      5  N   UNL     1      11.046   8.515  20.882  0.00  0.00    -0.298 NA
ATOM      8  C   UNL     1      12.840   9.914  22.143  0.00  0.00    -0.003 C 
ATOM      9  C   UNL     1      12.669  10.416  20.691  0.00  0.00    +0.020 C 
ATOM     10  C   UNL     1      12.054   7.612  21.499  0.00  0.00    +0.074 C 
ATOM     11  C   UNL     1      13.213   8.420  22.126  0.00  0.00    +0.024 C 
ATOM     12  C   UNL     1      11.703   9.463  19.951  0.00  0.00    +0.089 C 
ATOM     13  C   UNL     1      11.463  10.033  22.823  0.00  0.00    +0.019 C 
ATOM     14  C   UNL     1      10.412   9.300  21.970  0.00  0.00    +0.085 C 
ENDROOT
BRANCH   9  15
ATOM     15  C   UNL     1      13.993  10.566  19.945  0.00  0.00    +0.089 C 
BRANCH  15   6
ATOM      6  N   UNL     1      14.141  11.919  19.412  0.00  0.00    -0.302 NA
ATOM     17  C   UNL     1      13.317  12.867  20.175  0.00  0.00    +0.084 C 
ATOM     18  C   UNL     1      13.797  11.949  17.983  0.00  0.00    +0.084 C 
ATOM     19  C   UNL     1      13.498  14.295  19.662  0.00  0.00    +0.015 C 
ATOM     20  C   UNL     1      13.995  13.347  17.397  0.00  0.00    +0.015 C 
ATOM     21  C   UNL     1      13.196  14.391  18.170  0.00  0.00    +0.002 C 
ENDBRANCH  15   6
ENDBRANCH   9  15
BRANCH  10  16
ATOM     16  C   UNL     1      12.566   6.553  20.519  0.00  0.00    +0.123 C 
BRANCH  16   7
ATOM      4  O   UNL     1      14.559   7.391  18.630  0.00  0.00    -0.270 OA
ATOM      7  N   UNL     1      14.004   6.387  20.645  0.00  0.00    -0.310 N 
ATOM     22  C   UNL     1      14.882   6.827  19.673  0.00  0.00    +0.244 C 
ATOM     30  H   UNL     1      14.342   5.976  21.508  0.00  0.00    +0.149 HD
BRANCH  22  23
ATOM     23  C   UNL     1      16.318   6.559  19.938  0.00  0.00    +0.037 A 
ATOM     24  C   UNL     1      17.051   5.752  19.067  0.00  0.00    +0.013 A 
ATOM     25  C   UNL     1      16.936   7.113  21.060  0.00  0.00    +0.013 A 
ATOM     26  C   UNL     1      18.399   5.500  19.317  0.00  0.00    +0.013 A 
ATOM     27  C   UNL     1      18.285   6.860  21.310  0.00  0.00    +0.013 A 
ATOM     28  C   UNL     1      19.016   6.054  20.439  0.00  0.00    +0.055 A 
BRANCH  28  29
ATOM      1  F   UNL     1      21.275   6.838  20.416  0.00  0.00    -0.166 F 
ATOM      2  F   UNL     1      20.940   4.736  19.975  0.00  0.00    -0.166 F 
ATOM      3  F   UNL     1      20.725   5.473  22.008  0.00  0.00    -0.166 F 
ATOM     29  C   UNL     1      20.459   5.783  20.706  0.00  0.00    +0.417 C 
ENDBRANCH  28  29
ENDBRANCH  22  23
ENDBRANCH  16   7
ENDBRANCH  10  16
TORSDOF 6
ENDMDL
MODEL 2
REMARK VINA RESULT:      -7.0      0.857      1.369
REMARK  Name = 25389311
REMARK  6 active torsions:
REMARK  status: ('A' for Active; 'I' for Inactive)
REMARK    1  A    between atoms: N_6  and  C_15
REMARK    2  A    between atoms: N_7  and  C_16
REMARK    3  A    between atoms: C_9  and  C_15
REMARK    4  A    between atoms: C_10  and  C_16
REMARK    5  A    between atoms: C_22  and  C_23
REMARK    6  A    between atoms: C_28  and  C_29
REMARK                            x       y       z     vdW  Elec       q    Type
REMARK                         _______ _______ _______ _____ _____    ______ ____
ROOT
ATOM      5  N   UNL     1      10.934   8.228  21.114  0.00  0.00    -0.298 NA
ATOM      8  C   UNL     1      12.670   9.948  22.007  0.00  0.00    -0.003 C 
ATOM      9  C   UNL     1      12.192  10.331  20.588  0.00  0.00    +0.020 C 
ATOM     10  C   UNL     1      12.156   7.521  21.585  0.00  0.00    +0.074 C 
ATOM     11  C   UNL     1      13.261   8.526  21.980  0.00  0.00    +0.024 C 
ATOM     12  C   UNL     1      11.279   9.205  20.054  0.00  0.00    +0.089 C 
ATOM     13  C   UNL     1      11.418   9.903  22.904  0.00  0.00    +0.019 C 
ATOM     14  C   UNL     1      10.369   8.975  22.265  0.00  0.00    +0.085 C 
ENDROOT
BRANCH   9  15
ATOM     15  C   UNL     1      13.340  10.629  19.626  0.00  0.00    +0.089 C 
BRANCH  15   6
ATOM      6  N   UNL     1      13.594  12.066  19.545  0.00  0.00    -0.302 NA
ATOM     17  C   UNL     1      14.829  12.412  20.264  0.00  0.00    +0.084 C 
ATOM     18  C   UNL     1      12.447  12.822  20.068  0.00  0.00    +0.084 C 
ATOM     19  C   UNL     1      15.137  13.905  20.148  0.00  0.00    +0.015 C 
ATOM     20  C   UNL     1      12.676  14.329  19.945  0.00  0.00    +0.015 C 
ATOM     21  C   UNL     1      13.967  14.752  20.637  0.00  0.00    +0.002 C 
ENDBRANCH  15   6
ENDBRANCH   9  15
BRANCH  10  16
ATOM     16  C   UNL     1      12.661   6.492  20.570  0.00  0.00    +0.123 C 
BRANCH  16   7
ATOM      4  O   UNL     1      14.657   7.387  18.711  0.00  0.00    -0.270 OA
ATOM      7  N   UNL     1      14.098   6.314  20.688  0.00  0.00    -0.310 N 
ATOM     22  C   UNL     1      14.978   6.785  19.733  0.00  0.00    +0.244 C 
ATOM     30  H   UNL     1      14.434   5.870  21.536  0.00  0.00    +0.149 HD
BRANCH  22  23
ATOM     23  C   UNL     1      16.413   6.499  19.987  0.00  0.00    +0.037 A 
ATOM     24  C   UNL     1      17.025   6.975  21.147  0.00  0.00    +0.013 A 
ATOM     25  C   UNL     1      17.149   5.756  19.064  0.00  0.00    +0.013 A 
ATOM     26  C   UNL     1      18.373   6.707  21.383  0.00  0.00    +0.013 A 
ATOM     27  C   UNL     1      18.498   5.488  19.301  0.00  0.00    +0.013 A 
ATOM     28  C   UNL     1      19.110   5.963  20.460  0.00  0.00    +0.055 A 
BRANCH  28  29
ATOM      1  F   UNL     1      21.399   6.553  20.099  0.00  0.00    -0.166 F 
ATOM      2  F   UNL     1      20.926   4.439  20.281  0.00  0.00    -0.166 F 
ATOM      3  F   UNL     1      20.892   5.720  22.036  0.00  0.00    -0.166 F 
ATOM     29  C   UNL     1      20.551   5.678  20.715  0.00  0.00    +0.417 C 
ENDBRANCH  28  29
ENDBRANCH  22  23
ENDBRANCH  16   7
ENDBRANCH  10  16
TORSDOF 6
ENDMDL
MODEL 3
REMARK VINA RESULT:      -7.0      2.400      3.543
REMARK  Name = 25389311
REMARK  6 active torsions:
REMARK  status: ('A' for Active; 'I' for Inactive)
REMARK    1  A    between atoms: N_6  and  C_15
REMARK    2  A    between atoms: N_7  and  C_16
REMARK    3  A    between atoms: C_9  and  C_15
REMARK    4  A    between atoms: C_10  and  C_16
REMARK    5  A    between atoms: C_22  and  C_23
REMARK    6  A    between atoms: C_28  and  C_29
REMARK                            x       y       z     vdW  Elec       q    Type
REMARK                         _______ _______ _______ _____ _____    ______ ____
ROOT
ATOM      5  N   UNL     1      12.710   7.475  19.520  0.00  0.00    -0.298 NA
ATOM      8  C   UNL     1      12.272   8.158  21.992  0.00  0.00    -0.003 C 
ATOM      9  C   UNL     1      11.731   9.230  21.018  0.00  0.00    +0.020 C 
ATOM     10  C   UNL     1      13.975   7.402  20.300  0.00  0.00    +0.074 C 
ATOM     11  C   UNL     1      13.776   7.946  21.733  0.00  0.00    +0.024 C 
ATOM     12  C   UNL     1      12.145   8.844  19.580  0.00  0.00    +0.089 C 
ATOM     13  C   UNL     1      11.559   6.837  21.644  0.00  0.00    +0.019 C 
ATOM     14  C   UNL     1      11.736   6.544  20.144  0.00  0.00    +0.085 C 
ENDROOT
BRANCH   9  15
ATOM     15  C   UNL     1      12.179  10.646  21.372  0.00  0.00    +0.089 C 
BRANCH  15   6
ATOM      6  N   UNL     1      12.284  10.814  22.820  0.00  0.00    -0.302 NA
ATOM     17  C   UNL     1      11.054  11.410  23.360  0.00  0.00    +0.084 C 
ATOM     18  C   UNL     1      13.461  11.627  23.159  0.00  0.00    +0.084 C 
ATOM     19  C   UNL     1      11.127  11.548  24.881  0.00  0.00    +0.015 C 
ATOM     20  C   UNL     1      13.613  11.772  24.674  0.00  0.00    +0.015 C 
ATOM     21  C   UNL     1      12.352  12.350  25.306  0.00  0.00    +0.002 C 
ENDBRANCH  15   6
ENDBRANCH   9  15
BRANCH  10  16
ATOM     16  C   UNL     1      15.140   8.093  19.587  0.00  0.00    +0.123 C 
BRANCH  16   7
ATOM      4  O   UNL     1      16.611   5.766  18.774  0.00  0.00    -0.270 OA
ATOM      7  N   UNL     1      16.413   7.641  20.123  0.00  0.00    -0.310 N 
ATOM     22  C   UNL     1      17.041   6.501  19.659  0.00  0.00    +0.244 C 
ATOM     30  H   UNL     1      16.850   8.232  20.821  0.00  0.00    +0.149 HD
BRANCH  22  23
ATOM     23  C   UNL     1      18.322   6.159  20.327  0.00  0.00    +0.037 A 
ATOM     24  C   UNL     1      18.725   6.858  21.465  0.00  0.00    +0.013 A 
ATOM     25  C   UNL     1      19.124   5.139  19.815  0.00  0.00    +0.013 A 
ATOM     26  C   UNL     1      19.930   6.536  22.091  0.00  0.00    +0.013 A 
ATOM     27  C   UNL     1      20.329   4.817  20.441  0.00  0.00    +0.013 A 
ATOM     28  C   UNL     1      20.732   5.516  21.578  0.00  0.00    +0.055 A 
BRANCH  28  29
ATOM      1  F   UNL     1      23.112   5.321  21.442  0.00  0.00    -0.166 F 
ATOM      2  F   UNL     1      22.058   3.880  22.682  0.00  0.00    -0.166 F 
ATOM      3  F   UNL     1      22.283   5.936  23.350  0.00  0.00    -0.166 F 
ATOM     29  C   UNL     1      22.020   5.173  22.248  0.00  0.00    +0.417 C 
ENDBRANCH  28  29
ENDBRANCH  22  23
ENDBRANCH  16   7
ENDBRANCH  10  16
TORSDOF 6
ENDMDL
MODEL 4
REMARK VINA RESULT:      -6.9      1.513      2.233
REMARK  Name = 25389311
REMARK  6 active torsions:
REMARK  status: ('A' for Active; 'I' for Inactive)
REMARK    1  A    between atoms: N_6  and  C_15
REMARK    2  A    between atoms: N_7  and  C_16
REMARK    3  A    between atoms: C_9  and  C_15
REMARK    4  A    between atoms: C_10  and  C_16
REMARK    5  A    between atoms: C_22  and  C_23
REMARK    6  A    between atoms: C_28  and  C_29
REMARK                            x       y       z     vdW  Elec       q    Type
REMARK                         _______ _______ _______ _____ _____    ______ ____
ROOT
ATOM      5  N   UNL     1      11.493   7.439  20.345  0.00  0.00    -0.298 NA
ATOM      8  C   UNL     1      12.150   9.134  22.206  0.00  0.00    -0.003 C 
ATOM      9  C   UNL     1      11.692   9.869  20.926  0.00  0.00    +0.020 C 
ATOM     10  C   UNL     1      12.851   7.122  20.866  0.00  0.00    +0.074 C 
ATOM     11  C   UNL     1      13.328   8.201  21.865  0.00  0.00    +0.024 C 
ATOM     12  C   UNL     1      11.455   8.822  19.814  0.00  0.00    +0.089 C 
ATOM     13  C   UNL     1      10.977   8.241  22.654  0.00  0.00    +0.019 C 
ATOM     14  C   UNL     1      10.539   7.351  21.478  0.00  0.00    +0.085 C 
ENDROOT
BRANCH   9  15
ATOM     15  C   UNL     1      12.663  10.957  20.476  0.00  0.00    +0.089 C 
BRANCH  15   6
ATOM      6  N   UNL     1      11.982  12.244  20.343  0.00  0.00    -0.302 NA
ATOM     17  C   UNL     1      12.892  13.253  19.783  0.00  0.00    +0.084 C 
ATOM     18  C   UNL     1      11.443  12.677  21.640  0.00  0.00    +0.084 C 
ATOM     19  C   UNL     1      12.181  14.593  19.591  0.00  0.00    +0.015 C 
ATOM     20  C   UNL     1      10.684  13.998  21.509  0.00  0.00    +0.015 C 
ATOM     21  C   UNL     1      11.561  15.083  20.895  0.00  0.00    +0.002 C 
ENDBRANCH  15   6
ENDBRANCH   9  15
BRANCH  10  16
ATOM     16  C   UNL     1      13.868   6.898  19.744  0.00  0.00    +0.123 C 
BRANCH  16   7
ATOM      4  O   UNL     1      16.215   5.911  18.416  0.00  0.00    -0.270 OA
ATOM      7  N   UNL     1      15.222   6.884  20.272  0.00  0.00    -0.310 N 
ATOM     22  C   UNL     1      16.287   6.384  19.547  0.00  0.00    +0.244 C 
ATOM     30  H   UNL     1      15.362   7.309  21.181  0.00  0.00    +0.149 HD
BRANCH  22  23
ATOM     23  C   UNL     1      17.602   6.417  20.236  0.00  0.00    +0.037 A 
ATOM     24  C   UNL     1      17.829   7.329  21.267  0.00  0.00    +0.013 A 
ATOM     25  C   UNL     1      18.613   5.535  19.851  0.00  0.00    +0.013 A 
ATOM     26  C   UNL     1      19.065   7.360  21.912  0.00  0.00    +0.013 A 
ATOM     27  C   UNL     1      19.850   5.566  20.497  0.00  0.00    +0.013 A 
ATOM     28  C   UNL     1      20.075   6.478  21.527  0.00  0.00    +0.055 A 
BRANCH  28  29
ATOM      1  F   UNL     1      22.036   7.714  22.117  0.00  0.00    -0.166 F 
ATOM      2  F   UNL     1      22.272   5.589  21.724  0.00  0.00    -0.166 F 
ATOM      3  F   UNL     1      21.319   6.261  23.558  0.00  0.00    -0.166 F 
ATOM     29  C   UNL     1      21.397   6.512  22.219  0.00  0.00    +0.417 C 
ENDBRANCH  28  29
ENDBRANCH  22  23
ENDBRANCH  16   7
ENDBRANCH  10  16
TORSDOF 6
ENDMDL
MODEL 5
REMARK VINA RESULT:      -6.9      1.934      2.421
REMARK  Name = 25389311
REMARK  6 active torsions:
REMARK  status: ('A' for Active; 'I' for Inactive)
REMARK    1  A    between atoms: N_6  and  C_15
REMARK    2  A    between atoms: N_7  and  C_16
REMARK    3  A    between atoms: C_9  and  C_15
REMARK    4  A    between atoms: C_10  and  C_16
REMARK    5  A    between atoms: C_22  and  C_23
REMARK    6  A    between atoms: C_28  and  C_29
REMARK                            x       y       z     vdW  Elec       q    Type
REMARK                         _______ _______ _______ _____ _____    ______ ____
ROOT
ATOM      5  N   UNL     1      11.762   9.555  20.833  0.00  0.00    -0.298 NA
ATOM      8  C   UNL     1      13.825  10.819  21.790  0.00  0.00    -0.003 C 
ATOM      9  C   UNL     1      13.796  10.898  20.246  0.00  0.00    +0.020 C 
ATOM     10  C   UNL     1      12.518   8.669  21.760  0.00  0.00    +0.074 C 
ATOM     11  C   UNL     1      13.829   9.342  22.225  0.00  0.00    +0.024 C 
ATOM     12  C   UNL     1      12.640  10.013  19.729  0.00  0.00    +0.089 C 
ATOM     13  C   UNL     1      12.508  11.440  22.294  0.00  0.00    +0.019 C 
ATOM     14  C   UNL     1      11.322  10.747  21.599  0.00  0.00    +0.085 C 
ENDROOT
BRANCH   9  15
ATOM     15  C   UNL     1      15.126  10.519  19.599  0.00  0.00    +0.089 C 
BRANCH  15   6
ATOM      6  N   UNL     1      16.198  11.404  20.052  0.00  0.00    -0.302 NA
ATOM     17  C   UNL     1      16.658  12.261  18.949  0.00  0.00    +0.084 C 
ATOM     18  C   UNL     1      17.309  10.622  20.614  0.00  0.00    +0.084 C 
ATOM     19  C   UNL     1      17.746  13.228  19.417  0.00  0.00    +0.015 C 
ATOM     20  C   UNL     1      18.418  11.535  21.137  0.00  0.00    +0.015 C 
ATOM     21  C   UNL     1      18.916  12.482  20.051  0.00  0.00    +0.002 C 
ENDBRANCH  15   6
ENDBRANCH   9  15
BRANCH  10  16
ATOM     16  C   UNL     1      12.772   7.282  21.163  0.00  0.00    +0.123 C 
BRANCH  16   7
ATOM      4  O   UNL     1      14.485   7.124  18.865  0.00  0.00    -0.270 OA
ATOM      7  N   UNL     1      14.192   6.975  21.160  0.00  0.00    -0.310 N 
ATOM     22  C   UNL     1      14.930   6.923  19.993  0.00  0.00    +0.244 C 
ATOM     30  H   UNL     1      14.634   6.851  22.064  0.00  0.00    +0.149 HD
BRANCH  22  23
ATOM     23  C   UNL     1      16.363   6.571  20.155  0.00  0.00    +0.037 A 
ATOM     24  C   UNL     1      17.013   5.819  19.176  0.00  0.00    +0.013 A 
ATOM     25  C   UNL     1      17.059   6.991  21.289  0.00  0.00    +0.013 A 
ATOM     26  C   UNL     1      18.359   5.487  19.331  0.00  0.00    +0.013 A 
ATOM     27  C   UNL     1      18.406   6.659  21.443  0.00  0.00    +0.013 A 
ATOM     28  C   UNL     1      19.056   5.908  20.464  0.00  0.00    +0.055 A 
BRANCH  28  29
ATOM      1  F   UNL     1      20.829   4.353  20.069  0.00  0.00    -0.166 F 
ATOM      2  F   UNL     1      20.867   5.462  21.938  0.00  0.00    -0.166 F 
ATOM      3  F   UNL     1      21.349   6.459  20.067  0.00  0.00    -0.166 F 
ATOM     29  C   UNL     1      20.495   5.553  20.628  0.00  0.00    +0.417 C 
ENDBRANCH  28  29
ENDBRANCH  22  23
ENDBRANCH  16   7
ENDBRANCH  10  16
TORSDOF 6
ENDMDL
MODEL 6
REMARK VINA RESULT:      -6.9     27.865     30.818
REMARK  Name = 25389311
REMARK  6 active torsions:
REMARK  status: ('A' for Active; 'I' for Inactive)
REMARK    1  A    between atoms: N_6  and  C_15
REMARK    2  A    between atoms: N_7  and  C_16
REMARK    3  A    between atoms: C_9  and  C_15
REMARK    4  A    between atoms: C_10  and  C_16
REMARK    5  A    between atoms: C_22  and  C_23
REMARK    6  A    between atoms: C_28  and  C_29
REMARK                            x       y       z     vdW  Elec       q    Type
REMARK                         _______ _______ _______ _____ _____    ______ ____
ROOT
ATOM      5  N   UNL     1     -12.550   9.848  33.780  0.00  0.00    -0.298 NA
ATOM      8  C   UNL     1     -11.116   9.232  31.699  0.00  0.00    -0.003 C 
ATOM      9  C   UNL     1     -12.030  10.442  31.401  0.00  0.00    +0.020 C 
ATOM     10  C   UNL     1     -12.700   8.400  33.469  0.00  0.00    +0.074 C 
ATOM     11  C   UNL     1     -11.980   8.039  32.150  0.00  0.00    +0.024 C 
ATOM     12  C   UNL     1     -12.958  10.670  32.616  0.00  0.00    +0.089 C 
ATOM     13  C   UNL     1     -10.225   9.626  32.892  0.00  0.00    +0.019 C 
ATOM     14  C   UNL     1     -11.115  10.108  34.052  0.00  0.00    +0.085 C 
ENDROOT
BRANCH   9  15
ATOM     15  C   UNL     1     -12.826  10.292  30.107  0.00  0.00    +0.089 C 
BRANCH  15   6
ATOM      6  N   UNL     1     -12.065  10.796  28.965  0.00  0.00    -0.302 NA
ATOM     17  C   UNL     1     -12.932  11.584  28.077  0.00  0.00    +0.084 C 
ATOM     18  C   UNL     1     -11.431   9.686  28.239  0.00  0.00    +0.084 C 
ATOM     19  C   UNL     1     -12.141  12.160  26.901  0.00  0.00    +0.015 C 
ATOM     20  C   UNL     1     -10.591  10.200  27.070  0.00  0.00    +0.015 C 
ATOM     21  C   UNL     1     -11.422  11.062  26.126  0.00  0.00    +0.002 C 
ENDBRANCH  15   6
ENDBRANCH   9  15
BRANCH  10  16
ATOM     16  C   UNL     1     -14.165   7.955  33.455  0.00  0.00    +0.123 C 
BRANCH  16   7
ATOM      4  O   UNL     1     -14.148   5.520  34.976  0.00  0.00    -0.270 OA
ATOM      7  N   UNL     1     -14.289   6.606  32.932  0.00  0.00    -0.310 N 
ATOM     22  C   UNL     1     -14.269   5.494  33.753  0.00  0.00    +0.244 C 
ATOM     30  H   UNL     1     -14.445   6.516  31.934  0.00  0.00    +0.149 HD
BRANCH  22  23
ATOM     23  C   UNL     1     -14.380   4.185  33.062  0.00  0.00    +0.037 A 
ATOM     24  C   UNL     1     -14.610   3.023  33.800  0.00  0.00    +0.013 A 
ATOM     25  C   UNL     1     -14.253   4.116  31.675  0.00  0.00    +0.013 A 
ATOM     26  C   UNL     1     -14.713   1.793  33.150  0.00  0.00    +0.013 A 
ATOM     27  C   UNL     1     -14.357   2.886  31.024  0.00  0.00    +0.013 A 
ATOM     28  C   UNL     1     -14.587   1.725  31.762  0.00  0.00    +0.055 A 
BRANCH  28  29
ATOM      1  F   UNL     1     -13.548   0.025  30.438  0.00  0.00    -0.166 F 
ATOM      2  F   UNL     1     -15.662   0.404  30.103  0.00  0.00    -0.166 F 
ATOM      3  F   UNL     1     -15.010  -0.625  31.903  0.00  0.00    -0.166 F 
ATOM     29  C   UNL     1     -14.697   0.409  31.068  0.00  0.00    +0.417 C 
ENDBRANCH  28  29
ENDBRANCH  22  23
ENDBRANCH  16   7
ENDBRANCH  10  16
TORSDOF 6
ENDMDL
MODEL 7
REMARK VINA RESULT:      -6.8      1.685      2.580
REMARK  Name = 25389311
REMARK  6 active torsions:
REMARK  status: ('A' for Active; 'I' for Inactive)
REMARK    1  A    between atoms: N_6  and  C_15
REMARK    2  A    between atoms: N_7  and  C_16
REMARK    3  A    between atoms: C_9  and  C_15
REMARK    4  A    between atoms: C_10  and  C_16
REMARK    5  A    between atoms: C_22  and  C_23
REMARK    6  A    between atoms: C_28  and  C_29
REMARK                            x       y       z     vdW  Elec       q    Type
REMARK                         _______ _______ _______ _____ _____    ______ ____
ROOT
ATOM      5  N   UNL     1      11.430   8.035  21.033  0.00  0.00    -0.298 NA
ATOM      8  C   UNL     1      12.612  10.228  21.783  0.00  0.00    -0.003 C 
ATOM      9  C   UNL     1      12.202  10.303  20.294  0.00  0.00    +0.020 C 
ATOM     10  C   UNL     1      12.731   7.717  21.681  0.00  0.00    +0.074 C 
ATOM     11  C   UNL     1      13.522   9.005  22.001  0.00  0.00    +0.024 C 
ATOM     12  C   UNL     1      11.639   8.928  19.868  0.00  0.00    +0.089 C 
ATOM     13  C   UNL     1      11.322   9.986  22.591  0.00  0.00    +0.019 C 
ATOM     14  C   UNL     1      10.592   8.756  22.024  0.00  0.00    +0.085 C 
ENDROOT
BRANCH   9  15
ATOM     15  C   UNL     1      13.337  10.754  19.379  0.00  0.00    +0.089 C 
BRANCH  15   6
ATOM      6  N   UNL     1      13.273  10.066  18.090  0.00  0.00    -0.302 NA
ATOM     17  C   UNL     1      14.199   8.924  18.070  0.00  0.00    +0.084 C 
ATOM     18  C   UNL     1      13.560  11.002  16.993  0.00  0.00    +0.084 C 
ATOM     19  C   UNL     1      14.109   8.164  16.746  0.00  0.00    +0.015 C 
ATOM     20  C   UNL     1      13.449  10.309  15.634  0.00  0.00    +0.015 C 
ATOM     21  C   UNL     1      14.357   9.087  15.558  0.00  0.00    +0.002 C 
ENDBRANCH  15   6
ENDBRANCH   9  15
BRANCH  10  16
ATOM     16  C   UNL     1      13.564   6.728  20.862  0.00  0.00    +0.123 C 
BRANCH  16   7
ATOM      4  O   UNL     1      15.721   6.055  19.091  0.00  0.00    -0.270 OA
ATOM      7  N   UNL     1      14.983   6.918  21.112  0.00  0.00    -0.310 N 
ATOM     22  C   UNL     1      15.946   6.558  20.189  0.00  0.00    +0.244 C 
ATOM     30  H   UNL     1      15.236   7.378  21.979  0.00  0.00    +0.149 HD
BRANCH  22  23
ATOM     23  C   UNL     1      17.352   6.792  20.605  0.00  0.00    +0.037 A 
ATOM     24  C   UNL     1      17.666   7.876  21.425  0.00  0.00    +0.013 A 
ATOM     25  C   UNL     1      18.359   5.928  20.175  0.00  0.00    +0.013 A 
ATOM     26  C   UNL     1      18.987   8.096  21.814  0.00  0.00    +0.013 A 
ATOM     27  C   UNL     1      19.681   6.148  20.565  0.00  0.00    +0.013 A 
ATOM     28  C   UNL     1      19.995   7.232  21.384  0.00  0.00    +0.055 A 
BRANCH  28  29
ATOM      1  F   UNL     1      21.861   8.721  21.508  0.00  0.00    -0.166 F 
ATOM      2  F   UNL     1      22.282   6.611  21.199  0.00  0.00    -0.166 F 
ATOM      3  F   UNL     1      21.613   7.317  23.143  0.00  0.00    -0.166 F 
ATOM     29  C   UNL     1      21.407   7.467  21.801  0.00  0.00    +0.417 C 
ENDBRANCH  28  29
ENDBRANCH  22  23
ENDBRANCH  16   7
ENDBRANCH  10  16
TORSDOF 6
ENDMDL
MODEL 8
REMARK VINA RESULT:      -6.7     27.782     29.802
REMARK  Name = 25389311
REMARK  6 active torsions:
REMARK  status: ('A' for Active; 'I' for Inactive)
REMARK    1  A    between atoms: N_6  and  C_15
REMARK    2  A    between atoms: N_7  and  C_16
REMARK    3  A    between atoms: C_9  and  C_15
REMARK    4  A    between atoms: C_10  and  C_16
REMARK    5  A    between atoms: C_22  and  C_23
REMARK    6  A    between atoms: C_28  and  C_29
REMARK                            x       y       z     vdW  Elec       q    Type
REMARK                         _______ _______ _______ _____ _____    ______ ____
ROOT
ATOM      5  N   UNL     1      -5.854  -9.946  10.987  0.00  0.00    -0.298 NA
ATOM      8  C   UNL     1      -4.965  -9.338   8.619  0.00  0.00    -0.003 C 
ATOM      9  C   UNL     1      -5.527 -10.778   8.646  0.00  0.00    +0.020 C 
ATOM     10  C   UNL     1      -4.461  -9.430  11.083  0.00  0.00    +0.074 C 
ATOM     11  C   UNL     1      -3.856  -9.204   9.679  0.00  0.00    +0.024 C 
ATOM     12  C   UNL     1      -5.904 -11.134  10.102  0.00  0.00    +0.089 C 
ATOM     13  C   UNL     1      -6.114  -8.402   9.040  0.00  0.00    +0.019 C 
ATOM     14  C   UNL     1      -6.693  -8.882  10.383  0.00  0.00    +0.085 C 
ENDROOT
BRANCH   9  15
ATOM     15  C   UNL     1      -4.573 -11.808   8.045  0.00  0.00    +0.089 C 
BRANCH  15   6
ATOM      6  N   UNL     1      -4.507 -11.673   6.590  0.00  0.00    -0.302 NA
ATOM     17  C   UNL     1      -5.848 -11.790   6.001  0.00  0.00    +0.084 C 
ATOM     18  C   UNL     1      -3.588 -12.670   6.022  0.00  0.00    +0.084 C 
ATOM     19  C   UNL     1      -5.804 -11.602   4.484  0.00  0.00    +0.015 C 
ATOM     20  C   UNL     1      -3.470 -12.510   4.506  0.00  0.00    +0.015 C 
ATOM     21  C   UNL     1      -4.835 -12.582   3.832  0.00  0.00    +0.002 C 
ENDBRANCH  15   6
ENDBRANCH   9  15
BRANCH  10  16
ATOM     16  C   UNL     1      -3.567 -10.321  11.949  0.00  0.00    +0.123 C 
BRANCH  16   7
ATOM      4  O   UNL     1      -2.041 -10.718  14.348  0.00  0.00    -0.270 OA
ATOM      7  N   UNL     1      -4.088 -10.412  13.303  0.00  0.00    -0.310 N 
ATOM     22  C   UNL     1      -3.263 -10.606  14.395  0.00  0.00    +0.244 C 
ATOM     30  H   UNL     1      -5.085 -10.275  13.419  0.00  0.00    +0.149 HD
BRANCH  22  23
ATOM     23  C   UNL     1      -3.951 -10.703  15.707  0.00  0.00    +0.037 A 
ATOM     24  C   UNL     1      -3.317 -11.326  16.783  0.00  0.00    +0.013 A 
ATOM     25  C   UNL     1      -5.231 -10.172  15.864  0.00  0.00    +0.013 A 
ATOM     26  C   UNL     1      -3.965 -11.418  18.015  0.00  0.00    +0.013 A 
ATOM     27  C   UNL     1      -5.879 -10.264  17.097  0.00  0.00    +0.013 A 
ATOM     28  C   UNL     1      -5.245 -10.887  18.172  0.00  0.00    +0.055 A 
BRANCH  28  29
ATOM      1  F   UNL     1      -5.184 -11.585  20.459  0.00  0.00    -0.166 F 
ATOM      2  F   UNL     1      -7.092 -11.709  19.424  0.00  0.00    -0.166 F 
ATOM      3  F   UNL     1      -6.293  -9.775  20.013  0.00  0.00    -0.166 F 
ATOM     29  C   UNL     1      -5.937 -10.986  19.490  0.00  0.00    +0.417 C 
ENDBRANCH  28  29
ENDBRANCH  22  23
ENDBRANCH  16   7
ENDBRANCH  10  16
TORSDOF 6
ENDMDL
MODEL 9
REMARK VINA RESULT:      -6.7     27.947     31.610
REMARK  Name = 25389311
REMARK  6 active torsions:
REMARK  status: ('A' for Active; 'I' for Inactive)
REMARK    1  A    between atoms: N_6  and  C_15
REMARK    2  A    between atoms: N_7  and  C_16
REMARK    3  A    between atoms: C_9  and  C_15
REMARK    4  A    between atoms: C_10  and  C_16
REMARK    5  A    between atoms: C_22  and  C_23
REMARK    6  A    between atoms: C_28  and  C_29
REMARK                            x       y       z     vdW  Elec       q    Type
REMARK                         _______ _______ _______ _____ _____    ______ ____
ROOT
ATOM      5  N   UNL     1     -18.407   3.308  25.621  0.00  0.00    -0.298 NA
ATOM      8  C   UNL     1     -16.295   1.832  25.978  0.00  0.00    -0.003 C 
ATOM      9  C   UNL     1     -16.829   2.368  27.326  0.00  0.00    +0.020 C 
ATOM     10  C   UNL     1     -17.303   3.778  24.742  0.00  0.00    +0.074 C 
ATOM     11  C   UNL     1     -15.992   3.016  25.042  0.00  0.00    +0.024 C 
ATOM     12  C   UNL     1     -17.988   3.349  27.043  0.00  0.00    +0.089 C 
ATOM     13  C   UNL     1     -17.438   1.023  25.334  0.00  0.00    +0.019 C 
ATOM     14  C   UNL     1     -18.703   1.898  25.266  0.00  0.00    +0.085 C 
ENDROOT
BRANCH   9  15
ATOM     15  C   UNL     1     -15.746   3.011  28.189  0.00  0.00    +0.089 C 
BRANCH  15   6
ATOM      6  N   UNL     1     -15.151   2.032  29.097  0.00  0.00    -0.302 NA
ATOM     17  C   UNL     1     -16.176   1.104  29.597  0.00  0.00    +0.084 C 
ATOM     18  C   UNL     1     -14.463   2.709  30.205  0.00  0.00    +0.084 C 
ATOM     19  C   UNL     1     -15.563   0.042  30.510  0.00  0.00    +0.015 C 
ATOM     20  C   UNL     1     -13.793   1.699  31.138  0.00  0.00    +0.015 C 
ATOM     21  C   UNL     1     -14.796   0.679  31.664  0.00  0.00    +0.002 C 
ENDBRANCH  15   6
ENDBRANCH   9  15
BRANCH  10  16
ATOM     16  C   UNL     1     -17.106   5.295  24.813  0.00  0.00    +0.123 C 
BRANCH  16   7
ATOM      4  O   UNL     1     -17.250   5.561  21.958  0.00  0.00    -0.270 OA
ATOM      7  N   UNL     1     -16.036   5.718  23.927  0.00  0.00    -0.310 N 
ATOM     22  C   UNL     1     -16.208   5.813  22.559  0.00  0.00    +0.244 C 
ATOM     30  H   UNL     1     -15.163   5.993  24.364  0.00  0.00    +0.149 HD
BRANCH  22  23
ATOM     23  C   UNL     1     -15.010   6.235  21.790  0.00  0.00    +0.037 A 
ATOM     24  C   UNL     1     -13.751   5.743  22.133  0.00  0.00    +0.013 A 
ATOM     25  C   UNL     1     -15.145   7.124  20.723  0.00  0.00    +0.013 A 
ATOM     26  C   UNL     1     -12.626   6.140  21.410  0.00  0.00    +0.013 A 
ATOM     27  C   UNL     1     -14.019   7.522  20.000  0.00  0.00    +0.013 A 
ATOM     28  C   UNL     1     -12.760   7.029  20.343  0.00  0.00    +0.055 A 
BRANCH  28  29
ATOM      1  F   UNL     1     -10.486   7.767  20.357  0.00  0.00    -0.166 F 
ATOM      2  F   UNL     1     -11.787   8.561  18.807  0.00  0.00    -0.166 F 
ATOM      3  F   UNL     1     -11.099   6.501  18.706  0.00  0.00    -0.166 F 
ATOM     29  C   UNL     1     -11.557   7.454  19.571  0.00  0.00    +0.417 C 
ENDBRANCH  28  29
ENDBRANCH  22  23
ENDBRANCH  16   7
ENDBRANCH  10  16
TORSDOF 6
ENDMDL
MODEL 10
REMARK VINA RESULT:      -6.6     27.963     29.348
REMARK  Name = 25389311
REMARK  6 active torsions:
REMARK  status: ('A' for Active; 'I' for Inactive)
REMARK    1  A    between atoms: N_6  and  C_15
REMARK    2  A    between atoms: N_7  and  C_16
REMARK    3  A    between atoms: C_9  and  C_15
REMARK    4  A    between atoms: C_10  and  C_16
REMARK    5  A    between atoms: C_22  and  C_23
REMARK    6  A    between atoms: C_28  and  C_29
REMARK                            x       y       z     vdW  Elec       q    Type
REMARK                         _______ _______ _______ _____ _____    ______ ____
ROOT
ATOM      5  N   UNL     1      -6.691 -12.802  18.492  0.00  0.00    -0.298 NA
ATOM      8  C   UNL     1      -6.045 -10.286  18.346  0.00  0.00    -0.003 C 
ATOM      9  C   UNL     1      -7.348 -10.568  17.563  0.00  0.00    +0.020 C 
ATOM     10  C   UNL     1      -5.280 -12.664  18.039  0.00  0.00    +0.074 C 
ATOM     11  C   UNL     1      -4.917 -11.181  17.798  0.00  0.00    +0.024 C 
ATOM     12  C   UNL     1      -7.603 -12.092  17.563  0.00  0.00    +0.089 C 
ATOM     13  C   UNL     1      -6.298 -10.712  19.804  0.00  0.00    +0.019 C 
ATOM     14  C   UNL     1      -6.804 -12.165  19.828  0.00  0.00    +0.085 C 
ENDROOT
BRANCH   9  15
ATOM     15  C   UNL     1      -7.334 -10.000  16.146  0.00  0.00    +0.089 C 
BRANCH  15   6
ATOM      6  N   UNL     1      -8.469  -9.103  15.932  0.00  0.00    -0.302 NA
ATOM     17  C   UNL     1      -9.016  -8.649  17.218  0.00  0.00    +0.084 C 
ATOM     18  C   UNL     1      -9.501  -9.764  15.120  0.00  0.00    +0.084 C 
ATOM     19  C   UNL     1     -10.173  -7.671  17.013  0.00  0.00    +0.015 C 
ATOM     20  C   UNL     1     -10.674  -8.822  14.845  0.00  0.00    +0.015 C 
ATOM     21  C   UNL     1     -11.266  -8.280  16.141  0.00  0.00    +0.002 C 
ENDBRANCH  15   6
ENDBRANCH   9  15
BRANCH  10  16
ATOM     16  C   UNL     1      -4.974 -13.528  16.813  0.00  0.00    +0.123 C 
BRANCH  16   7
ATOM      4  O   UNL     1      -3.204 -14.104  14.627  0.00  0.00    -0.270 OA
ATOM      7  N   UNL     1      -4.745 -12.700  15.642  0.00  0.00    -0.310 N 
ATOM     22  C   UNL     1      -3.867 -13.069  14.641  0.00  0.00    +0.244 C 
ATOM     30  H   UNL     1      -5.302 -11.856  15.564  0.00  0.00    +0.149 HD
BRANCH  22  23
ATOM     23  C   UNL     1      -3.726 -12.102  13.523  0.00  0.00    +0.037 A 
ATOM     24  C   UNL     1      -2.478 -11.893  12.934  0.00  0.00    +0.013 A 
ATOM     25  C   UNL     1      -4.840 -11.400  13.063  0.00  0.00    +0.013 A 
ATOM     26  C   UNL     1      -2.347 -10.983  11.885  0.00  0.00    +0.013 A 
ATOM     27  C   UNL     1      -4.708 -10.490  12.014  0.00  0.00    +0.013 A 
ATOM     28  C   UNL     1      -3.461 -10.282  11.425  0.00  0.00    +0.055 A 
BRANCH  28  29
ATOM      1  F   UNL     1      -3.624  -9.836   9.081  0.00  0.00    -0.166 F 
ATOM      2  F   UNL     1      -2.048  -8.825  10.186  0.00  0.00    -0.166 F 
ATOM      3  F   UNL     1      -4.119  -8.209  10.428  0.00  0.00    -0.166 F 
ATOM     29  C   UNL     1      -3.319  -9.309  10.303  0.00  0.00    +0.417 C 
ENDBRANCH  28  29
ENDBRANCH  22  23
ENDBRANCH  16   7
ENDBRANCH  10  16
TORSDOF 6
ENDMDL
