MODEL 1
REMARK VINA RESULT:      -6.4      0.000      0.000
REMARK  Name = 75536831
REMARK  8 active torsions:
REMARK  status: ('A' for Active; 'I' for Inactive)
REMARK    1  A    between atoms: S_1  and  N_7
REMARK    2  A    between atoms: S_1  and  C_16
REMARK    3  A    between atoms: O_3  and  C_10
REMARK    4  A    between atoms: N_6  and  C_9
REMARK    5  A    between atoms: N_6  and  C_14
REMARK    6  A    between atoms: N_7  and  C_13
REMARK    7  A    between atoms: C_11  and  C_13
REMARK    8  A    between atoms: C_14  and  C_15
REMARK                            x       y       z     vdW  Elec       q    Type
REMARK                         _______ _______ _______ _____ _____    ______ ____
ROOT
ATOM      2  O   UNL     1      15.069   8.030  20.246  0.00  0.00    -0.371 OA
ATOM      9  C   UNL     1      13.101   7.627  21.513  0.00  0.00    +0.111 C 
ATOM     10  C   UNL     1      12.833   7.282  20.060  0.00  0.00    +0.164 C 
ATOM     11  C   UNL     1      14.250   7.084  19.539  0.00  0.00    +0.164 C 
ATOM     12  C   UNL     1      14.338   8.501  21.392  0.00  0.00    +0.181 C 
ENDROOT
BRANCH  10   3
ATOM      3  O   UNL     1      12.048   6.115  19.911  0.00  0.00    -0.388 OA
ATOM     27  H   UNL     1      11.425   6.069  20.657  0.00  0.00    +0.210 HD
ENDBRANCH  10   3
BRANCH   9   6
ATOM      6  N   UNL     1      11.991   8.303  22.167  0.00  0.00    -0.305 NA
ATOM     26  H   UNL     1      12.287   8.607  23.095  0.00  0.00    +0.123 HD
BRANCH   6  14
ATOM     14  C   UNL     1      11.564   9.468  21.402  0.00  0.00    +0.116 C 
BRANCH  14  15
ATOM      8  N   UNL     1      10.798  12.855  23.941  0.00  0.00    -0.263 NA
ATOM     15  C   UNL     1      11.295  10.654  22.291  0.00  0.00    -0.031 A 
ATOM     17  C   UNL     1      11.240  11.934  21.749  0.00  0.00    +0.024 A 
ATOM     18  C   UNL     1      11.101  10.473  23.655  0.00  0.00    +0.024 A 
ATOM     21  C   UNL     1      10.991  12.991  22.608  0.00  0.00    +0.111 A 
ATOM     22  C   UNL     1      10.857  11.596  24.430  0.00  0.00    +0.111 A 
ENDBRANCH  14  15
ENDBRANCH   6  14
ENDBRANCH   9   6
BRANCH  11  13
ATOM     13  C   UNL     1      14.378   7.310  18.044  0.00  0.00    +0.140 C 
BRANCH  13   7
ATOM      7  N   UNL     1      13.065   7.689  17.486  0.00  0.00    -0.187 NA
ATOM     28  H   UNL     1      12.321   6.987  17.581  0.00  0.00    +0.148 HD
BRANCH   7   1
ATOM      1  S   UNL     1      12.974   8.797  16.199  0.00  0.00    +0.058 S 
ATOM      4  O   UNL     1      11.588   8.974  15.813  0.00  0.00    -0.153 OA
ATOM      5  O   UNL     1      13.969   8.445  15.202  0.00  0.00    -0.153 OA
BRANCH   1  16
ATOM     16  C   UNL     1      13.521  10.291  16.969  0.00  0.00    +0.105 A 
ATOM     19  C   UNL     1      13.136  10.581  18.279  0.00  0.00    +0.028 A 
ATOM     20  C   UNL     1      14.333  11.181  16.268  0.00  0.00    +0.028 A 
ATOM     23  C   UNL     1      13.565  11.762  18.885  0.00  0.00    +0.002 A 
ATOM     24  C   UNL     1      14.762  12.361  16.875  0.00  0.00    +0.002 A 
ATOM     25  C   UNL     1      14.378  12.652  18.184  0.00  0.00    +0.000 A 
ENDBRANCH   1  16
ENDBRANCH   7   1
ENDBRANCH  13   7
ENDBRANCH  11  13
TORSDOF 8
ENDMDL
MODEL 2
REMARK VINA RESULT:      -6.4      1.579      2.300
REMARK  Name = 75536831
REMARK  8 active torsions:
REMARK  status: ('A' for Active; 'I' for Inactive)
REMARK    1  A    between atoms: S_1  and  N_7
REMARK    2  A    between atoms: S_1  and  C_16
REMARK    3  A    between atoms: O_3  and  C_10
REMARK    4  A    between atoms: N_6  and  C_9
REMARK    5  A    between atoms: N_6  and  C_14
REMARK    6  A    between atoms: N_7  and  C_13
REMARK    7  A    between atoms: C_11  and  C_13
REMARK    8  A    between atoms: C_14  and  C_15
REMARK                            x       y       z     vdW  Elec       q    Type
REMARK                         _______ _______ _______ _____ _____    ______ ____
ROOT
ATOM      2  O   UNL     1      15.758   7.855  19.337  0.00  0.00    -0.371 OA
ATOM      9  C   UNL     1      14.962   7.767  21.573  0.00  0.00    +0.111 C 
ATOM     10  C   UNL     1      13.861   7.302  20.637  0.00  0.00    +0.164 C 
ATOM     11  C   UNL     1      14.667   6.921  19.403  0.00  0.00    +0.164 C 
ATOM     12  C   UNL     1      15.879   8.506  20.613  0.00  0.00    +0.181 C 
ENDROOT
BRANCH  10   3
ATOM      3  O   UNL     1      13.134   6.203  21.153  0.00  0.00    -0.388 OA
ATOM     27  H   UNL     1      13.581   5.893  21.959  0.00  0.00    +0.210 HD
ENDBRANCH  10   3
BRANCH   9   6
ATOM      6  N   UNL     1      14.485   8.606  22.661  0.00  0.00    -0.305 NA
ATOM     26  H   UNL     1      14.954   8.330  23.525  0.00  0.00    +0.123 HD
BRANCH   6  14
ATOM     14  C   UNL     1      14.768  10.013  22.401  0.00  0.00    +0.116 C 
BRANCH  14  15
ATOM      8  N   UNL     1      11.164  12.333  22.052  0.00  0.00    -0.263 NA
ATOM     15  C   UNL     1      13.506  10.825  22.279  0.00  0.00    -0.031 A 
ATOM     17  C   UNL     1      12.265  10.209  22.400  0.00  0.00    +0.024 A 
ATOM     18  C   UNL     1      13.577  12.194  22.046  0.00  0.00    +0.024 A 
ATOM     21  C   UNL     1      11.135  11.000  22.279  0.00  0.00    +0.111 A 
ATOM     22  C   UNL     1      12.387  12.897  21.941  0.00  0.00    +0.111 A 
ENDBRANCH  14  15
ENDBRANCH   6  14
ENDBRANCH   9   6
BRANCH  11  13
ATOM     13  C   UNL     1      13.862   6.980  18.118  0.00  0.00    +0.140 C 
BRANCH  13   7
ATOM      7  N   UNL     1      12.421   6.943  18.433  0.00  0.00    -0.187 NA
ATOM     28  H   UNL     1      12.008   6.006  18.526  0.00  0.00    +0.148 HD
BRANCH   7   1
ATOM      1  S   UNL     1      11.413   8.230  17.963  0.00  0.00    +0.058 S 
ATOM      4  O   UNL     1      10.594   8.636  19.089  0.00  0.00    -0.153 OA
ATOM      5  O   UNL     1      10.795   7.904  16.691  0.00  0.00    -0.153 OA
BRANCH   1  16
ATOM     16  C   UNL     1      12.588   9.514  17.653  0.00  0.00    +0.105 A 
ATOM     19  C   UNL     1      13.052   9.735  16.355  0.00  0.00    +0.028 A 
ATOM     20  C   UNL     1      13.052  10.304  18.703  0.00  0.00    +0.028 A 
ATOM     23  C   UNL     1      13.982  10.745  16.111  0.00  0.00    +0.002 A 
ATOM     24  C   UNL     1      13.981  11.315  18.459  0.00  0.00    +0.002 A 
ATOM     25  C   UNL     1      14.447  11.536  17.163  0.00  0.00    +0.000 A 
ENDBRANCH   1  16
ENDBRANCH   7   1
ENDBRANCH  13   7
ENDBRANCH  11  13
TORSDOF 8
ENDMDL
MODEL 3
REMARK VINA RESULT:      -6.3      5.527      8.411
REMARK  Name = 75536831
REMARK  8 active torsions:
REMARK  status: ('A' for Active; 'I' for Inactive)
REMARK    1  A    between atoms: S_1  and  N_7
REMARK    2  A    between atoms: S_1  and  C_16
REMARK    3  A    between atoms: O_3  and  C_10
REMARK    4  A    between atoms: N_6  and  C_9
REMARK    5  A    between atoms: N_6  and  C_14
REMARK    6  A    between atoms: N_7  and  C_13
REMARK    7  A    between atoms: C_11  and  C_13
REMARK    8  A    between atoms: C_14  and  C_15
REMARK                            x       y       z     vdW  Elec       q    Type
REMARK                         _______ _______ _______ _____ _____    ______ ____
ROOT
ATOM      2  O   UNL     1      17.123   7.849  21.057  0.00  0.00    -0.371 OA
ATOM      9  C   UNL     1      18.522   6.366  19.839  0.00  0.00    +0.111 C 
ATOM     10  C   UNL     1      17.081   5.911  19.702  0.00  0.00    +0.164 C 
ATOM     11  C   UNL     1      16.335   7.192  20.050  0.00  0.00    +0.164 C 
ATOM     12  C   UNL     1      18.438   7.267  21.060  0.00  0.00    +0.181 C 
ENDROOT
BRANCH  10   3
ATOM      3  O   UNL     1      16.774   5.459  18.397  0.00  0.00    -0.388 OA
ATOM     27  H   UNL     1      16.720   6.233  17.811  0.00  0.00    +0.210 HD
ENDBRANCH  10   3
BRANCH   9   6
ATOM      6  N   UNL     1      19.466   5.272  20.007  0.00  0.00    -0.305 NA
ATOM     26  H   UNL     1      19.974   5.134  19.133  0.00  0.00    +0.123 HD
BRANCH   6  14
ATOM     14  C   UNL     1      20.423   5.562  21.068  0.00  0.00    +0.116 C 
BRANCH  14  15
ATOM      8  N   UNL     1      24.035   3.267  20.641  0.00  0.00    -0.263 NA
ATOM     15  C   UNL     1      21.687   4.758  20.918  0.00  0.00    -0.031 A 
ATOM     17  C   UNL     1      21.701   3.409  21.257  0.00  0.00    +0.024 A 
ATOM     18  C   UNL     1      22.845   5.362  20.440  0.00  0.00    +0.024 A 
ATOM     21  C   UNL     1      22.889   2.715  21.101  0.00  0.00    +0.111 A 
ATOM     22  C   UNL     1      23.982   4.579  20.321  0.00  0.00    +0.111 A 
ENDBRANCH  14  15
ENDBRANCH   6  14
ENDBRANCH   9   6
BRANCH  11  13
ATOM     13  C   UNL     1      14.932   6.945  20.575  0.00  0.00    +0.140 C 
BRANCH  13   7
ATOM      7  N   UNL     1      14.044   6.568  19.459  0.00  0.00    -0.187 NA
ATOM     28  H   UNL     1      14.369   5.788  18.875  0.00  0.00    +0.148 HD
BRANCH   7   1
ATOM      1  S   UNL     1      13.011   7.726  18.763  0.00  0.00    +0.058 S 
ATOM      4  O   UNL     1      12.096   7.069  17.851  0.00  0.00    -0.153 OA
ATOM      5  O   UNL     1      13.804   8.855  18.313  0.00  0.00    -0.153 OA
BRANCH   1  16
ATOM     16  C   UNL     1      12.083   8.272  20.166  0.00  0.00    +0.105 A 
ATOM     19  C   UNL     1      12.115   9.616  20.542  0.00  0.00    +0.028 A 
ATOM     20  C   UNL     1      11.324   7.361  20.898  0.00  0.00    +0.028 A 
ATOM     23  C   UNL     1      11.386  10.046  21.650  0.00  0.00    +0.002 A 
ATOM     24  C   UNL     1      10.595   7.791  22.006  0.00  0.00    +0.002 A 
ATOM     25  C   UNL     1      10.626   9.134  22.383  0.00  0.00    +0.000 A 
ENDBRANCH   1  16
ENDBRANCH   7   1
ENDBRANCH  13   7
ENDBRANCH  11  13
TORSDOF 8
ENDMDL
MODEL 4
REMARK VINA RESULT:      -6.3      4.641      7.444
REMARK  Name = 75536831
REMARK  8 active torsions:
REMARK  status: ('A' for Active; 'I' for Inactive)
REMARK    1  A    between atoms: S_1  and  N_7
REMARK    2  A    between atoms: S_1  and  C_16
REMARK    3  A    between atoms: O_3  and  C_10
REMARK    4  A    between atoms: N_6  and  C_9
REMARK    5  A    between atoms: N_6  and  C_14
REMARK    6  A    between atoms: N_7  and  C_13
REMARK    7  A    between atoms: C_11  and  C_13
REMARK    8  A    between atoms: C_14  and  C_15
REMARK                            x       y       z     vdW  Elec       q    Type
REMARK                         _______ _______ _______ _____ _____    ______ ____
ROOT
ATOM      2  O   UNL     1      15.568   6.276  19.162  0.00  0.00    -0.371 OA
ATOM      9  C   UNL     1      16.983   6.396  21.066  0.00  0.00    +0.111 C 
ATOM     10  C   UNL     1      15.673   7.097  21.378  0.00  0.00    +0.164 C 
ATOM     11  C   UNL     1      14.755   6.483  20.329  0.00  0.00    +0.164 C 
ATOM     12  C   UNL     1      16.951   6.362  19.547  0.00  0.00    +0.181 C 
ENDROOT
BRANCH  10   3
ATOM      3  O   UNL     1      15.218   6.843  22.692  0.00  0.00    -0.388 OA
ATOM     27  H   UNL     1      14.510   7.477  22.898  0.00  0.00    +0.210 HD
ENDBRANCH  10   3
BRANCH   9   6
ATOM      6  N   UNL     1      18.152   7.083  21.593  0.00  0.00    -0.305 NA
ATOM     26  H   UNL     1      18.389   6.687  22.503  0.00  0.00    +0.123 HD
BRANCH   6  14
ATOM     14  C   UNL     1      19.295   6.933  20.700  0.00  0.00    +0.116 C 
BRANCH  14  15
ATOM      8  N   UNL     1      22.103   4.026  22.170  0.00  0.00    -0.263 NA
ATOM     15  C   UNL     1      20.278   5.915  21.215  0.00  0.00    -0.031 A 
ATOM     17  C   UNL     1      20.937   6.129  22.421  0.00  0.00    +0.024 A 
ATOM     18  C   UNL     1      20.530   4.758  20.487  0.00  0.00    +0.024 A 
ATOM     21  C   UNL     1      21.832   5.164  22.850  0.00  0.00    +0.111 A 
ATOM     22  C   UNL     1      21.443   3.853  21.004  0.00  0.00    +0.111 A 
ENDBRANCH  14  15
ENDBRANCH   6  14
ENDBRANCH   9   6
BRANCH  11  13
ATOM     13  C   UNL     1      13.569   7.363  19.979  0.00  0.00    +0.140 C 
BRANCH  13   7
ATOM      7  N   UNL     1      12.667   7.464  21.143  0.00  0.00    -0.187 NA
ATOM     28  H   UNL     1      12.834   6.785  21.897  0.00  0.00    +0.148 HD
BRANCH   7   1
ATOM      1  S   UNL     1      11.099   8.095  20.953  0.00  0.00    +0.058 S 
ATOM      4  O   UNL     1      10.181   7.370  21.810  0.00  0.00    -0.153 OA
ATOM      5  O   UNL     1      10.816   8.236  19.536  0.00  0.00    -0.153 OA
BRANCH   1  16
ATOM     16  C   UNL     1      11.284   9.727  21.607  0.00  0.00    +0.105 A 
ATOM     19  C   UNL     1      10.794  10.027  22.879  0.00  0.00    +0.028 A 
ATOM     20  C   UNL     1      11.917  10.713  20.853  0.00  0.00    +0.028 A 
ATOM     23  C   UNL     1      10.937  11.315  23.394  0.00  0.00    +0.002 A 
ATOM     24  C   UNL     1      12.061  12.001  21.368  0.00  0.00    +0.002 A 
ATOM     25  C   UNL     1      11.570  12.303  22.638  0.00  0.00    +0.000 A 
ENDBRANCH   1  16
ENDBRANCH   7   1
ENDBRANCH  13   7
ENDBRANCH  11  13
TORSDOF 8
ENDMDL
MODEL 5
REMARK VINA RESULT:      -6.1      3.818      6.993
REMARK  Name = 75536831
REMARK  8 active torsions:
REMARK  status: ('A' for Active; 'I' for Inactive)
REMARK    1  A    between atoms: S_1  and  N_7
REMARK    2  A    between atoms: S_1  and  C_16
REMARK    3  A    between atoms: O_3  and  C_10
REMARK    4  A    between atoms: N_6  and  C_9
REMARK    5  A    between atoms: N_6  and  C_14
REMARK    6  A    between atoms: N_7  and  C_13
REMARK    7  A    between atoms: C_11  and  C_13
REMARK    8  A    between atoms: C_14  and  C_15
REMARK                            x       y       z     vdW  Elec       q    Type
REMARK                         _______ _______ _______ _____ _____    ______ ____
ROOT
ATOM      2  O   UNL     1      10.779   7.432  21.411  0.00  0.00    -0.371 OA
ATOM      9  C   UNL     1      13.067   6.801  21.475  0.00  0.00    +0.111 C 
ATOM     10  C   UNL     1      12.962   8.301  21.682  0.00  0.00    +0.164 C 
ATOM     11  C   UNL     1      11.514   8.433  22.135  0.00  0.00    +0.164 C 
ATOM     12  C   UNL     1      11.713   6.486  20.862  0.00  0.00    +0.181 C 
ENDROOT
BRANCH  10   3
ATOM      3  O   UNL     1      13.866   8.782  22.658  0.00  0.00    -0.388 OA
ATOM     27  H   UNL     1      14.183   9.656  22.375  0.00  0.00    +0.210 HD
ENDBRANCH  10   3
BRANCH   9   6
ATOM      6  N   UNL     1      14.179   6.407  20.624  0.00  0.00    -0.305 NA
ATOM     26  H   UNL     1      13.816   5.913  19.808  0.00  0.00    +0.123 HD
BRANCH   6  14
ATOM     14  C   UNL     1      14.933   7.571  20.173  0.00  0.00    +0.116 C 
BRANCH  14  15
ATOM      8  N   UNL     1      19.147   7.133  20.914  0.00  0.00    -0.263 NA
ATOM     15  C   UNL     1      16.409   7.418  20.433  0.00  0.00    -0.031 A 
ATOM     17  C   UNL     1      17.072   8.329  21.247  0.00  0.00    +0.024 A 
ATOM     18  C   UNL     1      17.112   6.364  19.861  0.00  0.00    +0.024 A 
ATOM     21  C   UNL     1      18.429   8.145  21.454  0.00  0.00    +0.111 A 
ATOM     22  C   UNL     1      18.468   6.267  20.130  0.00  0.00    +0.111 A 
ENDBRANCH  14  15
ENDBRANCH   6  14
ENDBRANCH   9   6
BRANCH  11  13
ATOM     13  C   UNL     1      10.922   9.803  21.862  0.00  0.00    +0.140 C 
BRANCH  13   7
ATOM      7  N   UNL     1      10.446  10.399  23.125  0.00  0.00    -0.187 NA
ATOM     28  H   UNL     1       9.426  10.467  23.230  0.00  0.00    +0.148 HD
BRANCH   7   1
ATOM      1  S   UNL     1      11.423  11.510  23.965  0.00  0.00    +0.058 S 
ATOM      4  O   UNL     1      12.779  11.439  23.456  0.00  0.00    -0.153 OA
ATOM      5  O   UNL     1      11.170  11.379  25.388  0.00  0.00    -0.153 OA
BRANCH   1  16
ATOM     16  C   UNL     1      10.730  13.055  23.457  0.00  0.00    +0.105 A 
ATOM     19  C   UNL     1      10.698  13.393  22.104  0.00  0.00    +0.028 A 
ATOM     20  C   UNL     1      10.221  13.937  24.409  0.00  0.00    +0.028 A 
ATOM     23  C   UNL     1      10.155  14.614  21.704  0.00  0.00    +0.002 A 
ATOM     24  C   UNL     1       9.677  15.158  24.008  0.00  0.00    +0.002 A 
ATOM     25  C   UNL     1       9.644  15.497  22.656  0.00  0.00    +0.000 A 
ENDBRANCH   1  16
ENDBRANCH   7   1
ENDBRANCH  13   7
ENDBRANCH  11  13
TORSDOF 8
ENDMDL
MODEL 6
REMARK VINA RESULT:      -5.9     27.574     29.263
REMARK  Name = 75536831
REMARK  8 active torsions:
REMARK  status: ('A' for Active; 'I' for Inactive)
REMARK    1  A    between atoms: S_1  and  N_7
REMARK    2  A    between atoms: S_1  and  C_16
REMARK    3  A    between atoms: O_3  and  C_10
REMARK    4  A    between atoms: N_6  and  C_9
REMARK    5  A    between atoms: N_6  and  C_14
REMARK    6  A    between atoms: N_7  and  C_13
REMARK    7  A    between atoms: C_11  and  C_13
REMARK    8  A    between atoms: C_14  and  C_15
REMARK                            x       y       z     vdW  Elec       q    Type
REMARK                         _______ _______ _______ _____ _____    ______ ____
ROOT
ATOM      2  O   UNL     1     -16.305   2.147  24.471  0.00  0.00    -0.371 OA
ATOM      9  C   UNL     1     -17.217   3.033  26.476  0.00  0.00    +0.111 C 
ATOM     10  C   UNL     1     -16.312   4.074  25.843  0.00  0.00    +0.164 C 
ATOM     11  C   UNL     1     -16.265   3.582  24.402  0.00  0.00    +0.164 C 
ATOM     12  C   UNL     1     -16.748   1.765  25.785  0.00  0.00    +0.181 C 
ENDROOT
BRANCH  10   3
ATOM      3  O   UNL     1     -16.837   5.384  25.936  0.00  0.00    -0.388 OA
ATOM     27  H   UNL     1     -16.139   6.011  25.680  0.00  0.00    +0.210 HD
ENDBRANCH  10   3
BRANCH   9   6
ATOM      6  N   UNL     1     -17.102   2.965  27.925  0.00  0.00    -0.305 NA
ATOM     26  H   UNL     1     -17.417   2.048  28.241  0.00  0.00    +0.123 HD
BRANCH   6  14
ATOM     14  C   UNL     1     -15.722   3.163  28.351  0.00  0.00    +0.116 C 
BRANCH  14  15
ATOM      8  N   UNL     1     -14.516   0.248  31.274  0.00  0.00    -0.263 NA
ATOM     15  C   UNL     1     -15.300   2.143  29.375  0.00  0.00    -0.031 A 
ATOM     17  C   UNL     1     -14.254   2.422  30.248  0.00  0.00    +0.024 A 
ATOM     18  C   UNL     1     -15.955   0.919  29.451  0.00  0.00    +0.024 A 
ATOM     21  C   UNL     1     -13.904   1.450  31.170  0.00  0.00    +0.111 A 
ATOM     22  C   UNL     1     -15.528   0.014  30.410  0.00  0.00    +0.111 A 
ENDBRANCH  14  15
ENDBRANCH   6  14
ENDBRANCH   9   6
BRANCH  11  13
ATOM     13  C   UNL     1     -15.019   4.025  23.657  0.00  0.00    +0.140 C 
BRANCH  13   7
ATOM      7  N   UNL     1     -14.796   5.467  23.877  0.00  0.00    -0.187 NA
ATOM     28  H   UNL     1     -14.660   5.754  24.854  0.00  0.00    +0.148 HD
BRANCH   7   1
ATOM      1  S   UNL     1     -15.427   6.604  22.779  0.00  0.00    +0.058 S 
ATOM      4  O   UNL     1     -15.967   7.732  23.513  0.00  0.00    -0.153 OA
ATOM      5  O   UNL     1     -16.246   5.911  21.802  0.00  0.00    -0.153 OA
BRANCH   1  16
ATOM     16  C   UNL     1     -13.968   7.145  21.940  0.00  0.00    +0.105 A 
ATOM     19  C   UNL     1     -13.728   8.509  21.771  0.00  0.00    +0.028 A 
ATOM     20  C   UNL     1     -13.061   6.210  21.445  0.00  0.00    +0.028 A 
ATOM     23  C   UNL     1     -12.579   8.936  21.106  0.00  0.00    +0.002 A 
ATOM     24  C   UNL     1     -11.911   6.637  20.781  0.00  0.00    +0.002 A 
ATOM     25  C   UNL     1     -11.670   8.000  20.610  0.00  0.00    +0.000 A 
ENDBRANCH   1  16
ENDBRANCH   7   1
ENDBRANCH  13   7
ENDBRANCH  11  13
TORSDOF 8
ENDMDL
MODEL 7
REMARK VINA RESULT:      -5.6     28.097     29.668
REMARK  Name = 75536831
REMARK  8 active torsions:
REMARK  status: ('A' for Active; 'I' for Inactive)
REMARK    1  A    between atoms: S_1  and  N_7
REMARK    2  A    between atoms: S_1  and  C_16
REMARK    3  A    between atoms: O_3  and  C_10
REMARK    4  A    between atoms: N_6  and  C_9
REMARK    5  A    between atoms: N_6  and  C_14
REMARK    6  A    between atoms: N_7  and  C_13
REMARK    7  A    between atoms: C_11  and  C_13
REMARK    8  A    between atoms: C_14  and  C_15
REMARK                            x       y       z     vdW  Elec       q    Type
REMARK                         _______ _______ _______ _____ _____    ______ ____
ROOT
ATOM      2  O   UNL     1     -12.414  -8.877  15.691  0.00  0.00    -0.371 OA
ATOM      9  C   UNL     1     -10.777  -8.065  17.206  0.00  0.00    +0.111 C 
ATOM     10  C   UNL     1     -10.893  -7.100  16.040  0.00  0.00    +0.164 C 
ATOM     11  C   UNL     1     -12.270  -7.460  15.499  0.00  0.00    +0.164 C 
ATOM     12  C   UNL     1     -11.414  -9.316  16.627  0.00  0.00    +0.181 C 
ENDROOT
BRANCH  10   3
ATOM      3  O   UNL     1     -10.821  -5.746  16.442  0.00  0.00    -0.388 OA
ATOM     27  H   UNL     1     -10.791  -5.717  17.413  0.00  0.00    +0.210 HD
ENDBRANCH  10   3
BRANCH   9   6
ATOM      6  N   UNL     1      -9.408  -8.280  17.651  0.00  0.00    -0.305 NA
ATOM     26  H   UNL     1      -9.414  -8.909  18.454  0.00  0.00    +0.123 HD
BRANCH   6  14
ATOM     14  C   UNL     1      -8.601  -8.875  16.592  0.00  0.00    +0.116 C 
BRANCH  14  15
ATOM      8  N   UNL     1      -5.027 -10.700  18.138  0.00  0.00    -0.263 NA
ATOM     15  C   UNL     1      -7.349  -9.514  17.134  0.00  0.00    -0.031 A 
ATOM     17  C   UNL     1      -7.341 -10.056  18.414  0.00  0.00    +0.024 A 
ATOM     18  C   UNL     1      -6.199  -9.566  16.355  0.00  0.00    +0.024 A 
ATOM     21  C   UNL     1      -6.165 -10.631  18.866  0.00  0.00    +0.111 A 
ATOM     22  C   UNL     1      -5.074 -10.165  16.899  0.00  0.00    +0.111 A 
ENDBRANCH  14  15
ENDBRANCH   6  14
ENDBRANCH   9   6
BRANCH  11  13
ATOM     13  C   UNL     1     -12.446  -7.120  14.030  0.00  0.00    +0.140 C 
BRANCH  13   7
ATOM      7  N   UNL     1     -12.316  -5.663  13.840  0.00  0.00    -0.187 NA
ATOM     28  H   UNL     1     -11.916  -5.143  14.631  0.00  0.00    +0.148 HD
BRANCH   7   1
ATOM      1  S   UNL     1     -13.368  -4.845  12.782  0.00  0.00    +0.058 S 
ATOM      4  O   UNL     1     -13.582  -3.495  13.265  0.00  0.00    -0.153 OA
ATOM      5  O   UNL     1     -14.501  -5.702  12.488  0.00  0.00    -0.153 OA
BRANCH   1  16
ATOM     16  C   UNL     1     -12.395  -4.749  11.309  0.00  0.00    +0.105 A 
ATOM     19  C   UNL     1     -12.039  -5.916  10.632  0.00  0.00    +0.028 A 
ATOM     20  C   UNL     1     -11.983  -3.509  10.825  0.00  0.00    +0.028 A 
ATOM     23  C   UNL     1     -11.269  -5.841   9.472  0.00  0.00    +0.002 A 
ATOM     24  C   UNL     1     -11.213  -3.434   9.664  0.00  0.00    +0.002 A 
ATOM     25  C   UNL     1     -10.855  -4.599   8.988  0.00  0.00    +0.000 A 
ENDBRANCH   1  16
ENDBRANCH   7   1
ENDBRANCH  13   7
ENDBRANCH  11  13
TORSDOF 8
ENDMDL
MODEL 8
REMARK VINA RESULT:      -5.6     27.578     29.178
REMARK  Name = 75536831
REMARK  8 active torsions:
REMARK  status: ('A' for Active; 'I' for Inactive)
REMARK    1  A    between atoms: S_1  and  N_7
REMARK    2  A    between atoms: S_1  and  C_16
REMARK    3  A    between atoms: O_3  and  C_10
REMARK    4  A    between atoms: N_6  and  C_9
REMARK    5  A    between atoms: N_6  and  C_14
REMARK    6  A    between atoms: N_7  and  C_13
REMARK    7  A    between atoms: C_11  and  C_13
REMARK    8  A    between atoms: C_14  and  C_15
REMARK                            x       y       z     vdW  Elec       q    Type
REMARK                         _______ _______ _______ _____ _____    ______ ____
ROOT
ATOM      2  O   UNL     1     -18.314   4.370  24.233  0.00  0.00    -0.371 OA
ATOM      9  C   UNL     1     -16.518   4.238  25.780  0.00  0.00    +0.111 C 
ATOM     10  C   UNL     1     -15.955   4.284  24.372  0.00  0.00    +0.164 C 
ATOM     11  C   UNL     1     -17.127   4.885  23.608  0.00  0.00    +0.164 C 
ATOM     12  C   UNL     1     -17.956   3.828  25.516  0.00  0.00    +0.181 C 
ENDROOT
BRANCH  10   3
ATOM      3  O   UNL     1     -14.794   5.087  24.274  0.00  0.00    -0.388 OA
ATOM     27  H   UNL     1     -14.025   4.500  24.170  0.00  0.00    +0.210 HD
ENDBRANCH  10   3
BRANCH   9   6
ATOM      6  N   UNL     1     -15.817   3.313  26.658  0.00  0.00    -0.305 NA
ATOM     26  H   UNL     1     -14.811   3.436  26.536  0.00  0.00    +0.123 HD
BRANCH   6  14
ATOM     14  C   UNL     1     -16.156   3.557  28.055  0.00  0.00    +0.116 C 
BRANCH  14  15
ATOM      8  N   UNL     1     -14.057   0.894  30.701  0.00  0.00    -0.263 NA
ATOM     15  C   UNL     1     -15.421   2.624  28.981  0.00  0.00    -0.031 A 
ATOM     17  C   UNL     1     -15.692   1.260  28.957  0.00  0.00    +0.024 A 
ATOM     18  C   UNL     1     -14.469   3.124  29.862  0.00  0.00    +0.024 A 
ATOM     21  C   UNL     1     -14.990   0.445  29.829  0.00  0.00    +0.111 A 
ATOM     22  C   UNL     1     -13.820   2.224  30.694  0.00  0.00    +0.111 A 
ENDBRANCH  14  15
ENDBRANCH   6  14
ENDBRANCH   9   6
BRANCH  11  13
ATOM     13  C   UNL     1     -17.128   4.529  22.132  0.00  0.00    +0.140 C 
BRANCH  13   7
ATOM      7  N   UNL     1     -15.903   5.050  21.495  0.00  0.00    -0.187 NA
ATOM     28  H   UNL     1     -15.017   4.755  21.924  0.00  0.00    +0.148 HD
BRANCH   7   1
ATOM      1  S   UNL     1     -15.944   6.527  20.652  0.00  0.00    +0.058 S 
ATOM      4  O   UNL     1     -16.528   7.548  21.499  0.00  0.00    -0.153 OA
ATOM      5  O   UNL     1     -16.471   6.295  19.320  0.00  0.00    -0.153 OA
BRANCH   1  16
ATOM     16  C   UNL     1     -14.223   6.887  20.471  0.00  0.00    +0.105 A 
ATOM     19  C   UNL     1     -13.287   6.241  21.280  0.00  0.00    +0.028 A 
ATOM     20  C   UNL     1     -13.801   7.817  19.522  0.00  0.00    +0.028 A 
ATOM     23  C   UNL     1     -11.929   6.528  21.139  0.00  0.00    +0.002 A 
ATOM     24  C   UNL     1     -12.443   8.104  19.381  0.00  0.00    +0.002 A 
ATOM     25  C   UNL     1     -11.507   7.460  20.190  0.00  0.00    +0.000 A 
ENDBRANCH   1  16
ENDBRANCH   7   1
ENDBRANCH  13   7
ENDBRANCH  11  13
TORSDOF 8
ENDMDL
MODEL 9
REMARK VINA RESULT:      -5.5     26.293     27.978
REMARK  Name = 75536831
REMARK  8 active torsions:
REMARK  status: ('A' for Active; 'I' for Inactive)
REMARK    1  A    between atoms: S_1  and  N_7
REMARK    2  A    between atoms: S_1  and  C_16
REMARK    3  A    between atoms: O_3  and  C_10
REMARK    4  A    between atoms: N_6  and  C_9
REMARK    5  A    between atoms: N_6  and  C_14
REMARK    6  A    between atoms: N_7  and  C_13
REMARK    7  A    between atoms: C_11  and  C_13
REMARK    8  A    between atoms: C_14  and  C_15
REMARK                            x       y       z     vdW  Elec       q    Type
REMARK                         _______ _______ _______ _____ _____    ______ ____
ROOT
ATOM      2  O   UNL     1      -6.010 -12.502  17.242  0.00  0.00    -0.371 OA
ATOM      9  C   UNL     1      -7.402 -10.580  17.326  0.00  0.00    +0.111 C 
ATOM     10  C   UNL     1      -5.986 -10.150  16.988  0.00  0.00    +0.164 C 
ATOM     11  C   UNL     1      -5.401 -11.456  16.467  0.00  0.00    +0.164 C 
ATOM     12  C   UNL     1      -7.166 -11.964  17.907  0.00  0.00    +0.181 C 
ENDROOT
BRANCH  10   3
ATOM      3  O   UNL     1      -5.944  -9.127  16.014  0.00  0.00    -0.388 OA
ATOM     27  H   UNL     1      -6.847  -8.790  15.885  0.00  0.00    +0.210 HD
ENDBRANCH  10   3
BRANCH   9   6
ATOM      6  N   UNL     1      -8.077  -9.684  18.252  0.00  0.00    -0.305 NA
ATOM     26  H   UNL     1      -7.990  -8.726  17.913  0.00  0.00    +0.123 HD
BRANCH   6  14
ATOM     14  C   UNL     1      -9.492 -10.017  18.367  0.00  0.00    +0.116 C 
BRANCH  14  15
ATOM      8  N   UNL     1     -11.969  -7.234  16.217  0.00  0.00    -0.263 NA
ATOM     15  C   UNL     1     -10.360  -9.042  17.614  0.00  0.00    -0.031 A 
ATOM     17  C   UNL     1     -11.722  -9.285  17.473  0.00  0.00    +0.024 A 
ATOM     18  C   UNL     1      -9.802  -7.896  17.059  0.00  0.00    +0.024 A 
ATOM     21  C   UNL     1     -12.475  -8.359  16.772  0.00  0.00    +0.111 A 
ATOM     22  C   UNL     1     -10.642  -7.031  16.376  0.00  0.00    +0.111 A 
ENDBRANCH  14  15
ENDBRANCH   6  14
ENDBRANCH   9   6
BRANCH  11  13
ATOM     13  C   UNL     1      -3.891 -11.533  16.598  0.00  0.00    +0.140 C 
BRANCH  13   7
ATOM      7  N   UNL     1      -3.272 -10.412  15.864  0.00  0.00    -0.187 NA
ATOM     28  H   UNL     1      -3.875  -9.595  15.705  0.00  0.00    +0.148 HD
BRANCH   7   1
ATOM      1  S   UNL     1      -2.004 -10.708  14.769  0.00  0.00    +0.058 S 
ATOM      4  O   UNL     1      -1.641 -12.111  14.821  0.00  0.00    -0.153 OA
ATOM      5  O   UNL     1      -0.988  -9.685  14.937  0.00  0.00    -0.153 OA
BRANCH   1  16
ATOM     16  C   UNL     1      -2.790 -10.404  13.215  0.00  0.00    +0.105 A 
ATOM     19  C   UNL     1      -4.183 -10.386  13.131  0.00  0.00    +0.028 A 
ATOM     20  C   UNL     1      -2.019 -10.187  12.074  0.00  0.00    +0.028 A 
ATOM     23  C   UNL     1      -4.803 -10.150  11.904  0.00  0.00    +0.002 A 
ATOM     24  C   UNL     1      -2.639  -9.951  10.848  0.00  0.00    +0.002 A 
ATOM     25  C   UNL     1      -4.031  -9.933  10.762  0.00  0.00    +0.000 A 
ENDBRANCH   1  16
ENDBRANCH   7   1
ENDBRANCH  13   7
ENDBRANCH  11  13
TORSDOF 8
ENDMDL
MODEL 10
REMARK VINA RESULT:      -5.5      3.856      5.813
REMARK  Name = 75536831
REMARK  8 active torsions:
REMARK  status: ('A' for Active; 'I' for Inactive)
REMARK    1  A    between atoms: S_1  and  N_7
REMARK    2  A    between atoms: S_1  and  C_16
REMARK    3  A    between atoms: O_3  and  C_10
REMARK    4  A    between atoms: N_6  and  C_9
REMARK    5  A    between atoms: N_6  and  C_14
REMARK    6  A    between atoms: N_7  and  C_13
REMARK    7  A    between atoms: C_11  and  C_13
REMARK    8  A    between atoms: C_14  and  C_15
REMARK                            x       y       z     vdW  Elec       q    Type
REMARK                         _______ _______ _______ _____ _____    ______ ____
ROOT
ATOM      2  O   UNL     1      13.476  13.424  22.712  0.00  0.00    -0.371 OA
ATOM      9  C   UNL     1      12.525  11.685  24.020  0.00  0.00    +0.111 C 
ATOM     10  C   UNL     1      13.982  11.358  23.747  0.00  0.00    +0.164 C 
ATOM     11  C   UNL     1      14.532  12.737  23.404  0.00  0.00    +0.164 C 
ATOM     12  C   UNL     1      12.243  12.722  22.946  0.00  0.00    +0.181 C 
ENDROOT
BRANCH  10   3
ATOM      3  O   UNL     1      14.634  10.794  24.868  0.00  0.00    -0.388 OA
ATOM     27  H   UNL     1      14.831  11.508  25.498  0.00  0.00    +0.210 HD
ENDBRANCH  10   3
BRANCH   9   6
ATOM      6  N   UNL     1      11.644  10.530  23.939  0.00  0.00    -0.305 NA
ATOM     26  H   UNL     1      11.008  10.540  24.737  0.00  0.00    +0.123 HD
BRANCH   6  14
ATOM     14  C   UNL     1      10.859  10.555  22.710  0.00  0.00    +0.116 C 
BRANCH  14  15
ATOM      8  N   UNL     1      11.410   6.979  20.386  0.00  0.00    -0.263 NA
ATOM     15  C   UNL     1      11.052   9.303  21.896  0.00  0.00    -0.031 A 
ATOM     17  C   UNL     1      10.722   8.064  22.434  0.00  0.00    +0.024 A 
ATOM     18  C   UNL     1      11.559   9.382  20.605  0.00  0.00    +0.024 A 
ATOM     21  C   UNL     1      10.918   6.942  21.646  0.00  0.00    +0.111 A 
ATOM     22  C   UNL     1      11.718   8.200  19.897  0.00  0.00    +0.111 A 
ENDBRANCH  14  15
ENDBRANCH   6  14
ENDBRANCH   9   6
BRANCH  11  13
ATOM     13  C   UNL     1      15.772  12.688  22.530  0.00  0.00    +0.140 C 
BRANCH  13   7
ATOM      7  N   UNL     1      15.778  11.438  21.746  0.00  0.00    -0.187 NA
ATOM     28  H   UNL     1      14.986  10.804  21.912  0.00  0.00    +0.148 HD
BRANCH   7   1
ATOM      1  S   UNL     1      17.250  10.775  21.211  0.00  0.00    +0.058 S 
ATOM      4  O   UNL     1      18.174  10.695  22.325  0.00  0.00    -0.153 OA
ATOM      5  O   UNL     1      17.645  11.435  19.981  0.00  0.00    -0.153 OA
BRANCH   1  16
ATOM     16  C   UNL     1      16.769   9.128  20.782  0.00  0.00    +0.105 A 
ATOM     19  C   UNL     1      17.518   8.043  21.237  0.00  0.00    +0.028 A 
ATOM     20  C   UNL     1      15.645   8.915  19.985  0.00  0.00    +0.028 A 
ATOM     23  C   UNL     1      17.141   6.744  20.895  0.00  0.00    +0.002 A 
ATOM     24  C   UNL     1      15.268   7.616  19.644  0.00  0.00    +0.002 A 
ATOM     25  C   UNL     1      16.016   6.531  20.098  0.00  0.00    +0.000 A 
ENDBRANCH   1  16
ENDBRANCH   7   1
ENDBRANCH  13   7
ENDBRANCH  11  13
TORSDOF 8
ENDMDL
