MODEL 1
REMARK VINA RESULT:      -7.3      0.000      0.000
REMARK  Name = 11913349
REMARK  4 active torsions:
REMARK  status: ('A' for Active; 'I' for Inactive)
REMARK    1  A    between atoms: N_5  and  C_11
REMARK    2  A    between atoms: N_6  and  C_12
REMARK    3  A    between atoms: C_13  and  C_18
REMARK    4  A    between atoms: C_20  and  C_23
REMARK                            x       y       z     vdW  Elec       q    Type
REMARK                         _______ _______ _______ _____ _____    ______ ____
ROOT
ATOM      6  N   UNL     1      -3.291 -10.647  12.223  0.00  0.00    -0.306 N 
ATOM      7  N   UNL     1      -4.054 -10.516  14.438  0.00  0.00    -0.214 NA
ATOM      8  N   UNL     1      -1.710 -10.790  13.950  0.00  0.00    -0.223 NA
ATOM     19  C   UNL     1      -3.010 -10.651  13.577  0.00  0.00    +0.216 A 
ATOM     20  C   UNL     1      -3.744 -10.524  15.751  0.00  0.00    +0.076 A 
ATOM     21  C   UNL     1      -1.472 -10.790  15.278  0.00  0.00    +0.116 A 
ATOM     22  C   UNL     1      -2.459 -10.659  16.235  0.00  0.00    +0.048 A 
ATOM     30  H   UNL     1      -2.512 -10.801  11.592  0.00  0.00    +0.149 HD
ENDROOT
BRANCH   6  12
ATOM      2  O   UNL     1      -6.084 -11.500  10.027  0.00  0.00    -0.370 OA
ATOM      3  O   UNL     1      -4.474  -8.851   9.987  0.00  0.00    -0.370 OA
ATOM      9  C   UNL     1      -4.265 -10.126   9.356  0.00  0.00    +0.171 C 
ATOM     10  C   UNL     1      -4.714 -11.191  10.338  0.00  0.00    +0.171 C 
ATOM     11  C   UNL     1      -5.203 -10.289   8.179  0.00  0.00    +0.130 C 
ATOM     12  C   UNL     1      -4.626 -10.510  11.683  0.00  0.00    +0.130 C 
ATOM     14  C   UNL     1      -6.478 -10.765   8.859  0.00  0.00    +0.185 C 
ATOM     15  C   UNL     1      -4.909  -9.059  11.340  0.00  0.00    +0.185 C 
BRANCH  11   5
ATOM      4  O   UNL     1      -5.795 -10.610   5.337  0.00  0.00    -0.276 OA
ATOM      5  N   UNL     1      -4.712 -11.325   7.272  0.00  0.00    -0.307 N 
ATOM     18  C   UNL     1      -5.056 -11.386   5.933  0.00  0.00    +0.216 C 
ATOM     29  H   UNL     1      -4.064 -12.012   7.644  0.00  0.00    +0.149 HD
BRANCH  18  13
ATOM     13  C   UNL     1      -4.440 -12.527   5.195  0.00  0.00    +0.075 C 
ATOM     16  C   UNL     1      -4.248 -12.398   3.722  0.00  0.00    +0.013 C 
ATOM     17  C   UNL     1      -3.065 -12.353   4.644  0.00  0.00    +0.013 C 
ENDBRANCH  18  13
ENDBRANCH  11   5
ENDBRANCH   6  12
BRANCH  20  23
ATOM      1  F   UNL     1      -8.156  -8.820  16.729  0.00  0.00    -0.205 F 
ATOM     23  C   UNL     1      -4.867 -10.380  16.646  0.00  0.00    +0.003 A 
ATOM     24  C   UNL     1      -5.992  -9.656  16.249  0.00  0.00    +0.048 A 
ATOM     25  C   UNL     1      -4.832 -10.965  17.913  0.00  0.00    +0.010 A 
ATOM     26  C   UNL     1      -7.078  -9.516  17.113  0.00  0.00    +0.124 A 
ATOM     27  C   UNL     1      -5.917 -10.826  18.779  0.00  0.00    +0.003 A 
ATOM     28  C   UNL     1      -7.041 -10.102  18.379  0.00  0.00    +0.038 A 
ENDBRANCH  20  23
TORSDOF 4
ENDMDL
MODEL 2
REMARK VINA RESULT:      -6.8     27.547     30.754
REMARK  Name = 11913349
REMARK  4 active torsions:
REMARK  status: ('A' for Active; 'I' for Inactive)
REMARK    1  A    between atoms: N_5  and  C_11
REMARK    2  A    between atoms: N_6  and  C_12
REMARK    3  A    between atoms: C_13  and  C_18
REMARK    4  A    between atoms: C_20  and  C_23
REMARK                            x       y       z     vdW  Elec       q    Type
REMARK                         _______ _______ _______ _____ _____    ______ ____
ROOT
ATOM      6  N   UNL     1      13.163   9.596  22.718  0.00  0.00    -0.306 N 
ATOM      7  N   UNL     1      13.144   9.138  20.417  0.00  0.00    -0.214 NA
ATOM      8  N   UNL     1      14.279   7.676  21.960  0.00  0.00    -0.223 NA
ATOM     19  C   UNL     1      13.540   8.780  21.667  0.00  0.00    +0.216 A 
ATOM     20  C   UNL     1      13.529   8.319  19.416  0.00  0.00    +0.076 A 
ATOM     21  C   UNL     1      14.628   6.902  20.913  0.00  0.00    +0.116 A 
ATOM     22  C   UNL     1      14.278   7.176  19.606  0.00  0.00    +0.048 A 
ATOM     30  H   UNL     1      13.507   9.348  23.638  0.00  0.00    +0.149 HD
ENDROOT
BRANCH   6  12
ATOM      2  O   UNL     1      12.407  13.145  23.151  0.00  0.00    -0.370 OA
ATOM      3  O   UNL     1      10.773  10.777  24.304  0.00  0.00    -0.370 OA
ATOM      9  C   UNL     1      11.920  11.495  24.789  0.00  0.00    +0.171 C 
ATOM     10  C   UNL     1      12.783  11.827  23.587  0.00  0.00    +0.171 C 
ATOM     11  C   UNL     1      11.504  12.845  25.331  0.00  0.00    +0.130 C 
ATOM     12  C   UNL     1      12.380  10.802  22.553  0.00  0.00    +0.130 C 
ATOM     14  C   UNL     1      11.438  13.683  24.063  0.00  0.00    +0.185 C 
ATOM     15  C   UNL     1      10.926  10.536  22.896  0.00  0.00    +0.185 C 
BRANCH  11   5
ATOM      4  O   UNL     1      11.355  15.229  27.012  0.00  0.00    -0.276 OA
ATOM      5  N   UNL     1      12.531  13.380  26.222  0.00  0.00    -0.307 N 
ATOM     18  C   UNL     1      12.358  14.524  26.980  0.00  0.00    +0.216 C 
ATOM     29  H   UNL     1      13.402  12.863  26.306  0.00  0.00    +0.149 HD
BRANCH  18  13
ATOM     13  C   UNL     1      13.538  14.886  27.819  0.00  0.00    +0.075 C 
ATOM     16  C   UNL     1      14.443  13.795  28.280  0.00  0.00    +0.013 C 
ATOM     17  C   UNL     1      14.897  14.757  27.221  0.00  0.00    +0.013 C 
ENDBRANCH  18  13
ENDBRANCH  11   5
ENDBRANCH   6  12
BRANCH  20  23
ATOM      1  F   UNL     1      10.127   8.582  15.998  0.00  0.00    -0.205 F 
ATOM     23  C   UNL     1      13.099   8.719  18.097  0.00  0.00    +0.003 A 
ATOM     24  C   UNL     1      11.795   8.453  17.675  0.00  0.00    +0.048 A 
ATOM     25  C   UNL     1      13.985   9.374  17.240  0.00  0.00    +0.010 A 
ATOM     26  C   UNL     1      11.379   8.839  16.401  0.00  0.00    +0.124 A 
ATOM     27  C   UNL     1      13.569   9.761  15.966  0.00  0.00    +0.003 A 
ATOM     28  C   UNL     1      12.266   9.494  15.546  0.00  0.00    +0.038 A 
ENDBRANCH  20  23
TORSDOF 4
ENDMDL
MODEL 3
REMARK VINA RESULT:      -6.8      2.272      2.455
REMARK  Name = 11913349
REMARK  4 active torsions:
REMARK  status: ('A' for Active; 'I' for Inactive)
REMARK    1  A    between atoms: N_5  and  C_11
REMARK    2  A    between atoms: N_6  and  C_12
REMARK    3  A    between atoms: C_13  and  C_18
REMARK    4  A    between atoms: C_20  and  C_23
REMARK                            x       y       z     vdW  Elec       q    Type
REMARK                         _______ _______ _______ _____ _____    ______ ____
ROOT
ATOM      6  N   UNL     1      -4.036 -10.594  12.596  0.00  0.00    -0.306 N 
ATOM      7  N   UNL     1      -4.170 -10.763  14.932  0.00  0.00    -0.214 NA
ATOM      8  N   UNL     1      -2.051 -10.424  13.835  0.00  0.00    -0.223 NA
ATOM     19  C   UNL     1      -3.400 -10.594  13.824  0.00  0.00    +0.216 A 
ATOM     20  C   UNL     1      -3.517 -10.758  16.113  0.00  0.00    +0.076 A 
ATOM     21  C   UNL     1      -1.464 -10.428  15.049  0.00  0.00    +0.116 A 
ATOM     22  C   UNL     1      -2.153 -10.593  16.235  0.00  0.00    +0.048 A 
ATOM     30  H   UNL     1      -3.447 -10.519  11.774  0.00  0.00    +0.149 HD
ENDROOT
BRANCH   6  12
ATOM      2  O   UNL     1      -7.094 -11.379  10.756  0.00  0.00    -0.370 OA
ATOM      3  O   UNL     1      -6.324  -8.611  11.921  0.00  0.00    -0.370 OA
ATOM      9  C   UNL     1      -6.025  -9.259  10.673  0.00  0.00    +0.171 C 
ATOM     10  C   UNL     1      -5.826 -10.733  10.968  0.00  0.00    +0.171 C 
ATOM     11  C   UNL     1      -7.233  -9.223   9.760  0.00  0.00    +0.130 C 
ATOM     12  C   UNL     1      -5.463 -10.767  12.434  0.00  0.00    +0.130 C 
ATOM     14  C   UNL     1      -8.035 -10.416  10.258  0.00  0.00    +0.185 C 
ATOM     15  C   UNL     1      -6.205  -9.564  12.989  0.00  0.00    +0.185 C 
BRANCH  11   5
ATOM      4  O   UNL     1      -8.388  -8.038   7.354  0.00  0.00    -0.276 OA
ATOM      5  N   UNL     1      -6.833  -9.443   8.372  0.00  0.00    -0.307 N 
ATOM     18  C   UNL     1      -7.451  -8.826   7.298  0.00  0.00    +0.216 C 
ATOM     29  H   UNL     1      -6.043 -10.057   8.197  0.00  0.00    +0.149 HD
BRANCH  18  13
ATOM     13  C   UNL     1      -6.881  -9.196   5.970  0.00  0.00    +0.075 C 
ATOM     16  C   UNL     1      -7.801  -9.732   4.927  0.00  0.00    +0.013 C 
ATOM     17  C   UNL     1      -7.228  -8.352   4.791  0.00  0.00    +0.013 C 
ENDBRANCH  18  13
ENDBRANCH  11   5
ENDBRANCH   6  12
BRANCH  20  23
ATOM      1  F   UNL     1      -7.646  -9.976  18.493  0.00  0.00    -0.205 F 
ATOM     23  C   UNL     1      -4.353 -10.940  17.276  0.00  0.00    +0.003 A 
ATOM     24  C   UNL     1      -5.621 -10.359  17.325  0.00  0.00    +0.048 A 
ATOM     25  C   UNL     1      -3.896 -11.699  18.355  0.00  0.00    +0.010 A 
ATOM     26  C   UNL     1      -6.429 -10.535  18.448  0.00  0.00    +0.124 A 
ATOM     27  C   UNL     1      -4.704 -11.876  19.479  0.00  0.00    +0.003 A 
ATOM     28  C   UNL     1      -5.971 -11.294  19.526  0.00  0.00    +0.038 A 
ENDBRANCH  20  23
TORSDOF 4
ENDMDL
MODEL 4
REMARK VINA RESULT:      -6.7     26.904     31.059
REMARK  Name = 11913349
REMARK  4 active torsions:
REMARK  status: ('A' for Active; 'I' for Inactive)
REMARK    1  A    between atoms: N_5  and  C_11
REMARK    2  A    between atoms: N_6  and  C_12
REMARK    3  A    between atoms: C_13  and  C_18
REMARK    4  A    between atoms: C_20  and  C_23
REMARK                            x       y       z     vdW  Elec       q    Type
REMARK                         _______ _______ _______ _____ _____    ______ ____
ROOT
ATOM      6  N   UNL     1      20.062  -1.778  29.251  0.00  0.00    -0.306 N 
ATOM      7  N   UNL     1      19.184  -1.934  27.081  0.00  0.00    -0.214 NA
ATOM      8  N   UNL     1      21.303  -0.860  27.485  0.00  0.00    -0.223 NA
ATOM     19  C   UNL     1      20.186  -1.516  27.899  0.00  0.00    +0.216 A 
ATOM     20  C   UNL     1      19.338  -1.663  25.768  0.00  0.00    +0.076 A 
ATOM     21  C   UNL     1      21.393  -0.622  26.160  0.00  0.00    +0.116 A 
ATOM     22  C   UNL     1      20.432  -1.003  25.245  0.00  0.00    +0.048 A 
ATOM     30  H   UNL     1      20.788  -1.416  29.858  0.00  0.00    +0.149 HD
ENDROOT
BRANCH   6  12
ATOM      2  O   UNL     1      16.622  -2.074  30.447  0.00  0.00    -0.370 OA
ATOM      3  O   UNL     1      19.181  -2.257  32.187  0.00  0.00    -0.370 OA
ATOM      9  C   UNL     1      18.382  -1.146  31.745  0.00  0.00    +0.171 C 
ATOM     10  C   UNL     1      17.918  -1.460  30.336  0.00  0.00    +0.171 C 
ATOM     11  C   UNL     1      17.102  -1.067  32.549  0.00  0.00    +0.130 C 
ATOM     12  C   UNL     1      18.927  -2.463  29.832  0.00  0.00    +0.130 C 
ATOM     14  C   UNL     1      16.218  -2.072  31.825  0.00  0.00    +0.185 C 
ATOM     15  C   UNL     1      19.343  -3.184  31.102  0.00  0.00    +0.185 C 
BRANCH  11   5
ATOM      4  O   UNL     1      17.559   1.225  34.299  0.00  0.00    -0.276 OA
ATOM      5  N   UNL     1      16.515   0.267  32.450  0.00  0.00    -0.307 N 
ATOM     18  C   UNL     1      16.801   1.289  33.338  0.00  0.00    +0.216 C 
ATOM     29  H   UNL     1      15.891   0.454  31.671  0.00  0.00    +0.149 HD
BRANCH  18  13
ATOM     13  C   UNL     1      16.090   2.568  33.047  0.00  0.00    +0.075 C 
ATOM     16  C   UNL     1      16.779   3.852  33.365  0.00  0.00    +0.013 C 
ATOM     17  C   UNL     1      16.599   3.425  31.938  0.00  0.00    +0.013 C 
ENDBRANCH  18  13
ENDBRANCH  11   5
ENDBRANCH   6  12
BRANCH  20  23
ATOM      1  F   UNL     1      16.068  -0.826  22.315  0.00  0.00    -0.205 F 
ATOM     23  C   UNL     1      18.263  -2.114  24.918  0.00  0.00    +0.003 A 
ATOM     24  C   UNL     1      17.672  -1.236  24.008  0.00  0.00    +0.048 A 
ATOM     25  C   UNL     1      17.810  -3.433  25.003  0.00  0.00    +0.010 A 
ATOM     26  C   UNL     1      16.633  -1.672  23.187  0.00  0.00    +0.124 A 
ATOM     27  C   UNL     1      16.771  -3.870  24.181  0.00  0.00    +0.003 A 
ATOM     28  C   UNL     1      16.182  -2.990  23.272  0.00  0.00    +0.038 A 
ENDBRANCH  20  23
TORSDOF 4
ENDMDL
MODEL 5
REMARK VINA RESULT:      -6.6     21.713     23.451
REMARK  Name = 11913349
REMARK  4 active torsions:
REMARK  status: ('A' for Active; 'I' for Inactive)
REMARK    1  A    between atoms: N_5  and  C_11
REMARK    2  A    between atoms: N_6  and  C_12
REMARK    3  A    between atoms: C_13  and  C_18
REMARK    4  A    between atoms: C_20  and  C_23
REMARK                            x       y       z     vdW  Elec       q    Type
REMARK                         _______ _______ _______ _____ _____    ______ ____
ROOT
ATOM      6  N   UNL     1     -17.230   4.473  25.131  0.00  0.00    -0.306 N 
ATOM      7  N   UNL     1     -16.510   3.538  27.160  0.00  0.00    -0.214 NA
ATOM      8  N   UNL     1     -18.629   4.676  27.004  0.00  0.00    -0.223 NA
ATOM     19  C   UNL     1     -17.463   4.222  26.471  0.00  0.00    +0.216 A 
ATOM     20  C   UNL     1     -16.770   3.310  28.464  0.00  0.00    +0.076 A 
ATOM     21  C   UNL     1     -18.824   4.413  28.312  0.00  0.00    +0.116 A 
ATOM     22  C   UNL     1     -17.921   3.728  29.101  0.00  0.00    +0.048 A 
ATOM     30  H   UNL     1     -17.922   5.028  24.641  0.00  0.00    +0.149 HD
ENDROOT
BRANCH   6  12
ATOM      2  O   UNL     1     -13.939   4.938  23.614  0.00  0.00    -0.370 OA
ATOM      3  O   UNL     1     -16.549   4.190  22.118  0.00  0.00    -0.370 OA
ATOM      9  C   UNL     1     -15.975   5.451  22.503  0.00  0.00    +0.171 C 
ATOM     10  C   UNL     1     -15.321   5.251  23.857  0.00  0.00    +0.171 C 
ATOM     11  C   UNL     1     -14.825   5.807  21.585  0.00  0.00    +0.130 C 
ATOM     12  C   UNL     1     -16.034   4.052  24.435  0.00  0.00    +0.130 C 
ATOM     14  C   UNL     1     -13.678   5.024  22.205  0.00  0.00    +0.185 C 
ATOM     15  C   UNL     1     -16.399   3.253  23.196  0.00  0.00    +0.185 C 
BRANCH  11   5
ATOM      4  O   UNL     1     -13.286   7.417  19.697  0.00  0.00    -0.276 OA
ATOM      5  N   UNL     1     -14.539   7.238  21.652  0.00  0.00    -0.307 N 
ATOM     18  C   UNL     1     -13.794   7.909  20.698  0.00  0.00    +0.216 C 
ATOM     29  H   UNL     1     -14.935   7.765  22.425  0.00  0.00    +0.149 HD
BRANCH  18  13
ATOM     13  C   UNL     1     -13.627   9.367  20.966  0.00  0.00    +0.075 C 
ATOM     16  C   UNL     1     -12.954   9.783  22.230  0.00  0.00    +0.013 C 
ATOM     17  C   UNL     1     -12.253   9.943  20.913  0.00  0.00    +0.013 C 
ENDBRANCH  18  13
ENDBRANCH  11   5
ENDBRANCH   6  12
BRANCH  20  23
ATOM      1  F   UNL     1     -12.685   3.231  31.037  0.00  0.00    -0.205 F 
ATOM     23  C   UNL     1     -15.746   2.584  29.175  0.00  0.00    +0.003 A 
ATOM     24  C   UNL     1     -14.688   3.270  29.775  0.00  0.00    +0.048 A 
ATOM     25  C   UNL     1     -15.810   1.192  29.267  0.00  0.00    +0.010 A 
ATOM     26  C   UNL     1     -13.698   2.569  30.463  0.00  0.00    +0.124 A 
ATOM     27  C   UNL     1     -14.819   0.490  29.955  0.00  0.00    +0.003 A 
ATOM     28  C   UNL     1     -13.764   1.178  30.554  0.00  0.00    +0.038 A 
ENDBRANCH  20  23
TORSDOF 4
ENDMDL
MODEL 6
REMARK VINA RESULT:      -6.5      5.908      9.350
REMARK  Name = 11913349
REMARK  4 active torsions:
REMARK  status: ('A' for Active; 'I' for Inactive)
REMARK    1  A    between atoms: N_5  and  C_11
REMARK    2  A    between atoms: N_6  and  C_12
REMARK    3  A    between atoms: C_13  and  C_18
REMARK    4  A    between atoms: C_20  and  C_23
REMARK                            x       y       z     vdW  Elec       q    Type
REMARK                         _______ _______ _______ _____ _____    ______ ____
ROOT
ATOM      6  N   UNL     1      -8.351  -9.456  18.058  0.00  0.00    -0.306 N 
ATOM      7  N   UNL     1      -6.216 -10.103  17.333  0.00  0.00    -0.214 NA
ATOM      8  N   UNL     1      -7.004 -10.683  19.535  0.00  0.00    -0.223 NA
ATOM     19  C   UNL     1      -7.154 -10.100  18.316  0.00  0.00    +0.216 A 
ATOM     20  C   UNL     1      -5.061 -10.740  17.618  0.00  0.00    +0.076 A 
ATOM     21  C   UNL     1      -5.826 -11.303  19.753  0.00  0.00    +0.116 A 
ATOM     22  C   UNL     1      -4.807 -11.364  18.823  0.00  0.00    +0.048 A 
ATOM     30  H   UNL     1      -9.023  -9.414  18.816  0.00  0.00    +0.149 HD
ENDROOT
BRANCH   6  12
ATOM      2  O   UNL     1     -10.126  -7.111  15.889  0.00  0.00    -0.370 OA
ATOM      3  O   UNL     1     -10.183 -10.202  15.669  0.00  0.00    -0.370 OA
ATOM      9  C   UNL     1     -10.956  -9.267  16.440  0.00  0.00    +0.171 C 
ATOM     10  C   UNL     1     -10.017  -8.157  16.870  0.00  0.00    +0.171 C 
ATOM     11  C   UNL     1     -11.973  -8.573  15.559  0.00  0.00    +0.130 C 
ATOM     12  C   UNL     1      -8.648  -8.790  16.808  0.00  0.00    +0.130 C 
ATOM     14  C   UNL     1     -11.138  -7.465  14.935  0.00  0.00    +0.185 C 
ATOM     15  C   UNL     1      -8.802  -9.808  15.693  0.00  0.00    +0.185 C 
BRANCH  11   5
ATOM      4  O   UNL     1     -14.622  -7.716  14.680  0.00  0.00    -0.276 OA
ATOM      5  N   UNL     1     -13.041  -7.991  16.369  0.00  0.00    -0.307 N 
ATOM     18  C   UNL     1     -14.268  -7.617  15.849  0.00  0.00    +0.216 C 
ATOM     29  H   UNL     1     -12.877  -7.886  17.365  0.00  0.00    +0.149 HD
BRANCH  18  13
ATOM     13  C   UNL     1     -15.208  -7.044  16.857  0.00  0.00    +0.075 C 
ATOM     16  C   UNL     1     -16.594  -6.705  16.422  0.00  0.00    +0.013 C 
ATOM     17  C   UNL     1     -16.351  -7.885  17.316  0.00  0.00    +0.013 C 
ENDBRANCH  18  13
ENDBRANCH  11   5
ENDBRANCH   6  12
BRANCH  20  23
ATOM      1  F   UNL     1      -3.923 -10.482  12.933  0.00  0.00    -0.205 F 
ATOM     23  C   UNL     1      -4.079 -10.731  16.561  0.00  0.00    +0.003 A 
ATOM     24  C   UNL     1      -4.482 -10.608  15.230  0.00  0.00    +0.048 A 
ATOM     25  C   UNL     1      -2.721 -10.844  16.866  0.00  0.00    +0.010 A 
ATOM     26  C   UNL     1      -3.533 -10.599  14.209  0.00  0.00    +0.124 A 
ATOM     27  C   UNL     1      -1.771 -10.835  15.845  0.00  0.00    +0.003 A 
ATOM     28  C   UNL     1      -2.176 -10.712  14.516  0.00  0.00    +0.038 A 
ENDBRANCH  20  23
TORSDOF 4
ENDMDL
MODEL 7
REMARK VINA RESULT:      -6.5     23.797     25.326
REMARK  Name = 11913349
REMARK  4 active torsions:
REMARK  status: ('A' for Active; 'I' for Inactive)
REMARK    1  A    between atoms: N_5  and  C_11
REMARK    2  A    between atoms: N_6  and  C_12
REMARK    3  A    between atoms: C_13  and  C_18
REMARK    4  A    between atoms: C_20  and  C_23
REMARK                            x       y       z     vdW  Elec       q    Type
REMARK                         _______ _______ _______ _____ _____    ______ ____
ROOT
ATOM      6  N   UNL     1      11.150   6.197   1.819  0.00  0.00    -0.306 N 
ATOM      7  N   UNL     1      10.176   6.421   3.942  0.00  0.00    -0.214 NA
ATOM      8  N   UNL     1       9.280   7.597   2.039  0.00  0.00    -0.223 NA
ATOM     19  C   UNL     1      10.173   6.755   2.624  0.00  0.00    +0.216 A 
ATOM     20  C   UNL     1       9.210   6.983   4.697  0.00  0.00    +0.076 A 
ATOM     21  C   UNL     1       8.341   8.122   2.852  0.00  0.00    +0.116 A 
ATOM     22  C   UNL     1       8.256   7.849   4.203  0.00  0.00    +0.048 A 
ATOM     30  H   UNL     1      11.170   6.493   0.850  0.00  0.00    +0.149 HD
ENDROOT
BRANCH   6  12
ATOM      2  O   UNL     1      14.536   4.856   2.111  0.00  0.00    -0.370 OA
ATOM      3  O   UNL     1      12.102   3.406   0.854  0.00  0.00    -0.370 OA
ATOM      9  C   UNL     1      13.070   4.325   0.319  0.00  0.00    +0.171 C 
ATOM     10  C   UNL     1      13.378   5.336   1.407  0.00  0.00    +0.171 C 
ATOM     11  C   UNL     1      14.389   3.620   0.084  0.00  0.00    +0.130 C 
ATOM     12  C   UNL     1      12.165   5.288   2.306  0.00  0.00    +0.130 C 
ATOM     14  C   UNL     1      15.017   3.667   1.469  0.00  0.00    +0.185 C 
ATOM     15  C   UNL     1      11.698   3.851   2.159  0.00  0.00    +0.185 C 
BRANCH  11   5
ATOM      4  O   UNL     1      13.949   4.000  -2.778  0.00  0.00    -0.276 OA
ATOM      5  N   UNL     1      15.213   4.375  -0.857  0.00  0.00    -0.307 N 
ATOM     18  C   UNL     1      14.913   4.493  -2.203  0.00  0.00    +0.216 C 
ATOM     29  H   UNL     1      16.028   4.858  -0.492  0.00  0.00    +0.149 HD
BRANCH  18  13
ATOM     13  C   UNL     1      15.892   5.310  -2.978  0.00  0.00    +0.075 C 
ATOM     16  C   UNL     1      16.800   6.226  -2.231  0.00  0.00    +0.013 C 
ATOM     17  C   UNL     1      17.340   4.976  -2.861  0.00  0.00    +0.013 C 
ENDBRANCH  18  13
ENDBRANCH  11   5
ENDBRANCH   6  12
BRANCH  20  23
ATOM      1  F   UNL     1      10.018   3.740   8.183  0.00  0.00    -0.205 F 
ATOM     23  C   UNL     1       9.232   6.615   6.093  0.00  0.00    +0.003 A 
ATOM     24  C   UNL     1       9.622   5.330   6.473  0.00  0.00    +0.048 A 
ATOM     25  C   UNL     1       8.864   7.545   7.068  0.00  0.00    +0.010 A 
ATOM     26  C   UNL     1       9.643   4.974   7.822  0.00  0.00    +0.124 A 
ATOM     27  C   UNL     1       8.885   7.190   8.417  0.00  0.00    +0.003 A 
ATOM     28  C   UNL     1       9.275   5.905   8.794  0.00  0.00    +0.038 A 
ENDBRANCH  20  23
TORSDOF 4
ENDMDL
MODEL 8
REMARK VINA RESULT:      -6.4     28.165     31.440
REMARK  Name = 11913349
REMARK  4 active torsions:
REMARK  status: ('A' for Active; 'I' for Inactive)
REMARK    1  A    between atoms: N_5  and  C_11
REMARK    2  A    between atoms: N_6  and  C_12
REMARK    3  A    between atoms: C_13  and  C_18
REMARK    4  A    between atoms: C_20  and  C_23
REMARK                            x       y       z     vdW  Elec       q    Type
REMARK                         _______ _______ _______ _____ _____    ______ ____
ROOT
ATOM      6  N   UNL     1      11.024  10.394  23.326  0.00  0.00    -0.306 N 
ATOM      7  N   UNL     1      11.755   9.774  21.184  0.00  0.00    -0.214 NA
ATOM      8  N   UNL     1      10.553   8.220  22.579  0.00  0.00    -0.223 NA
ATOM     19  C   UNL     1      11.113   9.434  22.333  0.00  0.00    +0.216 A 
ATOM     20  C   UNL     1      11.824   8.815  20.238  0.00  0.00    +0.076 A 
ATOM     21  C   UNL     1      10.657   7.309  21.590  0.00  0.00    +0.116 A 
ATOM     22  C   UNL     1      11.288   7.552  20.386  0.00  0.00    +0.048 A 
ATOM     30  H   UNL     1      10.590  10.113  24.198  0.00  0.00    +0.149 HD
ENDROOT
BRANCH   6  12
ATOM      2  O   UNL     1      13.474  13.036  23.930  0.00  0.00    -0.370 OA
ATOM      3  O   UNL     1      10.530  13.020  24.900  0.00  0.00    -0.370 OA
ATOM      9  C   UNL     1      11.742  12.484  25.459  0.00  0.00    +0.171 C 
ATOM     10  C   UNL     1      12.581  11.973  24.304  0.00  0.00    +0.171 C 
ATOM     11  C   UNL     1      12.578  13.593  26.062  0.00  0.00    +0.130 C 
ATOM     12  C   UNL     1      11.576  11.725  23.203  0.00  0.00    +0.130 C 
ATOM     14  C   UNL     1      13.306  14.133  24.840  0.00  0.00    +0.185 C 
ATOM     15  C   UNL     1      10.508  12.766  23.487  0.00  0.00    +0.185 C 
BRANCH  11   5
ATOM      4  O   UNL     1      13.565  14.825  28.519  0.00  0.00    -0.276 OA
ATOM      5  N   UNL     1      13.545  13.049  27.011  0.00  0.00    -0.307 N 
ATOM     18  C   UNL     1      13.947  13.719  28.154  0.00  0.00    +0.216 C 
ATOM     29  H   UNL     1      13.913  12.119  26.833  0.00  0.00    +0.149 HD
BRANCH  18  13
ATOM     13  C   UNL     1      14.943  12.976  28.980  0.00  0.00    +0.075 C 
ATOM     16  C   UNL     1      15.547  13.666  30.155  0.00  0.00    +0.013 C 
ATOM     17  C   UNL     1      14.551  12.562  30.358  0.00  0.00    +0.013 C 
ENDBRANCH  18  13
ENDBRANCH  11   5
ENDBRANCH   6  12
BRANCH  20  23
ATOM      1  F   UNL     1      15.350  11.218  17.977  0.00  0.00    -0.205 F 
ATOM     23  C   UNL     1      12.509   9.197  19.027  0.00  0.00    +0.003 A 
ATOM     24  C   UNL     1      13.621  10.040  19.086  0.00  0.00    +0.048 A 
ATOM     25  C   UNL     1      12.064   8.724  17.790  0.00  0.00    +0.010 A 
ATOM     26  C   UNL     1      14.284  10.409  17.916  0.00  0.00    +0.124 A 
ATOM     27  C   UNL     1      12.727   9.093  16.620  0.00  0.00    +0.003 A 
ATOM     28  C   UNL     1      13.837   9.935  16.682  0.00  0.00    +0.038 A 
ENDBRANCH  20  23
TORSDOF 4
ENDMDL
MODEL 9
REMARK VINA RESULT:      -6.4     23.735     26.280
REMARK  Name = 11913349
REMARK  4 active torsions:
REMARK  status: ('A' for Active; 'I' for Inactive)
REMARK    1  A    between atoms: N_5  and  C_11
REMARK    2  A    between atoms: N_6  and  C_12
REMARK    3  A    between atoms: C_13  and  C_18
REMARK    4  A    between atoms: C_20  and  C_23
REMARK                            x       y       z     vdW  Elec       q    Type
REMARK                         _______ _______ _______ _____ _____    ______ ____
ROOT
ATOM      6  N   UNL     1      12.522   5.397   2.859  0.00  0.00    -0.306 N 
ATOM      7  N   UNL     1      12.338   4.598   0.660  0.00  0.00    -0.214 NA
ATOM      8  N   UNL     1      14.481   4.726   1.755  0.00  0.00    -0.223 NA
ATOM     19  C   UNL     1      13.131   4.892   1.724  0.00  0.00    +0.216 A 
ATOM     20  C   UNL     1      12.964   4.107  -0.429  0.00  0.00    +0.076 A 
ATOM     21  C   UNL     1      15.042   4.231   0.633  0.00  0.00    +0.116 A 
ATOM     22  C   UNL     1      14.327   3.901  -0.501  0.00  0.00    +0.048 A 
ATOM     30  H   UNL     1      13.128   5.662   3.626  0.00  0.00    +0.149 HD
ENDROOT
BRANCH   6  12
ATOM      2  O   UNL     1       9.527   7.329   3.665  0.00  0.00    -0.370 OA
ATOM      3  O   UNL     1      10.450   4.723   5.067  0.00  0.00    -0.370 OA
ATOM      9  C   UNL     1      10.770   6.108   5.280  0.00  0.00    +0.171 C 
ATOM     10  C   UNL     1      10.828   6.770   3.917  0.00  0.00    +0.171 C 
ATOM     11  C   UNL     1       9.627   6.809   5.984  0.00  0.00    +0.130 C 
ATOM     12  C   UNL     1      11.098   5.628   2.966  0.00  0.00    +0.130 C 
ATOM     14  C   UNL     1       8.701   7.137   4.823  0.00  0.00    +0.185 C 
ATOM     15  C   UNL     1      10.425   4.455   3.656  0.00  0.00    +0.185 C 
BRANCH  11   5
ATOM      4  O   UNL     1       8.579   8.106   8.381  0.00  0.00    -0.276 OA
ATOM      5  N   UNL     1      10.090   8.045   6.610  0.00  0.00    -0.307 N 
ATOM     18  C   UNL     1       9.520   8.577   7.753  0.00  0.00    +0.216 C 
ATOM     29  H   UNL     1      10.890   8.515   6.196  0.00  0.00    +0.149 HD
BRANCH  18  13
ATOM     13  C   UNL     1      10.153   9.846   8.218  0.00  0.00    +0.075 C 
ATOM     16  C   UNL     1       9.582  11.139   7.742  0.00  0.00    +0.013 C 
ATOM     17  C   UNL     1       9.393  10.708   9.167  0.00  0.00    +0.013 C 
ENDBRANCH  18  13
ENDBRANCH  11   5
ENDBRANCH   6  12
BRANCH  20  23
ATOM      1  F   UNL     1       8.868   4.789  -2.894  0.00  0.00    -0.205 F 
ATOM     23  C   UNL     1      12.104   3.803  -1.546  0.00  0.00    +0.003 A 
ATOM     24  C   UNL     1      10.877   4.455  -1.685  0.00  0.00    +0.048 A 
ATOM     25  C   UNL     1      12.495   2.855  -2.494  0.00  0.00    +0.010 A 
ATOM     26  C   UNL     1      10.045   4.161  -2.765  0.00  0.00    +0.124 A 
ATOM     27  C   UNL     1      11.663   2.561  -3.575  0.00  0.00    +0.003 A 
ATOM     28  C   UNL     1      10.438   3.214  -3.711  0.00  0.00    +0.038 A 
ENDBRANCH  20  23
TORSDOF 4
ENDMDL
MODEL 10
REMARK VINA RESULT:      -6.4     21.651     24.356
REMARK  Name = 11913349
REMARK  4 active torsions:
REMARK  status: ('A' for Active; 'I' for Inactive)
REMARK    1  A    between atoms: N_5  and  C_11
REMARK    2  A    between atoms: N_6  and  C_12
REMARK    3  A    between atoms: C_13  and  C_18
REMARK    4  A    between atoms: C_20  and  C_23
REMARK                            x       y       z     vdW  Elec       q    Type
REMARK                         _______ _______ _______ _____ _____    ______ ____
ROOT
ATOM      6  N   UNL     1     -15.042   9.324  22.132  0.00  0.00    -0.306 N 
ATOM      7  N   UNL     1     -13.984   9.988  24.119  0.00  0.00    -0.214 NA
ATOM      8  N   UNL     1     -15.914  11.169  23.290  0.00  0.00    -0.223 NA
ATOM     19  C   UNL     1     -14.977  10.186  23.212  0.00  0.00    +0.216 A 
ATOM     20  C   UNL     1     -13.951  10.846  25.159  0.00  0.00    +0.076 A 
ATOM     21  C   UNL     1     -15.822  11.990  24.356  0.00  0.00    +0.116 A 
ATOM     22  C   UNL     1     -14.853  11.876  25.332  0.00  0.00    +0.048 A 
ATOM     30  H   UNL     1     -15.753   9.513  21.436  0.00  0.00    +0.149 HD
ENDROOT
BRANCH   6  12
ATOM      2  O   UNL     1     -11.840   7.835  21.194  0.00  0.00    -0.370 OA
ATOM      3  O   UNL     1     -14.539   7.435  19.723  0.00  0.00    -0.370 OA
ATOM      9  C   UNL     1     -13.513   8.437  19.619  0.00  0.00    +0.171 C 
ATOM     10  C   UNL     1     -12.985   8.686  21.019  0.00  0.00    +0.171 C 
ATOM     11  C   UNL     1     -12.320   7.891  18.865  0.00  0.00    +0.130 C 
ATOM     12  C   UNL     1     -14.111   8.237  21.920  0.00  0.00    +0.130 C 
ATOM     14  C   UNL     1     -11.572   7.149  19.962  0.00  0.00    +0.185 C 
ATOM     15  C   UNL     1     -14.767   7.134  21.109  0.00  0.00    +0.185 C 
BRANCH  11   5
ATOM      4  O   UNL     1     -10.426   7.813  16.643  0.00  0.00    -0.276 OA
ATOM      5  N   UNL     1     -11.493   8.981  18.353  0.00  0.00    -0.307 N 
ATOM     18  C   UNL     1     -10.622   8.837  17.287  0.00  0.00    +0.216 C 
ATOM     29  H   UNL     1     -11.589   9.893  18.788  0.00  0.00    +0.149 HD
BRANCH  18  13
ATOM     13  C   UNL     1      -9.877  10.081  16.934  0.00  0.00    +0.075 C 
ATOM     16  C   UNL     1     -10.638  11.220  16.346  0.00  0.00    +0.013 C 
ATOM     17  C   UNL     1     -10.117  11.305  17.751  0.00  0.00    +0.013 C 
ENDBRANCH  18  13
ENDBRANCH  11   5
ENDBRANCH   6  12
BRANCH  20  23
ATOM      1  F   UNL     1      -9.255  10.395  26.191  0.00  0.00    -0.205 F 
ATOM     23  C   UNL     1     -12.888  10.618  26.108  0.00  0.00    +0.003 A 
ATOM     24  C   UNL     1     -11.558  10.616  25.684  0.00  0.00    +0.048 A 
ATOM     25  C   UNL     1     -13.186  10.399  27.455  0.00  0.00    +0.010 A 
ATOM     26  C   UNL     1     -10.530  10.397  26.601  0.00  0.00    +0.124 A 
ATOM     27  C   UNL     1     -12.159  10.179  28.373  0.00  0.00    +0.003 A 
ATOM     28  C   UNL     1     -10.830  10.178  27.947  0.00  0.00    +0.038 A 
ENDBRANCH  20  23
TORSDOF 4
ENDMDL
