MODEL 1
REMARK VINA RESULT:      -6.2      0.000      0.000
REMARK  Name = 75536786
REMARK  8 active torsions:
REMARK  status: ('A' for Active; 'I' for Inactive)
REMARK    1  A    between atoms: O_2  and  C_8
REMARK    2  A    between atoms: N_4  and  C_7
REMARK    3  A    between atoms: N_4  and  C_12
REMARK    4  A    between atoms: N_5  and  C_11
REMARK    5  A    between atoms: C_9  and  C_11
REMARK    6  A    between atoms: C_12  and  C_13
REMARK    7  A    between atoms: C_12  and  C_14
REMARK    8  A    between atoms: C_15  and  C_16
REMARK                            x       y       z     vdW  Elec       q    Type
REMARK                         _______ _______ _______ _____ _____    ______ ____
ROOT
ATOM      1  O   UNL     1      10.672   7.102  21.138  0.00  0.00    -0.371 OA
ATOM      7  C   UNL     1      11.292   9.194  22.077  0.00  0.00    +0.111 C 
ATOM      8  C   UNL     1      12.417   8.698  21.188  0.00  0.00    +0.164 C 
ATOM      9  C   UNL     1      11.675   7.704  20.303  0.00  0.00    +0.165 C 
ATOM     10  C   UNL     1      10.508   7.912  22.314  0.00  0.00    +0.181 C 
ENDROOT
BRANCH   8   2
ATOM      2  O   UNL     1      13.012   9.735  20.431  0.00  0.00    -0.388 OA
ATOM     22  H   UNL     1      12.812  10.583  20.862  0.00  0.00    +0.210 HD
ENDBRANCH   8   2
BRANCH   7   4
ATOM      4  N   UNL     1      11.752   9.813  23.310  0.00  0.00    -0.307 NA
ATOM     21  H   UNL     1      12.728  10.093  23.218  0.00  0.00    +0.123 HD
BRANCH   4  12
ATOM     12  C   UNL     1      10.933  10.969  23.654  0.00  0.00    +0.048 C 
ATOM     13  C   UNL     1      11.303  11.455  25.051  0.00  0.00    +0.023 C 
ATOM     14  C   UNL     1      11.120  12.077  22.620  0.00  0.00    +0.023 C 
ENDBRANCH   4  12
ENDBRANCH   7   4
BRANCH   9  11
ATOM     11  C   UNL     1      12.576   6.628  19.724  0.00  0.00    +0.138 C 
BRANCH  11   5
ATOM      3  O   UNL     1      14.882   7.198  18.111  0.00  0.00    -0.270 OA
ATOM      5  N   UNL     1      13.927   6.775  20.183  0.00  0.00    -0.309 N 
ATOM     15  C   UNL     1      14.988   7.052  19.326  0.00  0.00    +0.244 C 
ATOM     23  H   UNL     1      14.095   6.600  21.168  0.00  0.00    +0.149 HD
BRANCH  15  16
ATOM      6  N   UNL     1      18.856   7.328  21.138  0.00  0.00    -0.263 NA
ATOM     16  C   UNL     1      16.331   7.148  19.953  0.00  0.00    +0.040 A 
ATOM     17  C   UNL     1      17.293   6.178  19.696  0.00  0.00    +0.033 A 
ATOM     18  C   UNL     1      16.630   8.209  20.802  0.00  0.00    +0.033 A 
ATOM     19  C   UNL     1      18.529   6.312  20.308  0.00  0.00    +0.111 A 
ATOM     20  C   UNL     1      17.896   8.253  21.365  0.00  0.00    +0.111 A 
ENDBRANCH  15  16
ENDBRANCH  11   5
ENDBRANCH   9  11
TORSDOF 6
ENDMDL
MODEL 2
REMARK VINA RESULT:      -6.0      3.105      4.319
REMARK  Name = 75536786
REMARK  8 active torsions:
REMARK  status: ('A' for Active; 'I' for Inactive)
REMARK    1  A    between atoms: O_2  and  C_8
REMARK    2  A    between atoms: N_4  and  C_7
REMARK    3  A    between atoms: N_4  and  C_12
REMARK    4  A    between atoms: N_5  and  C_11
REMARK    5  A    between atoms: C_9  and  C_11
REMARK    6  A    between atoms: C_12  and  C_13
REMARK    7  A    between atoms: C_12  and  C_14
REMARK    8  A    between atoms: C_15  and  C_16
REMARK                            x       y       z     vdW  Elec       q    Type
REMARK                         _______ _______ _______ _____ _____    ______ ____
ROOT
ATOM      1  O   UNL     1      13.140   8.290  21.962  0.00  0.00    -0.371 OA
ATOM      7  C   UNL     1      11.317   9.581  22.768  0.00  0.00    +0.111 C 
ATOM      8  C   UNL     1      10.779   8.436  21.929  0.00  0.00    +0.164 C 
ATOM      9  C   UNL     1      11.958   7.472  21.960  0.00  0.00    +0.165 C 
ATOM     10  C   UNL     1      12.767   9.633  22.313  0.00  0.00    +0.181 C 
ENDROOT
BRANCH   8   2
ATOM      2  O   UNL     1       9.611   7.858  22.479  0.00  0.00    -0.388 OA
ATOM     22  H   UNL     1       8.895   7.934  21.826  0.00  0.00    +0.210 HD
ENDBRANCH   8   2
BRANCH   7   4
ATOM      4  N   UNL     1      10.613  10.836  22.562  0.00  0.00    -0.307 NA
ATOM     21  H   UNL     1       9.639  10.743  22.849  0.00  0.00    +0.123 HD
BRANCH   4  12
ATOM     12  C   UNL     1      11.247  11.921  23.301  0.00  0.00    +0.048 C 
ATOM     13  C   UNL     1      10.734  13.259  22.779  0.00  0.00    +0.023 C 
ATOM     14  C   UNL     1      10.973  11.775  24.796  0.00  0.00    +0.023 C 
ENDBRANCH   4  12
ENDBRANCH   7   4
BRANCH   9  11
ATOM     11  C   UNL     1      11.989   6.526  20.773  0.00  0.00    +0.138 C 
BRANCH  11   5
ATOM      3  O   UNL     1      14.192   7.045  19.006  0.00  0.00    -0.270 OA
ATOM      5  N   UNL     1      11.941   7.243  19.532  0.00  0.00    -0.309 N 
ATOM     15  C   UNL     1      13.063   7.449  18.736  0.00  0.00    +0.244 C 
ATOM     23  H   UNL     1      11.051   7.662  19.283  0.00  0.00    +0.149 HD
BRANCH  15  16
ATOM      6  N   UNL     1      12.457   9.709  15.151  0.00  0.00    -0.263 NA
ATOM     16  C   UNL     1      12.852   8.235  17.493  0.00  0.00    +0.040 A 
ATOM     17  C   UNL     1      11.563   8.514  17.054  0.00  0.00    +0.033 A 
ATOM     18  C   UNL     1      13.944   8.692  16.763  0.00  0.00    +0.033 A 
ATOM     19  C   UNL     1      11.421   9.249  15.887  0.00  0.00    +0.111 A 
ATOM     20  C   UNL     1      13.696   9.418  15.609  0.00  0.00    +0.111 A 
ENDBRANCH  15  16
ENDBRANCH  11   5
ENDBRANCH   9  11
TORSDOF 6
ENDMDL
MODEL 3
REMARK VINA RESULT:      -5.7      1.838      6.920
REMARK  Name = 75536786
REMARK  8 active torsions:
REMARK  status: ('A' for Active; 'I' for Inactive)
REMARK    1  A    between atoms: O_2  and  C_8
REMARK    2  A    between atoms: N_4  and  C_7
REMARK    3  A    between atoms: N_4  and  C_12
REMARK    4  A    between atoms: N_5  and  C_11
REMARK    5  A    between atoms: C_9  and  C_11
REMARK    6  A    between atoms: C_12  and  C_13
REMARK    7  A    between atoms: C_12  and  C_14
REMARK    8  A    between atoms: C_15  and  C_16
REMARK                            x       y       z     vdW  Elec       q    Type
REMARK                         _______ _______ _______ _____ _____    ______ ____
ROOT
ATOM      1  O   UNL     1      17.269   6.041  18.941  0.00  0.00    -0.371 OA
ATOM      7  C   UNL     1      17.881   6.229  21.229  0.00  0.00    +0.111 C 
ATOM      8  C   UNL     1      16.516   6.862  21.028  0.00  0.00    +0.164 C 
ATOM      9  C   UNL     1      16.076   6.203  19.727  0.00  0.00    +0.165 C 
ATOM     10  C   UNL     1      18.409   6.195  19.804  0.00  0.00    +0.181 C 
ENDROOT
BRANCH   8   2
ATOM      2  O   UNL     1      15.623   6.581  22.088  0.00  0.00    -0.388 OA
ATOM     22  H   UNL     1      15.213   7.415  22.374  0.00  0.00    +0.210 HD
ENDBRANCH   8   2
BRANCH   7   4
ATOM      4  N   UNL     1      18.741   6.973  22.135  0.00  0.00    -0.307 NA
ATOM     21  H   UNL     1      18.704   6.565  23.068  0.00  0.00    +0.123 HD
BRANCH   4  12
ATOM     12  C   UNL     1      20.118   6.992  21.655  0.00  0.00    +0.048 C 
ATOM     13  C   UNL     1      20.658   8.417  21.717  0.00  0.00    +0.023 C 
ATOM     14  C   UNL     1      20.979   6.042  22.482  0.00  0.00    +0.023 C 
ENDBRANCH   4  12
ENDBRANCH   7   4
BRANCH   9  11
ATOM     11  C   UNL     1      15.059   7.023  18.953  0.00  0.00    +0.138 C 
BRANCH  11   5
ATOM      3  O   UNL     1      12.239   6.578  19.256  0.00  0.00    -0.270 OA
ATOM      5  N   UNL     1      14.172   7.722  19.837  0.00  0.00    -0.309 N 
ATOM     15  C   UNL     1      12.812   7.440  19.918  0.00  0.00    +0.244 C 
ATOM     23  H   UNL     1      14.568   8.493  20.364  0.00  0.00    +0.149 HD
BRANCH  15  16
ATOM      6  N   UNL     1      10.543   9.835  22.646  0.00  0.00    -0.263 NA
ATOM     16  C   UNL     1      12.023   8.272  20.863  0.00  0.00    +0.040 A 
ATOM     17  C   UNL     1      12.048   9.658  20.762  0.00  0.00    +0.033 A 
ATOM     18  C   UNL     1      11.258   7.666  21.854  0.00  0.00    +0.033 A 
ATOM     19  C   UNL     1      11.297  10.388  21.669  0.00  0.00    +0.111 A 
ATOM     20  C   UNL     1      10.543   8.485  22.714  0.00  0.00    +0.111 A 
ENDBRANCH  15  16
ENDBRANCH  11   5
ENDBRANCH   9  11
TORSDOF 6
ENDMDL
MODEL 4
REMARK VINA RESULT:      -5.6      3.566      7.630
REMARK  Name = 75536786
REMARK  8 active torsions:
REMARK  status: ('A' for Active; 'I' for Inactive)
REMARK    1  A    between atoms: O_2  and  C_8
REMARK    2  A    between atoms: N_4  and  C_7
REMARK    3  A    between atoms: N_4  and  C_12
REMARK    4  A    between atoms: N_5  and  C_11
REMARK    5  A    between atoms: C_9  and  C_11
REMARK    6  A    between atoms: C_12  and  C_13
REMARK    7  A    between atoms: C_12  and  C_14
REMARK    8  A    between atoms: C_15  and  C_16
REMARK                            x       y       z     vdW  Elec       q    Type
REMARK                         _______ _______ _______ _____ _____    ______ ____
ROOT
ATOM      1  O   UNL     1      17.246   7.614  21.102  0.00  0.00    -0.371 OA
ATOM      7  C   UNL     1      19.010   6.370  20.111  0.00  0.00    +0.111 C 
ATOM      8  C   UNL     1      17.682   5.799  19.647  0.00  0.00    +0.164 C 
ATOM      9  C   UNL     1      16.750   6.974  19.913  0.00  0.00    +0.165 C 
ATOM     10  C   UNL     1      18.587   7.156  21.342  0.00  0.00    +0.181 C 
ENDROOT
BRANCH   8   2
ATOM      2  O   UNL     1      17.692   5.434  18.281  0.00  0.00    -0.388 OA
ATOM     22  H   UNL     1      18.615   5.317  18.001  0.00  0.00    +0.210 HD
ENDBRANCH   8   2
BRANCH   7   4
ATOM      4  N   UNL     1      20.011   5.356  20.402  0.00  0.00    -0.307 NA
ATOM     21  H   UNL     1      20.424   5.012  19.535  0.00  0.00    +0.123 HD
BRANCH   4  12
ATOM     12  C   UNL     1      21.053   5.883  21.274  0.00  0.00    +0.048 C 
ATOM     13  C   UNL     1      21.615   4.754  22.133  0.00  0.00    +0.023 C 
ATOM     14  C   UNL     1      22.154   6.540  20.446  0.00  0.00    +0.023 C 
ENDBRANCH   4  12
ENDBRANCH   7   4
BRANCH   9  11
ATOM     11  C   UNL     1      15.304   6.559  20.119  0.00  0.00    +0.138 C 
BRANCH  11   5
ATOM      3  O   UNL     1      14.022   9.119  19.909  0.00  0.00    -0.270 OA
ATOM      5  N   UNL     1      14.473   7.015  19.043  0.00  0.00    -0.309 N 
ATOM     15  C   UNL     1      13.889   8.278  19.024  0.00  0.00    +0.244 C 
ATOM     23  H   UNL     1      14.266   6.343  18.311  0.00  0.00    +0.149 HD
BRANCH  15  16
ATOM      6  N   UNL     1      11.419   9.179  15.646  0.00  0.00    -0.263 NA
ATOM     16  C   UNL     1      13.032   8.589  17.851  0.00  0.00    +0.040 A 
ATOM     17  C   UNL     1      13.595   9.126  16.699  0.00  0.00    +0.033 A 
ATOM     18  C   UNL     1      11.664   8.346  17.902  0.00  0.00    +0.033 A 
ATOM     19  C   UNL     1      12.753   9.401  15.633  0.00  0.00    +0.111 A 
ATOM     20  C   UNL     1      10.908   8.656  16.783  0.00  0.00    +0.111 A 
ENDBRANCH  15  16
ENDBRANCH  11   5
ENDBRANCH   9  11
TORSDOF 6
ENDMDL
MODEL 5
REMARK VINA RESULT:      -5.5     25.662     27.364
REMARK  Name = 75536786
REMARK  8 active torsions:
REMARK  status: ('A' for Active; 'I' for Inactive)
REMARK    1  A    between atoms: O_2  and  C_8
REMARK    2  A    between atoms: N_4  and  C_7
REMARK    3  A    between atoms: N_4  and  C_12
REMARK    4  A    between atoms: N_5  and  C_11
REMARK    5  A    between atoms: C_9  and  C_11
REMARK    6  A    between atoms: C_12  and  C_13
REMARK    7  A    between atoms: C_12  and  C_14
REMARK    8  A    between atoms: C_15  and  C_16
REMARK                            x       y       z     vdW  Elec       q    Type
REMARK                         _______ _______ _______ _____ _____    ______ ____
ROOT
ATOM      1  O   UNL     1      -1.348 -11.295  14.936  0.00  0.00    -0.371 OA
ATOM      7  C   UNL     1      -3.511 -10.904  15.836  0.00  0.00    +0.111 C 
ATOM      8  C   UNL     1      -3.599 -10.902  14.321  0.00  0.00    +0.164 C 
ATOM      9  C   UNL     1      -2.331 -11.663  13.953  0.00  0.00    +0.165 C 
ATOM     10  C   UNL     1      -2.021 -10.689  16.052  0.00  0.00    +0.181 C 
ENDROOT
BRANCH   8   2
ATOM      2  O   UNL     1      -4.760 -11.550  13.840  0.00  0.00    -0.388 OA
ATOM     22  H   UNL     1      -5.043 -11.106  13.023  0.00  0.00    +0.210 HD
ENDBRANCH   8   2
BRANCH   7   4
ATOM      4  N   UNL     1      -4.329  -9.882  16.469  0.00  0.00    -0.307 NA
ATOM     21  H   UNL     1      -4.578  -9.163  15.790  0.00  0.00    +0.123 HD
BRANCH   4  12
ATOM     12  C   UNL     1      -5.536 -10.459  17.047  0.00  0.00    +0.048 C 
ATOM     13  C   UNL     1      -5.327 -10.680  18.542  0.00  0.00    +0.023 C 
ATOM     14  C   UNL     1      -6.734  -9.549  16.790  0.00  0.00    +0.023 C 
ENDBRANCH   4  12
ENDBRANCH   7   4
BRANCH   9  11
ATOM     11  C   UNL     1      -1.816 -11.335  12.563  0.00  0.00    +0.138 C 
BRANCH  11   5
ATOM      3  O   UNL     1      -1.793  -9.139  10.714  0.00  0.00    -0.270 OA
ATOM      5  N   UNL     1      -2.884 -10.939  11.692  0.00  0.00    -0.309 N 
ATOM     15  C   UNL     1      -2.785  -9.855  10.824  0.00  0.00    +0.244 C 
ATOM     23  H   UNL     1      -3.757 -11.446  11.781  0.00  0.00    +0.149 HD
BRANCH  15  16
ATOM      6  N   UNL     1      -6.250  -8.991   8.463  0.00  0.00    -0.263 NA
ATOM     16  C   UNL     1      -3.989  -9.557  10.005  0.00  0.00    +0.040 A 
ATOM     17  C   UNL     1      -4.303 -10.353   8.910  0.00  0.00    +0.033 A 
ATOM     18  C   UNL     1      -4.804  -8.478  10.331  0.00  0.00    +0.033 A 
ATOM     19  C   UNL     1      -5.435 -10.031   8.178  0.00  0.00    +0.111 A 
ATOM     20  C   UNL     1      -5.913  -8.239   9.535  0.00  0.00    +0.111 A 
ENDBRANCH  15  16
ENDBRANCH  11   5
ENDBRANCH   9  11
TORSDOF 6
ENDMDL
MODEL 6
REMARK VINA RESULT:      -5.5      1.597      2.247
REMARK  Name = 75536786
REMARK  8 active torsions:
REMARK  status: ('A' for Active; 'I' for Inactive)
REMARK    1  A    between atoms: O_2  and  C_8
REMARK    2  A    between atoms: N_4  and  C_7
REMARK    3  A    between atoms: N_4  and  C_12
REMARK    4  A    between atoms: N_5  and  C_11
REMARK    5  A    between atoms: C_9  and  C_11
REMARK    6  A    between atoms: C_12  and  C_13
REMARK    7  A    between atoms: C_12  and  C_14
REMARK    8  A    between atoms: C_15  and  C_16
REMARK                            x       y       z     vdW  Elec       q    Type
REMARK                         _______ _______ _______ _____ _____    ______ ____
ROOT
ATOM      1  O   UNL     1      12.542   7.664  19.766  0.00  0.00    -0.371 OA
ATOM      7  C   UNL     1      12.194   9.007  21.694  0.00  0.00    +0.111 C 
ATOM      8  C   UNL     1      13.466   8.200  21.878  0.00  0.00    +0.164 C 
ATOM      9  C   UNL     1      13.802   7.851  20.433  0.00  0.00    +0.165 C 
ATOM     10  C   UNL     1      11.504   8.235  20.581  0.00  0.00    +0.181 C 
ENDROOT
BRANCH   8   2
ATOM      2  O   UNL     1      14.500   8.941  22.495  0.00  0.00    -0.388 OA
ATOM     22  H   UNL     1      15.090   8.321  22.955  0.00  0.00    +0.210 HD
ENDBRANCH   8   2
BRANCH   7   4
ATOM      4  N   UNL     1      11.388   9.107  22.900  0.00  0.00    -0.307 NA
ATOM     21  H   UNL     1      11.948   8.868  23.717  0.00  0.00    +0.123 HD
BRANCH   4  12
ATOM     12  C   UNL     1      10.833  10.447  23.051  0.00  0.00    +0.048 C 
ATOM     13  C   UNL     1      11.109  10.953  24.463  0.00  0.00    +0.023 C 
ATOM     14  C   UNL     1      11.428  11.387  22.006  0.00  0.00    +0.023 C 
ENDBRANCH   4  12
ENDBRANCH   7   4
BRANCH   9  11
ATOM     11  C   UNL     1      14.645   6.595  20.300  0.00  0.00    +0.138 C 
BRANCH  11   5
ATOM      3  O   UNL     1      17.092   5.908  18.963  0.00  0.00    -0.270 OA
ATOM      5  N   UNL     1      15.976   6.806  20.790  0.00  0.00    -0.309 N 
ATOM     15  C   UNL     1      17.110   6.440  20.071  0.00  0.00    +0.244 C 
ATOM     23  H   UNL     1      16.062   7.179  21.729  0.00  0.00    +0.149 HD
BRANCH  15  16
ATOM      6  N   UNL     1      20.878   7.194  21.958  0.00  0.00    -0.263 NA
ATOM     16  C   UNL     1      18.417   6.701  20.728  0.00  0.00    +0.040 A 
ATOM     17  C   UNL     1      18.560   7.779  21.594  0.00  0.00    +0.033 A 
ATOM     18  C   UNL     1      19.503   5.869  20.476  0.00  0.00    +0.033 A 
ATOM     19  C   UNL     1      19.800   7.980  22.179  0.00  0.00    +0.111 A 
ATOM     20  C   UNL     1      20.701   6.156  21.110  0.00  0.00    +0.111 A 
ENDBRANCH  15  16
ENDBRANCH  11   5
ENDBRANCH   9  11
TORSDOF 6
ENDMDL
MODEL 7
REMARK VINA RESULT:      -5.3     25.500     27.695
REMARK  Name = 75536786
REMARK  8 active torsions:
REMARK  status: ('A' for Active; 'I' for Inactive)
REMARK    1  A    between atoms: O_2  and  C_8
REMARK    2  A    between atoms: N_4  and  C_7
REMARK    3  A    between atoms: N_4  and  C_12
REMARK    4  A    between atoms: N_5  and  C_11
REMARK    5  A    between atoms: C_9  and  C_11
REMARK    6  A    between atoms: C_12  and  C_13
REMARK    7  A    between atoms: C_12  and  C_14
REMARK    8  A    between atoms: C_15  and  C_16
REMARK                            x       y       z     vdW  Elec       q    Type
REMARK                         _______ _______ _______ _____ _____    ______ ____
ROOT
ATOM      1  O   UNL     1      -8.656 -10.953  18.798  0.00  0.00    -0.371 OA
ATOM      7  C   UNL     1      -9.283  -9.120  17.424  0.00  0.00    +0.111 C 
ATOM      8  C   UNL     1      -7.778  -9.300  17.351  0.00  0.00    +0.164 C 
ATOM      9  C   UNL     1      -7.633 -10.745  17.809  0.00  0.00    +0.165 C 
ATOM     10  C   UNL     1      -9.618  -9.890  18.691  0.00  0.00    +0.181 C 
ENDROOT
BRANCH   8   2
ATOM      2  O   UNL     1      -7.267  -9.107  16.047  0.00  0.00    -0.388 OA
ATOM     22  H   UNL     1      -7.335  -9.947  15.563  0.00  0.00    +0.210 HD
ENDBRANCH   8   2
BRANCH   7   4
ATOM      4  N   UNL     1      -9.702  -7.729  17.478  0.00  0.00    -0.307 NA
ATOM     21  H   UNL     1      -8.920  -7.138  17.758  0.00  0.00    +0.123 HD
BRANCH   4  12
ATOM     12  C   UNL     1     -10.222  -7.287  16.189  0.00  0.00    +0.048 C 
ATOM     13  C   UNL     1     -10.877  -8.465  15.475  0.00  0.00    +0.023 C 
ATOM     14  C   UNL     1     -11.215  -6.143  16.383  0.00  0.00    +0.023 C 
ENDBRANCH   4  12
ENDBRANCH   7   4
BRANCH   9  11
ATOM     11  C   UNL     1      -6.271 -11.052  18.406  0.00  0.00    +0.138 C 
BRANCH  11   5
ATOM      3  O   UNL     1      -4.796 -12.812  16.682  0.00  0.00    -0.270 OA
ATOM      5  N   UNL     1      -5.214 -10.685  17.510  0.00  0.00    -0.309 N 
ATOM     15  C   UNL     1      -4.551 -11.608  16.708  0.00  0.00    +0.244 C 
ATOM     23  H   UNL     1      -4.915  -9.716  17.531  0.00  0.00    +0.149 HD
BRANCH  15  16
ATOM      6  N   UNL     1      -1.405 -10.071  14.245  0.00  0.00    -0.263 NA
ATOM     16  C   UNL     1      -3.460 -11.073  15.853  0.00  0.00    +0.040 A 
ATOM     17  C   UNL     1      -3.651 -10.934  14.482  0.00  0.00    +0.033 A 
ATOM     18  C   UNL     1      -2.243 -10.711  16.420  0.00  0.00    +0.033 A 
ATOM     19  C   UNL     1      -2.602 -10.433  13.729  0.00  0.00    +0.111 A 
ATOM     20  C   UNL     1      -1.256 -10.220  15.580  0.00  0.00    +0.111 A 
ENDBRANCH  15  16
ENDBRANCH  11   5
ENDBRANCH   9  11
TORSDOF 6
ENDMDL
MODEL 8
REMARK VINA RESULT:      -5.3      4.612      9.794
REMARK  Name = 75536786
REMARK  8 active torsions:
REMARK  status: ('A' for Active; 'I' for Inactive)
REMARK    1  A    between atoms: O_2  and  C_8
REMARK    2  A    between atoms: N_4  and  C_7
REMARK    3  A    between atoms: N_4  and  C_12
REMARK    4  A    between atoms: N_5  and  C_11
REMARK    5  A    between atoms: C_9  and  C_11
REMARK    6  A    between atoms: C_12  and  C_13
REMARK    7  A    between atoms: C_12  and  C_14
REMARK    8  A    between atoms: C_15  and  C_16
REMARK                            x       y       z     vdW  Elec       q    Type
REMARK                         _______ _______ _______ _____ _____    ______ ____
ROOT
ATOM      1  O   UNL     1      22.367   6.034  22.875  0.00  0.00    -0.371 OA
ATOM      7  C   UNL     1      22.573   4.536  21.043  0.00  0.00    +0.111 C 
ATOM      8  C   UNL     1      21.119   4.947  21.184  0.00  0.00    +0.164 C 
ATOM      9  C   UNL     1      21.255   6.235  21.986  0.00  0.00    +0.165 C 
ATOM     10  C   UNL     1      23.124   4.903  22.412  0.00  0.00    +0.181 C 
ENDROOT
BRANCH   8   2
ATOM      2  O   UNL     1      20.490   5.167  19.937  0.00  0.00    -0.388 OA
ATOM     22  H   UNL     1      21.159   5.485  19.308  0.00  0.00    +0.210 HD
ENDBRANCH   8   2
BRANCH   7   4
ATOM      4  N   UNL     1      22.753   3.131  20.718  0.00  0.00    -0.307 NA
ATOM     21  H   UNL     1      22.457   2.952  19.759  0.00  0.00    +0.123 HD
BRANCH   4  12
ATOM     12  C   UNL     1      24.143   2.725  20.894  0.00  0.00    +0.048 C 
ATOM     13  C   UNL     1      24.202   1.230  21.188  0.00  0.00    +0.023 C 
ATOM     14  C   UNL     1      24.956   3.071  19.649  0.00  0.00    +0.023 C 
ENDBRANCH   4  12
ENDBRANCH   7   4
BRANCH   9  11
ATOM     11  C   UNL     1      20.012   6.578  22.787  0.00  0.00    +0.138 C 
BRANCH  11   5
ATOM      3  O   UNL     1      18.780   8.990  21.834  0.00  0.00    -0.270 OA
ATOM      5  N   UNL     1      18.857   6.673  21.942  0.00  0.00    -0.309 N 
ATOM     15  C   UNL     1      18.325   7.891  21.527  0.00  0.00    +0.244 C 
ATOM     23  H   UNL     1      18.391   5.804  21.707  0.00  0.00    +0.149 HD
BRANCH  15  16
ATOM      6  N   UNL     1      14.820   7.687  19.078  0.00  0.00    -0.263 NA
ATOM     16  C   UNL     1      17.109   7.821  20.676  0.00  0.00    +0.040 A 
ATOM     17  C   UNL     1      16.289   8.935  20.538  0.00  0.00    +0.033 A 
ATOM     18  C   UNL     1      16.788   6.641  20.015  0.00  0.00    +0.033 A 
ATOM     19  C   UNL     1      15.166   8.817  19.735  0.00  0.00    +0.111 A 
ATOM     20  C   UNL     1      15.642   6.625  19.235  0.00  0.00    +0.111 A 
ENDBRANCH  15  16
ENDBRANCH  11   5
ENDBRANCH   9  11
TORSDOF 6
ENDMDL
MODEL 9
REMARK VINA RESULT:      -5.2      3.997      8.225
REMARK  Name = 75536786
REMARK  8 active torsions:
REMARK  status: ('A' for Active; 'I' for Inactive)
REMARK    1  A    between atoms: O_2  and  C_8
REMARK    2  A    between atoms: N_4  and  C_7
REMARK    3  A    between atoms: N_4  and  C_12
REMARK    4  A    between atoms: N_5  and  C_11
REMARK    5  A    between atoms: C_9  and  C_11
REMARK    6  A    between atoms: C_12  and  C_13
REMARK    7  A    between atoms: C_12  and  C_14
REMARK    8  A    between atoms: C_15  and  C_16
REMARK                            x       y       z     vdW  Elec       q    Type
REMARK                         _______ _______ _______ _____ _____    ______ ____
ROOT
ATOM      1  O   UNL     1      19.333   7.313  21.688  0.00  0.00    -0.371 OA
ATOM      7  C   UNL     1      20.382   5.656  20.348  0.00  0.00    +0.111 C 
ATOM      8  C   UNL     1      18.877   5.511  20.225  0.00  0.00    +0.164 C 
ATOM      9  C   UNL     1      18.412   6.892  20.668  0.00  0.00    +0.165 C 
ATOM     10  C   UNL     1      20.503   6.479  21.621  0.00  0.00    +0.181 C 
ENDROOT
BRANCH   8   2
ATOM      2  O   UNL     1      18.463   5.213  18.906  0.00  0.00    -0.388 OA
ATOM     22  H   UNL     1      18.828   5.889  18.310  0.00  0.00    +0.210 HD
ENDBRANCH   8   2
BRANCH   7   4
ATOM      4  N   UNL     1      21.086   4.386  20.426  0.00  0.00    -0.307 NA
ATOM     21  H   UNL     1      21.425   4.116  19.503  0.00  0.00    +0.123 HD
BRANCH   4  12
ATOM     12  C   UNL     1      22.201   4.460  21.363  0.00  0.00    +0.048 C 
ATOM     13  C   UNL     1      22.187   3.232  22.267  0.00  0.00    +0.023 C 
ATOM     14  C   UNL     1      23.522   4.569  20.606  0.00  0.00    +0.023 C 
ENDBRANCH   4  12
ENDBRANCH   7   4
BRANCH   9  11
ATOM     11  C   UNL     1      16.997   6.902  21.217  0.00  0.00    +0.138 C 
BRANCH  11   5
ATOM      3  O   UNL     1      15.661   6.133  18.795  0.00  0.00    -0.270 OA
ATOM      5  N   UNL     1      16.133   7.722  20.419  0.00  0.00    -0.309 N 
ATOM     15  C   UNL     1      15.525   7.265  19.253  0.00  0.00    +0.244 C 
ATOM     23  H   UNL     1      16.032   8.690  20.704  0.00  0.00    +0.149 HD
BRANCH  15  16
ATOM      6  N   UNL     1      13.083  10.087  17.157  0.00  0.00    -0.263 NA
ATOM     16  C   UNL     1      14.679   8.245  18.525  0.00  0.00    +0.040 A 
ATOM     17  C   UNL     1      14.710   9.590  18.876  0.00  0.00    +0.033 A 
ATOM     18  C   UNL     1      13.852   7.820  17.491  0.00  0.00    +0.033 A 
ATOM     19  C   UNL     1      13.900  10.463  18.167  0.00  0.00    +0.111 A 
ATOM     20  C   UNL     1      13.080   8.772  16.844  0.00  0.00    +0.111 A 
ENDBRANCH  15  16
ENDBRANCH  11   5
ENDBRANCH   9  11
TORSDOF 6
ENDMDL
MODEL 10
REMARK VINA RESULT:      -5.2     26.448     27.788
REMARK  Name = 75536786
REMARK  8 active torsions:
REMARK  status: ('A' for Active; 'I' for Inactive)
REMARK    1  A    between atoms: O_2  and  C_8
REMARK    2  A    between atoms: N_4  and  C_7
REMARK    3  A    between atoms: N_4  and  C_12
REMARK    4  A    between atoms: N_5  and  C_11
REMARK    5  A    between atoms: C_9  and  C_11
REMARK    6  A    between atoms: C_12  and  C_13
REMARK    7  A    between atoms: C_12  and  C_14
REMARK    8  A    between atoms: C_15  and  C_16
REMARK                            x       y       z     vdW  Elec       q    Type
REMARK                         _______ _______ _______ _____ _____    ______ ____
ROOT
ATOM      1  O   UNL     1      -6.814 -11.158  18.387  0.00  0.00    -0.371 OA
ATOM      7  C   UNL     1      -8.591  -9.785  17.612  0.00  0.00    +0.111 C 
ATOM      8  C   UNL     1      -7.314  -9.394  16.892  0.00  0.00    +0.164 C 
ATOM      9  C   UNL     1      -6.472 -10.648  17.087  0.00  0.00    +0.165 C 
ATOM     10  C   UNL     1      -8.041 -10.540  18.812  0.00  0.00    +0.181 C 
ENDROOT
BRANCH   8   2
ATOM      2  O   UNL     1      -7.524  -9.109  15.523  0.00  0.00    -0.388 OA
ATOM     22  H   UNL     1      -7.378  -9.924  15.013  0.00  0.00    +0.210 HD
ENDBRANCH   8   2
BRANCH   7   4
ATOM      4  N   UNL     1      -9.419  -8.651  17.988  0.00  0.00    -0.307 NA
ATOM     21  H   UNL     1      -8.886  -7.785  17.906  0.00  0.00    +0.123 HD
BRANCH   4  12
ATOM     12  C   UNL     1     -10.617  -8.578  17.161  0.00  0.00    +0.048 C 
ATOM     13  C   UNL     1     -11.791  -9.198  17.911  0.00  0.00    +0.023 C 
ATOM     14  C   UNL     1     -10.912  -7.129  16.783  0.00  0.00    +0.023 C 
ENDBRANCH   4  12
ENDBRANCH   7   4
BRANCH   9  11
ATOM     11  C   UNL     1      -4.978 -10.385  17.015  0.00  0.00    +0.138 C 
BRANCH  11   5
ATOM      3  O   UNL     1      -3.452 -12.164  15.356  0.00  0.00    -0.270 OA
ATOM      5  N   UNL     1      -4.554 -10.146  15.666  0.00  0.00    -0.309 N 
ATOM     15  C   UNL     1      -3.814 -11.069  14.934  0.00  0.00    +0.244 C 
ATOM     23  H   UNL     1      -4.761  -9.232  15.279  0.00  0.00    +0.149 HD
BRANCH  15  16
ATOM      6  N   UNL     1      -2.709  -9.885  10.971  0.00  0.00    -0.263 NA
ATOM     16  C   UNL     1      -3.430 -10.660  13.558  0.00  0.00    +0.040 A 
ATOM     17  C   UNL     1      -2.088 -10.566  13.206  0.00  0.00    +0.033 A 
ATOM     18  C   UNL     1      -4.412 -10.367  12.618  0.00  0.00    +0.033 A 
ATOM     19  C   UNL     1      -1.783 -10.178  11.912  0.00  0.00    +0.111 A 
ATOM     20  C   UNL     1      -4.003  -9.987  11.349  0.00  0.00    +0.111 A 
ENDBRANCH  15  16
ENDBRANCH  11   5
ENDBRANCH   9  11
TORSDOF 6
ENDMDL
