REMARK  Name = 11882109
REMARK  11 active torsions:
REMARK  status: ('A' for Active; 'I' for Inactive)
REMARK    1  A    between atoms: N_6  and  C_12
REMARK    2  A    between atoms: N_7  and  C_18
REMARK    3  A    between atoms: N_8  and  C_30
REMARK    4  A    between atoms: N_9  and  C_25
REMARK    5  A    between atoms: C_13  and  C_16
REMARK    6  A    between atoms: C_17  and  C_19
REMARK    7  A    between atoms: C_18  and  C_21
REMARK    8  A    between atoms: C_18  and  C_24
REMARK    9  A    between atoms: C_21  and  C_22
REMARK   10  A    between atoms: C_25  and  C_32
REMARK   11  A    between atoms: C_25  and  C_33
REMARK                            x       y       z     vdW  Elec       q    Type
REMARK                         _______ _______ _______ _____ _____    ______ ____
ROOT
ATOM      2  O   UNL     1       3.242  -0.639   1.526  0.00  0.00    -0.268 OA
ATOM      5  N   UNL     1       2.289   0.549  -0.207  0.00  0.00    -0.283 N 
ATOM     12  C   UNL     1       0.041   1.063  -0.761  0.00  0.00    +0.105 C 
ATOM     13  C   UNL     1       0.919   0.130   0.074  0.00  0.00    +0.182 C 
ATOM     14  C   UNL     1       0.941   1.431  -1.943  0.00  0.00    +0.043 C 
ATOM     15  C   UNL     1       2.335   1.485  -1.331  0.00  0.00    +0.111 C 
ATOM     17  C   UNL     1       3.365   0.157   0.594  0.00  0.00    +0.264 C 
ENDROOT
BRANCH  12   6
ATOM      3  O   UNL     1      -2.303   2.700  -1.152  0.00  0.00    -0.253 OA
ATOM      6  N   UNL     1      -0.334   2.238  -0.010  0.00  0.00    -0.294 N 
ATOM      9  N   UNL     1      -1.608   4.052   0.602  0.00  0.00    -0.297 N 
ATOM     20  C   UNL     1      -1.490   2.971  -0.269  0.00  0.00    +0.300 C 
ATOM     38  H   UNL     1       0.306   2.585   0.697  0.00  0.00    +0.151 HD
ATOM     40  H   UNL     1      -0.848   4.236   1.250  0.00  0.00    +0.150 HD
BRANCH   9  25
ATOM     25  C   UNL     1      -2.715   4.978   0.553  0.00  0.00    +0.068 C 
ATOM     32  C   UNL     1      -2.412   6.115  -0.415  0.00  0.00    +0.027 C 
ATOM     33  C   UNL     1      -3.029   5.508   1.947  0.00  0.00    +0.027 C 
ENDBRANCH   9  25
ENDBRANCH  12   6
BRANCH  17  19
ATOM      8  N   UNL     1       5.767  -0.018  -0.094  0.00  0.00    -0.346 N 
ATOM     19  C   UNL     1       4.667   0.720   0.256  0.00  0.00    +0.104 A 
ATOM     23  C   UNL     1       5.024   2.050   0.226  0.00  0.00    +0.032 A 
ATOM     27  C   UNL     1       6.821   0.821  -0.348  0.00  0.00    +0.086 A 
ATOM     28  C   UNL     1       6.387   2.114  -0.156  0.00  0.00    +0.020 A 
ATOM     30  C   UNL     1       5.824  -1.460  -0.188  0.00  0.00    +0.149 C 
ENDBRANCH  17  19
BRANCH  13  16
ATOM      1  O   UNL     1       1.453  -1.722  -1.336  0.00  0.00    -0.274 OA
ATOM      7  N   UNL     1      -0.132  -2.006   0.345  0.00  0.00    -0.302 N 
ATOM     16  C   UNL     1       0.797  -1.291  -0.391  0.00  0.00    +0.236 C 
ATOM     39  H   UNL     1      -0.540  -1.573   1.167  0.00  0.00    +0.150 HD
BRANCH   7  18
ATOM     18  C   UNL     1      -0.452  -3.390   0.083  0.00  0.00    +0.163 C 
BRANCH  18  24
ATOM      4  O   UNL     1       1.006  -3.924   1.953  0.00  0.00    -0.274 OA
ATOM     11  N   UNL     1       0.857  -5.418   0.215  0.00  0.00    -0.328 N 
ATOM     24  C   UNL     1       0.550  -4.236   0.855  0.00  0.00    +0.231 C 
ATOM     42  H   UNL     1       0.455  -5.673  -0.682  0.00  0.00    +0.145 HD
ATOM     43  H   UNL     1       1.504  -6.082   0.628  0.00  0.00    +0.145 HD
ENDBRANCH  18  24
BRANCH  18  21
ATOM     21  C   UNL     1      -1.885  -3.744   0.500  0.00  0.00    +0.069 C 
BRANCH  21  22
ATOM     10  N   UNL     1      -4.413  -2.244  -1.708  0.00  0.00    -0.360 N 
ATOM     22  C   UNL     1      -2.925  -2.921  -0.206  0.00  0.00    -0.020 A 
ATOM     26  C   UNL     1      -3.461  -1.677   0.229  0.00  0.00    +0.003 A 
ATOM     29  C   UNL     1      -3.530  -3.244  -1.399  0.00  0.00    +0.087 A 
ATOM     31  C   UNL     1      -4.392  -1.274  -0.731  0.00  0.00    +0.047 A 
ATOM     34  C   UNL     1      -3.242  -0.852   1.350  0.00  0.00    +0.010 A 
ATOM     35  C   UNL     1      -5.118  -0.083  -0.625  0.00  0.00    +0.026 A 
ATOM     36  C   UNL     1      -3.962   0.343   1.469  0.00  0.00    +0.001 A 
ATOM     37  C   UNL     1      -4.885   0.719   0.496  0.00  0.00    +0.002 A 
ATOM     41  H   UNL     1      -4.996  -2.221  -2.533  0.00  0.00    +0.165 HD
ENDBRANCH  21  22
ENDBRANCH  18  21
ENDBRANCH   7  18
ENDBRANCH  13  16
TORSDOF 8
