REMARK  Name = 11865665
REMARK  7 active torsions:
REMARK  status: ('A' for Active; 'I' for Inactive)
REMARK    1  A    between atoms: O_1  and  C_17
REMARK    2  A    between atoms: O_2  and  C_18
REMARK    3  A    between atoms: N_6  and  C_10
REMARK    4  A    between atoms: N_7  and  C_16
REMARK    5  A    between atoms: N_8  and  C_24
REMARK    6  A    between atoms: C_21  and  C_23
REMARK    7  A    between atoms: C_24  and  C_25
REMARK                            x       y       z     vdW  Elec       q    Type
REMARK                         _______ _______ _______ _____ _____    ______ ____
ROOT
ATOM     16  C   UNL     1       0.181  -1.477   0.370  0.00  0.00    +0.129 C 
ATOM     17  C   UNL     1       0.392  -2.760  -0.456  0.00  0.00    +0.167 C 
ATOM     18  C   UNL     1       1.774  -3.374  -0.198  0.00  0.00    +0.149 C 
ATOM     19  C   UNL     1       2.911  -2.374  -0.468  0.00  0.00    +0.074 C 
ATOM     20  C   UNL     1       1.375  -0.561   0.361  0.00  0.00    +0.006 C 
ATOM     21  C   UNL     1       2.591  -0.974  -0.024  0.00  0.00    +0.015 C 
ENDROOT
BRANCH  16   7
ATOM      3  O   UNL     1      -2.539  -1.786   1.283  0.00  0.00    -0.253 OA
ATOM      6  N   UNL     1      -3.185  -0.110  -0.186  0.00  0.00    -0.297 N 
ATOM      7  N   UNL     1      -0.975  -0.740  -0.079  0.00  0.00    -0.291 N 
ATOM     22  C   UNL     1      -2.259  -0.956   0.419  0.00  0.00    +0.300 C 
ATOM     26  H   UNL     1      -2.840   0.593  -0.833  0.00  0.00    +0.151 HD
ATOM     27  H   UNL     1      -0.862  -0.067  -0.831  0.00  0.00    +0.151 HD
BRANCH   6  10
ATOM     10  C   UNL     1      -4.593  -0.123   0.146  0.00  0.00    +0.074 C 
ATOM     11  C   UNL     1      -4.889   0.806   1.327  0.00  0.00    +0.022 C 
ATOM     12  C   UNL     1      -5.450   0.236  -1.073  0.00  0.00    +0.022 C 
ATOM     13  C   UNL     1      -4.784   2.284   0.950  0.00  0.00    +0.002 C 
ATOM     14  C   UNL     1      -5.343   1.715  -1.446  0.00  0.00    +0.002 C 
ATOM     15  C   UNL     1      -5.654   2.620  -0.258  0.00  0.00    +0.000 C 
ENDBRANCH   6  10
ENDBRANCH  16   7
BRANCH  21  23
ATOM      4  O   UNL     1       4.677  -0.181   0.710  0.00  0.00    -0.271 OA
ATOM      8  N   UNL     1       3.449   1.102  -0.800  0.00  0.00    -0.303 N 
ATOM     23  C   UNL     1       3.681   0.005   0.011  0.00  0.00    +0.240 C 
ATOM     30  H   UNL     1       2.590   1.155  -1.341  0.00  0.00    +0.150 HD
BRANCH   8  24
ATOM     24  C   UNL     1       4.379   2.200  -0.929  0.00  0.00    +0.200 C 
BRANCH  24  25
ATOM      5  O   UNL     1       3.126   3.189   0.892  0.00  0.00    -0.274 OA
ATOM      9  N   UNL     1       4.938   4.323   0.045  0.00  0.00    -0.328 N 
ATOM     25  C   UNL     1       4.070   3.254   0.110  0.00  0.00    +0.228 C 
ATOM     31  H   UNL     1       4.840   5.113   0.675  0.00  0.00    +0.145 HD
ATOM     32  H   UNL     1       5.703   4.361  -0.621  0.00  0.00    +0.145 HD
ENDBRANCH  24  25
ENDBRANCH   8  24
ENDBRANCH  21  23
BRANCH  17   1
ATOM      1  O   UNL     1       0.276  -2.459  -1.849  0.00  0.00    -0.387 OA
ATOM     28  H   UNL     1       0.385  -3.292  -2.338  0.00  0.00    +0.210 HD
ENDBRANCH  17   1
BRANCH  18   2
ATOM      2  O   UNL     1       1.854  -3.857   1.141  0.00  0.00    -0.389 OA
ATOM     29  H   UNL     1       2.724  -4.277   1.251  0.00  0.00    +0.210 HD
ENDBRANCH  18   2
TORSDOF 7
