MODEL 1
REMARK VINA RESULT:      -6.1      0.000      0.000
REMARK  Name = 56775508
REMARK  9 active torsions:
REMARK  status: ('A' for Active; 'I' for Inactive)
REMARK    1  A    between atoms: O_3  and  C_20
REMARK    2  A    between atoms: N_4  and  C_6
REMARK    3  A    between atoms: N_4  and  C_8
REMARK    4  A    between atoms: C_6  and  C_13
REMARK    5  A    between atoms: C_7  and  C_8
REMARK    6  A    between atoms: C_13  and  C_17
REMARK    7  A    between atoms: C_19  and  C_20
REMARK    8  A    between atoms: C_20  and  C_21
REMARK    9  A    between atoms: C_20  and  C_22
REMARK                            x       y       z     vdW  Elec       q    Type
REMARK                         _______ _______ _______ _____ _____    ______ ____
ROOT
ATOM      1  O   UNL     1      13.137   9.575  21.656  0.00  0.00    -0.376 OA
ATOM      6  C   UNL     1      13.560   8.865  19.687  0.00  0.00    +0.072 C 
ATOM      9  C   UNL     1      13.641  10.185  20.446  0.00  0.00    +0.184 C 
ATOM     10  C   UNL     1      13.125   8.275  21.024  0.00  0.00    +0.184 C 
ENDROOT
BRANCH   6   4
ATOM      4  N   UNL     1      14.922   8.407  19.390  0.00  0.00    -0.306 NA
ATOM     23  H   UNL     1      15.353   8.835  18.571  0.00  0.00    +0.123 HD
BRANCH   4   8
ATOM      8  C   UNL     1      14.926   6.958  19.251  0.00  0.00    +0.085 C 
BRANCH   8   7
ATOM      7  C   UNL     1      16.166   6.352  19.906  0.00  0.00    +0.003 C 
ATOM     11  C   UNL     1      16.836   7.368  20.842  0.00  0.00    +0.005 C 
ATOM     12  C   UNL     1      17.154   5.856  18.841  0.00  0.00    +0.005 C 
ATOM     14  C   UNL     1      18.109   6.805  21.468  0.00  0.00    +0.000 C 
ATOM     15  C   UNL     1      18.426   5.295  19.471  0.00  0.00    +0.000 C 
ATOM     16  C   UNL     1      19.084   6.304  20.407  0.00  0.00    +0.000 C 
ENDBRANCH   8   7
ENDBRANCH   4   8
ENDBRANCH   6   4
BRANCH   6  13
ATOM     13  C   UNL     1      12.638   8.757  18.512  0.00  0.00    +0.085 C 
BRANCH  13  17
ATOM      2  O   UNL     1      14.247   8.896  15.280  0.00  0.00    -0.356 OA
ATOM      5  N   UNL     1      13.598   8.216  16.303  0.00  0.00    -0.083 NA
ATOM     17  C   UNL     1      13.349   9.143  17.232  0.00  0.00    +0.086 A 
ATOM     18  C   UNL     1      13.813  10.415  16.855  0.00  0.00    +0.074 A 
ATOM     19  C   UNL     1      14.369  10.205  15.620  0.00  0.00    +0.168 A 
BRANCH  19  20
ATOM     20  C   UNL     1      15.037  11.076  14.645  0.00  0.00    +0.120 C 
ATOM     21  C   UNL     1      16.240  11.856  15.251  0.00  0.00    +0.049 C 
ATOM     22  C   UNL     1      14.070  12.102  13.985  0.00  0.00    +0.049 C 
BRANCH  20   3
ATOM      3  O   UNL     1      15.604  10.334  13.530  0.00  0.00    -0.381 OA
ATOM     24  H   UNL     1      16.155   9.618  13.890  0.00  0.00    +0.211 HD
ENDBRANCH  20   3
ENDBRANCH  19  20
ENDBRANCH  13  17
ENDBRANCH   6  13
TORSDOF 7
ENDMDL
MODEL 2
REMARK VINA RESULT:      -5.7     27.163     28.790
REMARK  Name = 56775508
REMARK  9 active torsions:
REMARK  status: ('A' for Active; 'I' for Inactive)
REMARK    1  A    between atoms: O_3  and  C_20
REMARK    2  A    between atoms: N_4  and  C_6
REMARK    3  A    between atoms: N_4  and  C_8
REMARK    4  A    between atoms: C_6  and  C_13
REMARK    5  A    between atoms: C_7  and  C_8
REMARK    6  A    between atoms: C_13  and  C_17
REMARK    7  A    between atoms: C_19  and  C_20
REMARK    8  A    between atoms: C_20  and  C_21
REMARK    9  A    between atoms: C_20  and  C_22
REMARK                            x       y       z     vdW  Elec       q    Type
REMARK                         _______ _______ _______ _____ _____    ______ ____
ROOT
ATOM      1  O   UNL     1      -2.177 -13.811  14.242  0.00  0.00    -0.376 OA
ATOM      6  C   UNL     1      -3.090 -11.908  14.560  0.00  0.00    +0.072 C 
ATOM      9  C   UNL     1      -1.851 -12.455  13.861  0.00  0.00    +0.184 C 
ATOM     10  C   UNL     1      -3.417 -13.371  14.842  0.00  0.00    +0.184 C 
ENDROOT
BRANCH   6   4
ATOM      4  N   UNL     1      -4.021 -11.403  13.545  0.00  0.00    -0.306 NA
ATOM     23  H   UNL     1      -4.452 -12.119  12.960  0.00  0.00    +0.123 HD
BRANCH   4   8
ATOM      8  C   UNL     1      -3.343 -10.424  12.709  0.00  0.00    +0.085 C 
BRANCH   8   7
ATOM      7  C   UNL     1      -4.165 -10.112  11.460  0.00  0.00    +0.003 C 
ATOM     11  C   UNL     1      -3.324  -9.334  10.438  0.00  0.00    +0.005 C 
ATOM     12  C   UNL     1      -5.435  -9.333  11.829  0.00  0.00    +0.005 C 
ATOM     14  C   UNL     1      -4.140  -8.963   9.202  0.00  0.00    +0.000 C 
ATOM     15  C   UNL     1      -6.247  -8.961  10.591  0.00  0.00    +0.000 C 
ATOM     16  C   UNL     1      -5.406  -8.197   9.574  0.00  0.00    +0.000 C 
ENDBRANCH   8   7
ENDBRANCH   4   8
ENDBRANCH   6   4
BRANCH   6  13
ATOM     13  C   UNL     1      -2.919 -10.969  15.714  0.00  0.00    +0.085 C 
BRANCH  13  17
ATOM      2  O   UNL     1      -6.228  -9.942  16.740  0.00  0.00    -0.356 OA
ATOM      5  N   UNL     1      -5.160  -9.942  15.851  0.00  0.00    -0.083 NA
ATOM     17  C   UNL     1      -4.240 -10.730  16.415  0.00  0.00    +0.086 A 
ATOM     18  C   UNL     1      -4.667 -11.250  17.649  0.00  0.00    +0.074 A 
ATOM     19  C   UNL     1      -5.923 -10.725  17.807  0.00  0.00    +0.168 A 
BRANCH  19  20
ATOM     20  C   UNL     1      -6.947 -10.838  18.852  0.00  0.00    +0.120 C 
ATOM     21  C   UNL     1      -7.050 -12.272  19.448  0.00  0.00    +0.049 C 
ATOM     22  C   UNL     1      -8.361 -10.407  18.364  0.00  0.00    +0.049 C 
BRANCH  20   3
ATOM      3  O   UNL     1      -6.675  -9.982  19.995  0.00  0.00    -0.381 OA
ATOM     24  H   UNL     1      -7.440  -9.397  20.127  0.00  0.00    +0.211 HD
ENDBRANCH  20   3
ENDBRANCH  19  20
ENDBRANCH  13  17
ENDBRANCH   6  13
TORSDOF 7
ENDMDL
MODEL 3
REMARK VINA RESULT:      -5.4     27.468     30.115
REMARK  Name = 56775508
REMARK  9 active torsions:
REMARK  status: ('A' for Active; 'I' for Inactive)
REMARK    1  A    between atoms: O_3  and  C_20
REMARK    2  A    between atoms: N_4  and  C_6
REMARK    3  A    between atoms: N_4  and  C_8
REMARK    4  A    between atoms: C_6  and  C_13
REMARK    5  A    between atoms: C_7  and  C_8
REMARK    6  A    between atoms: C_13  and  C_17
REMARK    7  A    between atoms: C_19  and  C_20
REMARK    8  A    between atoms: C_20  and  C_21
REMARK    9  A    between atoms: C_20  and  C_22
REMARK                            x       y       z     vdW  Elec       q    Type
REMARK                         _______ _______ _______ _____ _____    ______ ____
ROOT
ATOM      1  O   UNL     1     -16.066   9.232  20.228  0.00  0.00    -0.376 OA
ATOM      6  C   UNL     1     -14.591   7.930  21.060  0.00  0.00    +0.072 C 
ATOM      9  C   UNL     1     -15.950   7.799  20.381  0.00  0.00    +0.184 C 
ATOM     10  C   UNL     1     -14.742   9.422  20.778  0.00  0.00    +0.184 C 
ENDROOT
BRANCH   6   4
ATOM      4  N   UNL     1     -13.562   7.384  20.168  0.00  0.00    -0.306 NA
ATOM     23  H   UNL     1     -13.717   6.421  19.870  0.00  0.00    +0.123 HD
BRANCH   4   8
ATOM      8  C   UNL     1     -12.258   7.502  20.804  0.00  0.00    +0.085 C 
BRANCH   8   7
ATOM      7  C   UNL     1     -11.211   7.997  19.808  0.00  0.00    +0.003 C 
ATOM     11  C   UNL     1     -11.113   9.528  19.841  0.00  0.00    +0.005 C 
ATOM     12  C   UNL     1     -11.533   7.499  18.392  0.00  0.00    +0.005 C 
ATOM     14  C   UNL     1     -10.111  10.051  18.815  0.00  0.00    +0.000 C 
ATOM     15  C   UNL     1     -10.530   8.026  17.369  0.00  0.00    +0.000 C 
ATOM     16  C   UNL     1     -10.428   9.548  17.410  0.00  0.00    +0.000 C 
ENDBRANCH   8   7
ENDBRANCH   4   8
ENDBRANCH   6   4
BRANCH   6  13
ATOM     13  C   UNL     1     -14.440   7.472  22.478  0.00  0.00    +0.085 C 
BRANCH  13  17
ATOM      2  O   UNL     1     -15.063   3.916  22.326  0.00  0.00    -0.356 OA
ATOM      5  N   UNL     1     -14.378   5.063  21.943  0.00  0.00    -0.083 NA
ATOM     17  C   UNL     1     -14.942   6.053  22.641  0.00  0.00    +0.086 A 
ATOM     18  C   UNL     1     -15.978   5.596  23.473  0.00  0.00    +0.074 A 
ATOM     19  C   UNL     1     -16.014   4.246  23.238  0.00  0.00    +0.168 A 
BRANCH  19  20
ATOM     20  C   UNL     1     -16.837   3.147  23.753  0.00  0.00    +0.120 C 
ATOM     21  C   UNL     1     -18.329   3.547  23.954  0.00  0.00    +0.049 C 
ATOM     22  C   UNL     1     -16.302   2.563  25.093  0.00  0.00    +0.049 C 
BRANCH  20   3
ATOM      3  O   UNL     1     -16.881   2.010  22.847  0.00  0.00    -0.381 OA
ATOM     24  H   UNL     1     -17.802   1.885  22.560  0.00  0.00    +0.211 HD
ENDBRANCH  20   3
ENDBRANCH  19  20
ENDBRANCH  13  17
ENDBRANCH   6  13
TORSDOF 7
ENDMDL
MODEL 4
REMARK VINA RESULT:      -5.4     26.917     28.083
REMARK  Name = 56775508
REMARK  9 active torsions:
REMARK  status: ('A' for Active; 'I' for Inactive)
REMARK    1  A    between atoms: O_3  and  C_20
REMARK    2  A    between atoms: N_4  and  C_6
REMARK    3  A    between atoms: N_4  and  C_8
REMARK    4  A    between atoms: C_6  and  C_13
REMARK    5  A    between atoms: C_7  and  C_8
REMARK    6  A    between atoms: C_13  and  C_17
REMARK    7  A    between atoms: C_19  and  C_20
REMARK    8  A    between atoms: C_20  and  C_21
REMARK    9  A    between atoms: C_20  and  C_22
REMARK                            x       y       z     vdW  Elec       q    Type
REMARK                         _______ _______ _______ _____ _____    ______ ____
ROOT
ATOM      1  O   UNL     1      -1.745 -13.939  13.157  0.00  0.00    -0.376 OA
ATOM      6  C   UNL     1      -2.446 -12.031  13.813  0.00  0.00    +0.072 C 
ATOM      9  C   UNL     1      -2.943 -13.164  12.922  0.00  0.00    +0.184 C 
ATOM     10  C   UNL     1      -1.257 -12.946  14.088  0.00  0.00    +0.184 C 
ENDROOT
BRANCH   6   4
ATOM      4  N   UNL     1      -3.285 -11.973  15.015  0.00  0.00    -0.306 NA
ATOM     23  H   UNL     1      -4.288 -11.916  14.840  0.00  0.00    +0.123 HD
BRANCH   4   8
ATOM      8  C   UNL     1      -2.863 -10.855  15.846  0.00  0.00    +0.085 C 
BRANCH   8   7
ATOM      7  C   UNL     1      -3.983 -10.429  16.794  0.00  0.00    +0.003 C 
ATOM     11  C   UNL     1      -4.115 -11.422  17.957  0.00  0.00    +0.005 C 
ATOM     12  C   UNL     1      -5.311 -10.295  16.037  0.00  0.00    +0.005 C 
ATOM     14  C   UNL     1      -5.263 -11.047  18.891  0.00  0.00    +0.000 C 
ATOM     15  C   UNL     1      -6.458  -9.923  16.973  0.00  0.00    +0.000 C 
ATOM     16  C   UNL     1      -6.580 -10.906  18.133  0.00  0.00    +0.000 C 
ENDBRANCH   8   7
ENDBRANCH   4   8
ENDBRANCH   6   4
BRANCH   6  13
ATOM     13  C   UNL     1      -2.200 -10.685  13.206  0.00  0.00    +0.085 C 
BRANCH  13  17
ATOM      2  O   UNL     1      -5.262  -9.830  11.489  0.00  0.00    -0.356 OA
ATOM      5  N   UNL     1      -4.536 -10.124  12.636  0.00  0.00    -0.083 NA
ATOM     17  C   UNL     1      -3.286 -10.335  12.211  0.00  0.00    +0.086 A 
ATOM     18  C   UNL     1      -3.165 -10.191  10.819  0.00  0.00    +0.074 A 
ATOM     19  C   UNL     1      -4.435  -9.873  10.412  0.00  0.00    +0.168 A 
BRANCH  19  20
ATOM     20  C   UNL     1      -5.043  -9.586   9.108  0.00  0.00    +0.120 C 
ATOM     21  C   UNL     1      -6.562  -9.259   9.204  0.00  0.00    +0.049 C 
ATOM     22  C   UNL     1      -4.854 -10.741   8.082  0.00  0.00    +0.049 C 
BRANCH  20   3
ATOM      3  O   UNL     1      -4.456  -8.421   8.464  0.00  0.00    -0.381 OA
ATOM     24  H   UNL     1      -3.992  -8.718   7.662  0.00  0.00    +0.211 HD
ENDBRANCH  20   3
ENDBRANCH  19  20
ENDBRANCH  13  17
ENDBRANCH   6  13
TORSDOF 7
ENDMDL
MODEL 5
REMARK VINA RESULT:      -5.4     27.835     29.780
REMARK  Name = 56775508
REMARK  9 active torsions:
REMARK  status: ('A' for Active; 'I' for Inactive)
REMARK    1  A    between atoms: O_3  and  C_20
REMARK    2  A    between atoms: N_4  and  C_6
REMARK    3  A    between atoms: N_4  and  C_8
REMARK    4  A    between atoms: C_6  and  C_13
REMARK    5  A    between atoms: C_7  and  C_8
REMARK    6  A    between atoms: C_13  and  C_17
REMARK    7  A    between atoms: C_19  and  C_20
REMARK    8  A    between atoms: C_20  and  C_21
REMARK    9  A    between atoms: C_20  and  C_22
REMARK                            x       y       z     vdW  Elec       q    Type
REMARK                         _______ _______ _______ _____ _____    ______ ____
ROOT
ATOM      1  O   UNL     1      -8.660 -12.740  17.848  0.00  0.00    -0.376 OA
ATOM      6  C   UNL     1      -8.026 -10.755  17.381  0.00  0.00    +0.072 C 
ATOM      9  C   UNL     1      -7.936 -12.140  16.750  0.00  0.00    +0.184 C 
ATOM     10  C   UNL     1      -8.865 -11.443  18.454  0.00  0.00    +0.184 C 
ENDROOT
BRANCH   6   4
ATOM      4  N   UNL     1      -8.907  -9.918  16.558  0.00  0.00    -0.306 NA
ATOM     23  H   UNL     1      -8.730  -9.962  15.555  0.00  0.00    +0.123 HD
BRANCH   4   8
ATOM      8  C   UNL     1      -8.829  -8.538  17.015  0.00  0.00    +0.085 C 
BRANCH   8   7
ATOM      7  C   UNL     1     -10.218  -7.907  17.080  0.00  0.00    +0.003 C 
ATOM     11  C   UNL     1     -11.307  -8.981  16.947  0.00  0.00    +0.005 C 
ATOM     12  C   UNL     1     -10.376  -6.832  15.996  0.00  0.00    +0.005 C 
ATOM     14  C   UNL     1     -12.706  -8.369  16.955  0.00  0.00    +0.000 C 
ATOM     15  C   UNL     1     -11.776  -6.224  16.006  0.00  0.00    +0.000 C 
ATOM     16  C   UNL     1     -12.856  -7.294  15.883  0.00  0.00    +0.000 C 
ENDBRANCH   8   7
ENDBRANCH   4   8
ENDBRANCH   6   4
BRANCH   6  13
ATOM     13  C   UNL     1      -6.765 -10.057  17.785  0.00  0.00    +0.085 C 
BRANCH  13  17
ATOM      2  O   UNL     1      -4.748 -10.182  14.790  0.00  0.00    -0.356 OA
ATOM      5  N   UNL     1      -5.921  -9.884  15.471  0.00  0.00    -0.083 NA
ATOM     17  C   UNL     1      -5.688 -10.242  16.737  0.00  0.00    +0.086 A 
ATOM     18  C   UNL     1      -4.396 -10.768  16.913  0.00  0.00    +0.074 A 
ATOM     19  C   UNL     1      -3.847 -10.709  15.659  0.00  0.00    +0.168 A 
BRANCH  19  20
ATOM     20  C   UNL     1      -2.542 -11.084  15.102  0.00  0.00    +0.120 C 
ATOM     21  C   UNL     1      -1.346 -10.548  15.944  0.00  0.00    +0.049 C 
ATOM     22  C   UNL     1      -2.352 -10.616  13.630  0.00  0.00    +0.049 C 
BRANCH  20   3
ATOM      3  O   UNL     1      -2.346 -12.524  15.060  0.00  0.00    -0.381 OA
ATOM     24  H   UNL     1      -1.408 -12.698  14.869  0.00  0.00    +0.211 HD
ENDBRANCH  20   3
ENDBRANCH  19  20
ENDBRANCH  13  17
ENDBRANCH   6  13
TORSDOF 7
ENDMDL
MODEL 6
REMARK VINA RESULT:      -5.3     27.178     28.950
REMARK  Name = 56775508
REMARK  9 active torsions:
REMARK  status: ('A' for Active; 'I' for Inactive)
REMARK    1  A    between atoms: O_3  and  C_20
REMARK    2  A    between atoms: N_4  and  C_6
REMARK    3  A    between atoms: N_4  and  C_8
REMARK    4  A    between atoms: C_6  and  C_13
REMARK    5  A    between atoms: C_7  and  C_8
REMARK    6  A    between atoms: C_13  and  C_17
REMARK    7  A    between atoms: C_19  and  C_20
REMARK    8  A    between atoms: C_20  and  C_21
REMARK    9  A    between atoms: C_20  and  C_22
REMARK                            x       y       z     vdW  Elec       q    Type
REMARK                         _______ _______ _______ _____ _____    ______ ____
ROOT
ATOM      1  O   UNL     1      -4.877 -12.938  18.602  0.00  0.00    -0.376 OA
ATOM      6  C   UNL     1      -5.522 -11.199  17.544  0.00  0.00    +0.072 C 
ATOM      9  C   UNL     1      -5.128 -12.633  17.211  0.00  0.00    +0.184 C 
ATOM     10  C   UNL     1      -5.329 -11.622  18.997  0.00  0.00    +0.184 C 
ENDROOT
BRANCH   6   4
ATOM      4  N   UNL     1      -6.957 -11.031  17.288  0.00  0.00    -0.306 NA
ATOM     23  H   UNL     1      -7.363 -11.710  16.645  0.00  0.00    +0.123 HD
BRANCH   4   8
ATOM      8  C   UNL     1      -7.209  -9.681  16.806  0.00  0.00    +0.085 C 
BRANCH   8   7
ATOM      7  C   UNL     1      -8.466  -9.099  17.451  0.00  0.00    +0.003 C 
ATOM     11  C   UNL     1      -9.315 -10.211  18.082  0.00  0.00    +0.005 C 
ATOM     12  C   UNL     1      -9.282  -8.304  16.423  0.00  0.00    +0.005 C 
ATOM     14  C   UNL     1     -10.605  -9.662  18.686  0.00  0.00    +0.000 C 
ATOM     15  C   UNL     1     -10.572  -7.758  17.030  0.00  0.00    +0.000 C 
ATOM     16  C   UNL     1     -11.410  -8.864  17.664  0.00  0.00    +0.000 C 
ENDBRANCH   8   7
ENDBRANCH   4   8
ENDBRANCH   6   4
BRANCH   6  13
ATOM     13  C   UNL     1      -4.696 -10.074  17.002  0.00  0.00    +0.085 C 
BRANCH  13  17
ATOM      2  O   UNL     1      -1.917 -11.334  15.066  0.00  0.00    -0.356 OA
ATOM      5  N   UNL     1      -2.505 -10.938  16.261  0.00  0.00    -0.083 NA
ATOM     17  C   UNL     1      -3.747 -10.570  15.932  0.00  0.00    +0.086 A 
ATOM     18  C   UNL     1      -3.997 -10.709  14.556  0.00  0.00    +0.074 A 
ATOM     19  C   UNL     1      -2.815 -11.193  14.057  0.00  0.00    +0.168 A 
BRANCH  19  20
ATOM     20  C   UNL     1      -2.357 -11.568  12.714  0.00  0.00    +0.120 C 
ATOM     21  C   UNL     1      -1.827 -10.356  11.893  0.00  0.00    +0.049 C 
ATOM     22  C   UNL     1      -3.455 -12.285  11.876  0.00  0.00    +0.049 C 
BRANCH  20   3
ATOM      3  O   UNL     1      -1.246 -12.505  12.746  0.00  0.00    -0.381 OA
ATOM     24  H   UNL     1      -0.775 -12.391  13.589  0.00  0.00    +0.211 HD
ENDBRANCH  20   3
ENDBRANCH  19  20
ENDBRANCH  13  17
ENDBRANCH   6  13
TORSDOF 7
ENDMDL
MODEL 7
REMARK VINA RESULT:      -5.3      2.558      3.687
REMARK  Name = 56775508
REMARK  9 active torsions:
REMARK  status: ('A' for Active; 'I' for Inactive)
REMARK    1  A    between atoms: O_3  and  C_20
REMARK    2  A    between atoms: N_4  and  C_6
REMARK    3  A    between atoms: N_4  and  C_8
REMARK    4  A    between atoms: C_6  and  C_13
REMARK    5  A    between atoms: C_7  and  C_8
REMARK    6  A    between atoms: C_13  and  C_17
REMARK    7  A    between atoms: C_19  and  C_20
REMARK    8  A    between atoms: C_20  and  C_21
REMARK    9  A    between atoms: C_20  and  C_22
REMARK                            x       y       z     vdW  Elec       q    Type
REMARK                         _______ _______ _______ _____ _____    ______ ____
ROOT
ATOM      1  O   UNL     1      14.727  12.005  24.479  0.00  0.00    -0.376 OA
ATOM      6  C   UNL     1      14.581  11.242  22.490  0.00  0.00    +0.072 C 
ATOM      9  C   UNL     1      15.661  11.832  23.389  0.00  0.00    +0.184 C 
ATOM     10  C   UNL     1      13.679  11.367  23.714  0.00  0.00    +0.184 C 
ENDROOT
BRANCH   6   4
ATOM      4  N   UNL     1      14.877   9.823  22.264  0.00  0.00    -0.306 NA
ATOM     23  H   UNL     1      14.844   9.237  23.098  0.00  0.00    +0.123 HD
BRANCH   4   8
ATOM      8  C   UNL     1      16.176   9.695  21.621  0.00  0.00    +0.085 C 
BRANCH   8   7
ATOM      7  C   UNL     1      16.473   8.236  21.281  0.00  0.00    +0.003 C 
ATOM     11  C   UNL     1      17.985   7.973  21.296  0.00  0.00    +0.005 C 
ATOM     12  C   UNL     1      15.867   7.863  19.921  0.00  0.00    +0.005 C 
ATOM     14  C   UNL     1      18.311   6.533  20.906  0.00  0.00    +0.000 C 
ATOM     15  C   UNL     1      16.197   6.423  19.533  0.00  0.00    +0.000 C 
ATOM     16  C   UNL     1      17.700   6.163  19.559  0.00  0.00    +0.000 C 
ENDBRANCH   8   7
ENDBRANCH   4   8
ENDBRANCH   6   4
BRANCH   6  13
ATOM     13  C   UNL     1      14.204  11.967  21.235  0.00  0.00    +0.085 C 
BRANCH  13  17
ATOM      2  O   UNL     1      12.157   9.539  19.512  0.00  0.00    -0.356 OA
ATOM      5  N   UNL     1      12.519  10.263  20.641  0.00  0.00    -0.083 NA
ATOM     17  C   UNL     1      13.542  11.028  20.249  0.00  0.00    +0.086 A 
ATOM     18  C   UNL     1      13.867  10.832  18.895  0.00  0.00    +0.074 A 
ATOM     19  C   UNL     1      12.967   9.887  18.478  0.00  0.00    +0.168 A 
BRANCH  19  20
ATOM     20  C   UNL     1      12.722   9.212  17.198  0.00  0.00    +0.120 C 
ATOM     21  C   UNL     1      11.306   8.570  17.111  0.00  0.00    +0.049 C 
ATOM     22  C   UNL     1      13.778   8.114  16.878  0.00  0.00    +0.049 C 
BRANCH  20   3
ATOM      3  O   UNL     1      12.782  10.124  16.066  0.00  0.00    -0.381 OA
ATOM     24  H   UNL     1      13.413  10.832  16.279  0.00  0.00    +0.211 HD
ENDBRANCH  20   3
ENDBRANCH  19  20
ENDBRANCH  13  17
ENDBRANCH   6  13
TORSDOF 7
ENDMDL
MODEL 8
REMARK VINA RESULT:      -5.2     12.282     15.262
REMARK  Name = 56775508
REMARK  9 active torsions:
REMARK  status: ('A' for Active; 'I' for Inactive)
REMARK    1  A    between atoms: O_3  and  C_20
REMARK    2  A    between atoms: N_4  and  C_6
REMARK    3  A    between atoms: N_4  and  C_8
REMARK    4  A    between atoms: C_6  and  C_13
REMARK    5  A    between atoms: C_7  and  C_8
REMARK    6  A    between atoms: C_13  and  C_17
REMARK    7  A    between atoms: C_19  and  C_20
REMARK    8  A    between atoms: C_20  and  C_21
REMARK    9  A    between atoms: C_20  and  C_22
REMARK                            x       y       z     vdW  Elec       q    Type
REMARK                         _______ _______ _______ _____ _____    ______ ____
ROOT
ATOM      1  O   UNL     1      10.545   4.980   8.881  0.00  0.00    -0.376 OA
ATOM      6  C   UNL     1       9.902   5.702   6.978  0.00  0.00    +0.072 C 
ATOM      9  C   UNL     1      10.735   6.212   8.148  0.00  0.00    +0.184 C 
ATOM     10  C   UNL     1       9.826   4.400   7.769  0.00  0.00    +0.184 C 
ENDROOT
BRANCH   6   4
ATOM      4  N   UNL     1      10.784   5.501   5.822  0.00  0.00    -0.306 NA
ATOM     23  H   UNL     1      11.089   6.357   5.359  0.00  0.00    +0.123 HD
BRANCH   4   8
ATOM      8  C   UNL     1      10.132   4.623   4.862  0.00  0.00    +0.085 C 
BRANCH   8   7
ATOM      7  C   UNL     1      10.613   4.918   3.442  0.00  0.00    +0.003 C 
ATOM     11  C   UNL     1      11.224   3.661   2.806  0.00  0.00    +0.005 C 
ATOM     12  C   UNL     1      11.620   6.076   3.441  0.00  0.00    +0.005 C 
ATOM     14  C   UNL     1      11.762   3.943   1.405  0.00  0.00    +0.000 C 
ATOM     15  C   UNL     1      12.158   6.353   2.040  0.00  0.00    +0.000 C 
ATOM     16  C   UNL     1      12.755   5.101   1.407  0.00  0.00    +0.000 C 
ENDBRANCH   8   7
ENDBRANCH   4   8
ENDBRANCH   6   4
BRANCH   6  13
ATOM     13  C   UNL     1       8.631   6.411   6.627  0.00  0.00    +0.085 C 
BRANCH  13  17
ATOM      2  O   UNL     1       9.769   9.079   4.473  0.00  0.00    -0.356 OA
ATOM      5  N   UNL     1       9.826   8.335   5.644  0.00  0.00    -0.083 NA
ATOM     17  C   UNL     1       8.864   7.417   5.519  0.00  0.00    +0.086 A 
ATOM     18  C   UNL     1       8.172   7.532   4.301  0.00  0.00    +0.074 A 
ATOM     19  C   UNL     1       8.780   8.592   3.680  0.00  0.00    +0.168 A 
BRANCH  19  20
ATOM     20  C   UNL     1       8.580   9.266   2.392  0.00  0.00    +0.120 C 
ATOM     21  C   UNL     1       7.081   9.552   2.083  0.00  0.00    +0.049 C 
ATOM     22  C   UNL     1       9.186   8.479   1.194  0.00  0.00    +0.049 C 
BRANCH  20   3
ATOM      3  O   UNL     1       9.221  10.570   2.339  0.00  0.00    -0.381 OA
ATOM     24  H   UNL     1       8.552  11.228   2.084  0.00  0.00    +0.211 HD
ENDBRANCH  20   3
ENDBRANCH  19  20
ENDBRANCH  13  17
ENDBRANCH   6  13
TORSDOF 7
ENDMDL
MODEL 9
REMARK VINA RESULT:      -5.2     33.002     34.359
REMARK  Name = 56775508
REMARK  9 active torsions:
REMARK  status: ('A' for Active; 'I' for Inactive)
REMARK    1  A    between atoms: O_3  and  C_20
REMARK    2  A    between atoms: N_4  and  C_6
REMARK    3  A    between atoms: N_4  and  C_8
REMARK    4  A    between atoms: C_6  and  C_13
REMARK    5  A    between atoms: C_7  and  C_8
REMARK    6  A    between atoms: C_13  and  C_17
REMARK    7  A    between atoms: C_19  and  C_20
REMARK    8  A    between atoms: C_20  and  C_21
REMARK    9  A    between atoms: C_20  and  C_22
REMARK                            x       y       z     vdW  Elec       q    Type
REMARK                         _______ _______ _______ _____ _____    ______ ____
ROOT
ATOM      1  O   UNL     1     -19.224   5.450  26.894  0.00  0.00    -0.376 OA
ATOM      6  C   UNL     1     -17.630   4.602  28.034  0.00  0.00    +0.072 C 
ATOM      9  C   UNL     1     -17.960   5.944  27.391  0.00  0.00    +0.184 C 
ATOM     10  C   UNL     1     -19.017   4.183  27.559  0.00  0.00    +0.184 C 
ENDROOT
BRANCH   6   4
ATOM      4  N   UNL     1     -17.657   4.757  29.492  0.00  0.00    -0.306 NA
ATOM     23  H   UNL     1     -18.510   5.171  29.867  0.00  0.00    +0.123 HD
BRANCH   4   8
ATOM      8  C   UNL     1     -16.502   5.533  29.919  0.00  0.00    +0.085 C 
BRANCH   8   7
ATOM      7  C   UNL     1     -16.239   5.343  31.412  0.00  0.00    +0.003 C 
ATOM     11  C   UNL     1     -14.754   5.559  31.732  0.00  0.00    +0.005 C 
ATOM     12  C   UNL     1     -16.700   3.952  31.869  0.00  0.00    +0.005 C 
ATOM     14  C   UNL     1     -14.456   5.322  33.211  0.00  0.00    +0.000 C 
ATOM     15  C   UNL     1     -16.399   3.717  33.347  0.00  0.00    +0.000 C 
ATOM     16  C   UNL     1     -14.924   3.942  33.664  0.00  0.00    +0.000 C 
ENDBRANCH   8   7
ENDBRANCH   4   8
ENDBRANCH   6   4
BRANCH   6  13
ATOM     13  C   UNL     1     -16.437   3.838  27.549  0.00  0.00    +0.085 C 
BRANCH  13  17
ATOM      2  O   UNL     1     -16.738   0.579  29.080  0.00  0.00    -0.356 OA
ATOM      5  N   UNL     1     -17.200   1.600  28.259  0.00  0.00    -0.083 NA
ATOM     17  C   UNL     1     -16.266   2.553  28.332  0.00  0.00    +0.086 A 
ATOM     18  C   UNL     1     -15.202   2.193  29.176  0.00  0.00    +0.074 A 
ATOM     19  C   UNL     1     -15.547   0.944  29.621  0.00  0.00    +0.168 A 
BRANCH  19  20
ATOM     20  C   UNL     1     -14.912  -0.025  30.522  0.00  0.00    +0.120 C 
ATOM     21  C   UNL     1     -14.784   0.497  31.983  0.00  0.00    +0.049 C 
ATOM     22  C   UNL     1     -13.502  -0.472  30.036  0.00  0.00    +0.049 C 
BRANCH  20   3
ATOM      3  O   UNL     1     -15.671  -1.260  30.638  0.00  0.00    -0.381 OA
ATOM     24  H   UNL     1     -16.518  -1.142  30.175  0.00  0.00    +0.211 HD
ENDBRANCH  20   3
ENDBRANCH  19  20
ENDBRANCH  13  17
ENDBRANCH   6  13
TORSDOF 7
ENDMDL
MODEL 10
REMARK VINA RESULT:      -5.2     27.359     28.929
REMARK  Name = 56775508
REMARK  9 active torsions:
REMARK  status: ('A' for Active; 'I' for Inactive)
REMARK    1  A    between atoms: O_3  and  C_20
REMARK    2  A    between atoms: N_4  and  C_6
REMARK    3  A    between atoms: N_4  and  C_8
REMARK    4  A    between atoms: C_6  and  C_13
REMARK    5  A    between atoms: C_7  and  C_8
REMARK    6  A    between atoms: C_13  and  C_17
REMARK    7  A    between atoms: C_19  and  C_20
REMARK    8  A    between atoms: C_20  and  C_21
REMARK    9  A    between atoms: C_20  and  C_22
REMARK                            x       y       z     vdW  Elec       q    Type
REMARK                         _______ _______ _______ _____ _____    ______ ____
ROOT
ATOM      1  O   UNL     1      -5.871 -11.260  20.605  0.00  0.00    -0.376 OA
ATOM      6  C   UNL     1      -6.071 -11.172  18.481  0.00  0.00    +0.072 C 
ATOM      9  C   UNL     1      -6.493 -10.336  19.684  0.00  0.00    +0.184 C 
ATOM     10  C   UNL     1      -5.358 -12.048  19.506  0.00  0.00    +0.184 C 
ENDROOT
BRANCH   6   4
ATOM      4  N   UNL     1      -5.065 -10.426  17.717  0.00  0.00    -0.306 NA
ATOM     23  H   UNL     1      -5.436  -9.687  17.121  0.00  0.00    +0.123 HD
BRANCH   4   8
ATOM      8  C   UNL     1      -4.275 -11.354  16.921  0.00  0.00    +0.085 C 
BRANCH   8   7
ATOM      7  C   UNL     1      -3.621 -10.638  15.740  0.00  0.00    +0.003 C 
ATOM     11  C   UNL     1      -4.159 -11.185  14.411  0.00  0.00    +0.005 C 
ATOM     12  C   UNL     1      -2.093 -10.768  15.807  0.00  0.00    +0.005 C 
ATOM     14  C   UNL     1      -3.481 -10.522  13.214  0.00  0.00    +0.000 C 
ATOM     15  C   UNL     1      -1.419 -10.106  14.608  0.00  0.00    +0.000 C 
ATOM     16  C   UNL     1      -1.962 -10.645  13.288  0.00  0.00    +0.000 C 
ENDBRANCH   8   7
ENDBRANCH   4   8
ENDBRANCH   6   4
BRANCH   6  13
ATOM     13  C   UNL     1      -7.127 -11.785  17.614  0.00  0.00    +0.085 C 
BRANCH  13  17
ATOM      2  O   UNL     1      -8.295  -9.381  15.183  0.00  0.00    -0.356 OA
ATOM      5  N   UNL     1      -7.407 -10.356  15.621  0.00  0.00    -0.083 NA
ATOM     17  C   UNL     1      -7.859 -10.720  16.824  0.00  0.00    +0.086 A 
ATOM     18  C   UNL     1      -9.018 -10.016  17.195  0.00  0.00    +0.074 A 
ATOM     19  C   UNL     1      -9.250  -9.187  16.129  0.00  0.00    +0.168 A 
BRANCH  19  20
ATOM     20  C   UNL     1     -10.277  -8.183  15.828  0.00  0.00    +0.120 C 
ATOM     21  C   UNL     1     -11.285  -7.976  16.996  0.00  0.00    +0.049 C 
ATOM     22  C   UNL     1     -11.084  -8.508  14.536  0.00  0.00    +0.049 C 
BRANCH  20   3
ATOM      3  O   UNL     1      -9.715  -6.864  15.589  0.00  0.00    -0.381 OA
ATOM     24  H   UNL     1     -10.208  -6.221  16.126  0.00  0.00    +0.211 HD
ENDBRANCH  20   3
ENDBRANCH  19  20
ENDBRANCH  13  17
ENDBRANCH   6  13
TORSDOF 7
ENDMDL
