MODEL 1
REMARK VINA RESULT:      -6.7      0.000      0.000
REMARK  Name = 7673970
REMARK  8 active torsions:
REMARK  status: ('A' for Active; 'I' for Inactive)
REMARK    1  A    between atoms: O_5  and  C_30
REMARK    2  A    between atoms: O_5  and  C_37
REMARK    3  A    between atoms: N_9  and  C_16
REMARK    4  A    between atoms: N_11  and  C_27
REMARK    5  A    between atoms: C_12  and  C_17
REMARK    6  A    between atoms: C_20  and  C_24
REMARK    7  A    between atoms: C_35  and  C_36
REMARK    8  A    between atoms: C_36  and  C_38
REMARK                            x       y       z     vdW  Elec       q    Type
REMARK                         _______ _______ _______ _____ _____    ______ ____
ROOT
ATOM      2  O   UNL     1      -8.324 -12.639  17.462  0.00  0.00    -0.270 OA
ATOM      4  O   UNL     1     -13.068  -8.206  16.491  0.00  0.00    -0.252 OA
ATOM      7  N   UNL     1      -8.800 -10.358  17.656  0.00  0.00    -0.283 N 
ATOM      8  N   UNL     1     -10.805  -8.524  16.852  0.00  0.00    -0.282 N 
ATOM     11  N   UNL     1     -11.544  -7.187  15.056  0.00  0.00    -0.269 N 
ATOM     12  C   UNL     1     -10.185 -10.585  18.085  0.00  0.00    +0.179 C 
ATOM     13  C   UNL     1     -11.040  -9.314  18.061  0.00  0.00    +0.141 C 
ATOM     14  C   UNL     1      -8.419  -8.954  17.464  0.00  0.00    +0.128 C 
ATOM     15  C   UNL     1      -9.396  -8.292  16.494  0.00  0.00    +0.128 C 
ATOM     20  C   UNL     1      -8.011 -11.460  17.302  0.00  0.00    +0.247 C 
ATOM     23  C   UNL     1     -11.906  -7.980  16.148  0.00  0.00    +0.307 C 
ATOM     41  H   UNL     1     -10.557  -7.068  14.854  0.00  0.00    +0.156 HD
ENDROOT
BRANCH  20  24
ATOM     24  C   UNL     1      -6.691 -11.210  16.709  0.00  0.00    +0.037 A 
ATOM     25  C   UNL     1      -6.558 -11.118  15.326  0.00  0.00    +0.016 A 
ATOM     26  C   UNL     1      -5.578 -11.067  17.534  0.00  0.00    +0.016 A 
ATOM     28  C   UNL     1      -5.304 -10.881  14.764  0.00  0.00    +0.046 A 
ATOM     29  C   UNL     1      -4.324 -10.829  16.971  0.00  0.00    +0.046 A 
ATOM     30  C   UNL     1      -4.187 -10.737  15.586  0.00  0.00    +0.120 A 
BRANCH  30   5
ATOM      5  O   UNL     1      -2.963 -10.508  15.038  0.00  0.00    -0.495 OA
ATOM     37  C   UNL     1      -1.826 -10.739  15.868  0.00  0.00    +0.277 C 
ENDBRANCH  30   5
ENDBRANCH  20  24
BRANCH  11  27
ATOM     27  C   UNL     1     -12.400  -6.509  14.152  0.00  0.00    +0.035 A 
ATOM     31  C   UNL     1     -13.178  -7.237  13.255  0.00  0.00    +0.024 A 
ATOM     32  C   UNL     1     -12.461  -5.117  14.166  0.00  0.00    +0.024 A 
ATOM     33  C   UNL     1     -14.021  -6.570  12.366  0.00  0.00    +0.013 A 
ATOM     34  C   UNL     1     -13.304  -4.449  13.277  0.00  0.00    +0.013 A 
ATOM     35  C   UNL     1     -14.083  -5.176  12.377  0.00  0.00    +0.017 A 
BRANCH  35  36
ATOM      6  O   UNL     1     -16.156  -4.816  11.310  0.00  0.00    -0.292 OA
ATOM     36  C   UNL     1     -14.963  -4.480  11.451  0.00  0.00    +0.160 C 
ATOM     38  C   UNL     1     -14.439  -3.310  10.624  0.00  0.00    +0.091 C 
ENDBRANCH  35  36
ENDBRANCH  11  27
BRANCH  12  17
ATOM      1  O   UNL     1      -9.513 -10.481  20.373  0.00  0.00    -0.274 OA
ATOM      9  N   UNL     1     -10.734 -12.323  19.638  0.00  0.00    -0.302 N 
ATOM     17  C   UNL     1     -10.103 -11.100  19.490  0.00  0.00    +0.236 C 
ATOM     39  H   UNL     1     -11.217 -12.727  18.841  0.00  0.00    +0.150 HD
BRANCH   9  16
ATOM      3  O   UNL     1      -9.124 -14.512  19.924  0.00  0.00    -0.274 OA
ATOM     10  N   UNL     1     -10.538 -15.425  21.467  0.00  0.00    -0.314 N 
ATOM     16  C   UNL     1     -10.778 -13.040  20.886  0.00  0.00    +0.159 C 
ATOM     18  C   UNL     1     -12.205 -13.139  21.405  0.00  0.00    +0.033 C 
ATOM     19  C   UNL     1     -12.243 -14.048  22.624  0.00  0.00    +0.021 C 
ATOM     21  C   UNL     1     -11.778 -15.434  22.223  0.00  0.00    +0.104 C 
ATOM     22  C   UNL     1     -10.091 -14.386  20.677  0.00  0.00    +0.233 C 
ATOM     40  H   UNL     1     -10.050 -16.311  21.379  0.00  0.00    +0.149 HD
ENDBRANCH   9  16
ENDBRANCH  12  17
TORSDOF 6
ENDMDL
MODEL 2
REMARK VINA RESULT:      -6.7     27.445     28.697
REMARK  Name = 7673970
REMARK  8 active torsions:
REMARK  status: ('A' for Active; 'I' for Inactive)
REMARK    1  A    between atoms: O_5  and  C_30
REMARK    2  A    between atoms: O_5  and  C_37
REMARK    3  A    between atoms: N_9  and  C_16
REMARK    4  A    between atoms: N_11  and  C_27
REMARK    5  A    between atoms: C_12  and  C_17
REMARK    6  A    between atoms: C_20  and  C_24
REMARK    7  A    between atoms: C_35  and  C_36
REMARK    8  A    between atoms: C_36  and  C_38
REMARK                            x       y       z     vdW  Elec       q    Type
REMARK                         _______ _______ _______ _____ _____    ______ ____
ROOT
ATOM      2  O   UNL     1      -1.671   9.613  36.596  0.00  0.00    -0.270 OA
ATOM      4  O   UNL     1      -8.055   8.082  36.647  0.00  0.00    -0.252 OA
ATOM      7  N   UNL     1      -3.759  10.388  37.307  0.00  0.00    -0.283 N 
ATOM      8  N   UNL     1      -6.501   9.771  36.936  0.00  0.00    -0.282 N 
ATOM     11  N   UNL     1      -8.338  10.084  35.492  0.00  0.00    -0.269 N 
ATOM     12  C   UNL     1      -4.242   9.050  37.666  0.00  0.00    +0.179 C 
ATOM     13  C   UNL     1      -5.750   9.003  37.930  0.00  0.00    +0.141 C 
ATOM     14  C   UNL     1      -4.740  11.472  37.444  0.00  0.00    +0.128 C 
ATOM     15  C   UNL     1      -5.996  11.123  36.648  0.00  0.00    +0.128 C 
ATOM     20  C   UNL     1      -2.498  10.517  36.713  0.00  0.00    +0.247 C 
ATOM     23  C   UNL     1      -7.677   9.222  36.370  0.00  0.00    +0.307 C 
ATOM     41  H   UNL     1      -7.939  11.002  35.328  0.00  0.00    +0.156 HD
ENDROOT
BRANCH  20  24
ATOM     24  C   UNL     1      -2.101  11.835  36.199  0.00  0.00    +0.037 A 
ATOM     25  C   UNL     1      -2.533  12.247  34.942  0.00  0.00    +0.016 A 
ATOM     26  C   UNL     1      -1.292  12.663  36.973  0.00  0.00    +0.016 A 
ATOM     28  C   UNL     1      -2.155  13.499  34.456  0.00  0.00    +0.046 A 
ATOM     29  C   UNL     1      -0.915  13.914  36.486  0.00  0.00    +0.046 A 
ATOM     30  C   UNL     1      -1.346  14.332  35.226  0.00  0.00    +0.120 A 
BRANCH  30   5
ATOM      5  O   UNL     1      -0.975  15.552  34.751  0.00  0.00    -0.495 OA
ATOM     37  C   UNL     1       0.040  15.578  33.749  0.00  0.00    +0.277 C 
ENDBRANCH  30   5
ENDBRANCH  20  24
BRANCH  11  27
ATOM     27  C   UNL     1      -9.529   9.837  34.764  0.00  0.00    +0.035 A 
ATOM     31  C   UNL     1      -9.516   9.896  33.372  0.00  0.00    +0.024 A 
ATOM     32  C   UNL     1     -10.707   9.534  35.442  0.00  0.00    +0.024 A 
ATOM     33  C   UNL     1     -10.688   9.653  32.655  0.00  0.00    +0.013 A 
ATOM     34  C   UNL     1     -11.879   9.290  34.727  0.00  0.00    +0.013 A 
ATOM     35  C   UNL     1     -11.870   9.350  33.333  0.00  0.00    +0.017 A 
BRANCH  35  36
ATOM      6  O   UNL     1     -13.740  10.023  32.062  0.00  0.00    -0.292 OA
ATOM     36  C   UNL     1     -13.091   9.095  32.587  0.00  0.00    +0.160 C 
ATOM     38  C   UNL     1     -13.611   7.670  32.428  0.00  0.00    +0.091 C 
ENDBRANCH  35  36
ENDBRANCH  11  27
BRANCH  12  17
ATOM      1  O   UNL     1      -3.644   9.295  39.963  0.00  0.00    -0.274 OA
ATOM      9  N   UNL     1      -2.680   7.576  38.724  0.00  0.00    -0.302 N 
ATOM     17  C   UNL     1      -3.509   8.668  38.915  0.00  0.00    +0.236 C 
ATOM     39  H   UNL     1      -2.672   7.116  37.818  0.00  0.00    +0.150 HD
BRANCH   9  16
ATOM      3  O   UNL     1      -0.170   8.607  39.052  0.00  0.00    -0.274 OA
ATOM     10  N   UNL     1       0.580   6.649  39.957  0.00  0.00    -0.314 N 
ATOM     16  C   UNL     1      -1.849   7.025  39.764  0.00  0.00    +0.159 C 
ATOM     18  C   UNL     1      -2.010   5.514  39.843  0.00  0.00    +0.033 C 
ATOM     19  C   UNL     1      -0.996   4.944  40.823  0.00  0.00    +0.021 C 
ATOM     21  C   UNL     1       0.402   5.257  40.327  0.00  0.00    +0.104 C 
ATOM     22  C   UNL     1      -0.419   7.493  39.518  0.00  0.00    +0.233 C 
ATOM     40  H   UNL     1       1.536   6.976  39.852  0.00  0.00    +0.149 HD
ENDBRANCH   9  16
ENDBRANCH  12  17
TORSDOF 6
ENDMDL
MODEL 3
REMARK VINA RESULT:      -6.5     30.066     35.140
REMARK  Name = 7673970
REMARK  8 active torsions:
REMARK  status: ('A' for Active; 'I' for Inactive)
REMARK    1  A    between atoms: O_5  and  C_30
REMARK    2  A    between atoms: O_5  and  C_37
REMARK    3  A    between atoms: N_9  and  C_16
REMARK    4  A    between atoms: N_11  and  C_27
REMARK    5  A    between atoms: C_12  and  C_17
REMARK    6  A    between atoms: C_20  and  C_24
REMARK    7  A    between atoms: C_35  and  C_36
REMARK    8  A    between atoms: C_36  and  C_38
REMARK                            x       y       z     vdW  Elec       q    Type
REMARK                         _______ _______ _______ _____ _____    ______ ____
ROOT
ATOM      2  O   UNL     1      23.639   7.788  20.748  0.00  0.00    -0.270 OA
ATOM      4  O   UNL     1      17.641   5.665  19.131  0.00  0.00    -0.252 OA
ATOM      7  N   UNL     1      21.673   6.909  21.660  0.00  0.00    -0.283 N 
ATOM      8  N   UNL     1      19.009   6.368  20.859  0.00  0.00    -0.282 N 
ATOM     11  N   UNL     1      16.882   7.341  20.558  0.00  0.00    -0.269 N 
ATOM     12  C   UNL     1      21.440   6.001  20.531  0.00  0.00    +0.179 C 
ATOM     13  C   UNL     1      20.040   5.381  20.534  0.00  0.00    +0.141 C 
ATOM     14  C   UNL     1      20.623   6.927  22.685  0.00  0.00    +0.128 C 
ATOM     15  C   UNL     1      19.277   7.222  22.027  0.00  0.00    +0.128 C 
ATOM     20  C   UNL     1      22.755   7.797  21.603  0.00  0.00    +0.247 C 
ATOM     23  C   UNL     1      17.813   6.405  20.102  0.00  0.00    +0.307 C 
ATOM     41  H   UNL     1      17.125   7.906  21.365  0.00  0.00    +0.156 HD
ENDROOT
BRANCH  20  24
ATOM     24  C   UNL     1      22.874   8.818  22.654  0.00  0.00    +0.037 A 
ATOM     25  C   UNL     1      22.255  10.054  22.491  0.00  0.00    +0.016 A 
ATOM     26  C   UNL     1      23.608   8.543  23.805  0.00  0.00    +0.016 A 
ATOM     28  C   UNL     1      22.370  11.022  23.489  0.00  0.00    +0.046 A 
ATOM     29  C   UNL     1      23.721   9.511  24.802  0.00  0.00    +0.046 A 
ATOM     30  C   UNL     1      23.102  10.752  24.644  0.00  0.00    +0.120 A 
BRANCH  30   5
ATOM      5  O   UNL     1      23.216  11.697  25.616  0.00  0.00    -0.495 OA
ATOM     37  C   UNL     1      22.009  12.292  26.089  0.00  0.00    +0.277 C 
ENDBRANCH  30   5
ENDBRANCH  20  24
BRANCH  11  27
ATOM     27  C   UNL     1      15.602   7.626  20.022  0.00  0.00    +0.035 A 
ATOM     31  C   UNL     1      15.363   8.857  19.413  0.00  0.00    +0.024 A 
ATOM     32  C   UNL     1      14.588   6.675  20.104  0.00  0.00    +0.024 A 
ATOM     33  C   UNL     1      14.103   9.137  18.885  0.00  0.00    +0.013 A 
ATOM     34  C   UNL     1      13.327   6.955  19.576  0.00  0.00    +0.013 A 
ATOM     35  C   UNL     1      13.085   8.186  18.967  0.00  0.00    +0.017 A 
BRANCH  35  36
ATOM      6  O   UNL     1      10.746   8.451  19.126  0.00  0.00    -0.292 OA
ATOM     36  C   UNL     1      11.771   8.478  18.415  0.00  0.00    +0.160 C 
ATOM     38  C   UNL     1      11.618   8.826  16.938  0.00  0.00    +0.091 C 
ENDBRANCH  35  36
ENDBRANCH  11  27
BRANCH  12  17
ATOM      1  O   UNL     1      23.367   4.774  19.837  0.00  0.00    -0.274 OA
ATOM      9  N   UNL     1      22.242   4.114  21.766  0.00  0.00    -0.302 N 
ATOM     17  C   UNL     1      22.463   4.914  20.659  0.00  0.00    +0.236 C 
ATOM     39  H   UNL     1      21.479   4.343  22.395  0.00  0.00    +0.150 HD
BRANCH   9  16
ATOM      3  O   UNL     1      24.303   4.501  23.519  0.00  0.00    -0.274 OA
ATOM     10  N   UNL     1      25.471   2.753  22.624  0.00  0.00    -0.314 N 
ATOM     16  C   UNL     1      23.072   2.984  22.100  0.00  0.00    +0.159 C 
ATOM     18  C   UNL     1      23.339   2.126  20.872  0.00  0.00    +0.033 C 
ATOM     19  C   UNL     1      24.355   1.047  21.215  0.00  0.00    +0.021 C 
ATOM     21  C   UNL     1      25.654   1.706  21.636  0.00  0.00    +0.104 C 
ATOM     22  C   UNL     1      24.330   3.513  22.782  0.00  0.00    +0.233 C 
ATOM     40  H   UNL     1      26.300   3.063  23.122  0.00  0.00    +0.149 HD
ENDBRANCH   9  16
ENDBRANCH  12  17
TORSDOF 6
ENDMDL
MODEL 4
REMARK VINA RESULT:      -6.3     22.436     26.533
REMARK  Name = 7673970
REMARK  8 active torsions:
REMARK  status: ('A' for Active; 'I' for Inactive)
REMARK    1  A    between atoms: O_5  and  C_30
REMARK    2  A    between atoms: O_5  and  C_37
REMARK    3  A    between atoms: N_9  and  C_16
REMARK    4  A    between atoms: N_11  and  C_27
REMARK    5  A    between atoms: C_12  and  C_17
REMARK    6  A    between atoms: C_20  and  C_24
REMARK    7  A    between atoms: C_35  and  C_36
REMARK    8  A    between atoms: C_36  and  C_38
REMARK                            x       y       z     vdW  Elec       q    Type
REMARK                         _______ _______ _______ _____ _____    ______ ____
ROOT
ATOM      2  O   UNL     1       5.829  -8.416  33.659  0.00  0.00    -0.270 OA
ATOM      4  O   UNL     1      11.646  -5.467  34.407  0.00  0.00    -0.252 OA
ATOM      7  N   UNL     1       8.102  -8.854  33.987  0.00  0.00    -0.283 N 
ATOM      8  N   UNL     1      10.569  -7.460  33.936  0.00  0.00    -0.282 N 
ATOM     11  N   UNL     1      12.271  -6.664  32.511  0.00  0.00    -0.269 N 
ATOM     12  C   UNL     1       8.292  -7.710  34.886  0.00  0.00    +0.179 C 
ATOM     13  C   UNL     1       9.766  -7.393  35.157  0.00  0.00    +0.141 C 
ATOM     14  C   UNL     1       9.318  -9.606  33.656  0.00  0.00    +0.128 C 
ATOM     15  C   UNL     1      10.369  -8.651  33.095  0.00  0.00    +0.128 C 
ATOM     20  C   UNL     1       6.852  -9.043  33.385  0.00  0.00    +0.247 C 
ATOM     23  C   UNL     1      11.520  -6.445  33.668  0.00  0.00    +0.307 C 
ATOM     41  H   UNL     1      12.084  -7.501  31.968  0.00  0.00    +0.156 HD
ENDROOT
BRANCH  20  24
ATOM     24  C   UNL     1       6.725 -10.083  32.355  0.00  0.00    +0.037 A 
ATOM     25  C   UNL     1       6.373 -11.379  32.720  0.00  0.00    +0.016 A 
ATOM     26  C   UNL     1       6.958  -9.766  31.020  0.00  0.00    +0.016 A 
ATOM     28  C   UNL     1       6.252 -12.366  31.742  0.00  0.00    +0.046 A 
ATOM     29  C   UNL     1       6.837 -10.753  30.042  0.00  0.00    +0.046 A 
ATOM     30  C   UNL     1       6.485 -12.054  30.404  0.00  0.00    +0.120 A 
BRANCH  30   5
ATOM      5  O   UNL     1       6.370 -13.017  29.449  0.00  0.00    -0.495 OA
ATOM     37  C   UNL     1       7.509 -13.254  28.624  0.00  0.00    +0.277 C 
ENDBRANCH  30   5
ENDBRANCH  20  24
BRANCH  11  27
ATOM     27  C   UNL     1      13.290  -5.842  31.967  0.00  0.00    +0.035 A 
ATOM     31  C   UNL     1      13.901  -6.198  30.767  0.00  0.00    +0.024 A 
ATOM     32  C   UNL     1      13.675  -4.682  32.634  0.00  0.00    +0.024 A 
ATOM     33  C   UNL     1      14.904  -5.389  30.231  0.00  0.00    +0.013 A 
ATOM     34  C   UNL     1      14.677  -3.873  32.100  0.00  0.00    +0.013 A 
ATOM     35  C   UNL     1      15.292  -4.226  30.899  0.00  0.00    +0.017 A 
BRANCH  35  36
ATOM      6  O   UNL     1      17.152  -3.822  29.505  0.00  0.00    -0.292 OA
ATOM     36  C   UNL     1      16.336  -3.382  30.340  0.00  0.00    +0.160 C 
ATOM     38  C   UNL     1      16.456  -1.923  30.769  0.00  0.00    +0.091 C 
ENDBRANCH  35  36
ENDBRANCH  11  27
BRANCH  12  17
ATOM      1  O   UNL     1       8.071  -8.956  36.910  0.00  0.00    -0.274 OA
ATOM      9  N   UNL     1       6.466  -7.351  36.392  0.00  0.00    -0.302 N 
ATOM     17  C   UNL     1       7.621  -8.081  36.174  0.00  0.00    +0.236 C 
ATOM     39  H   UNL     1       6.206  -6.629  35.727  0.00  0.00    +0.150 HD
BRANCH   9  16
ATOM      3  O   UNL     1       4.559  -9.307  36.303  0.00  0.00    -0.274 OA
ATOM     10  N   UNL     1       3.266  -8.200  37.827  0.00  0.00    -0.314 N 
ATOM     16  C   UNL     1       5.625  -7.535  37.548  0.00  0.00    +0.159 C 
ATOM     18  C   UNL     1       5.236  -6.194  38.154  0.00  0.00    +0.033 C 
ATOM     19  C   UNL     1       4.212  -6.411  39.257  0.00  0.00    +0.021 C 
ATOM     21  C   UNL     1       2.972  -7.051  38.663  0.00  0.00    +0.104 C 
ATOM     22  C   UNL     1       4.442  -8.404  37.133  0.00  0.00    +0.233 C 
ATOM     40  H   UNL     1       2.489  -8.813  37.600  0.00  0.00    +0.149 HD
ENDBRANCH   9  16
ENDBRANCH  12  17
TORSDOF 6
ENDMDL
MODEL 5
REMARK VINA RESULT:      -6.3      6.976     12.512
REMARK  Name = 7673970
REMARK  8 active torsions:
REMARK  status: ('A' for Active; 'I' for Inactive)
REMARK    1  A    between atoms: O_5  and  C_30
REMARK    2  A    between atoms: O_5  and  C_37
REMARK    3  A    between atoms: N_9  and  C_16
REMARK    4  A    between atoms: N_11  and  C_27
REMARK    5  A    between atoms: C_12  and  C_17
REMARK    6  A    between atoms: C_20  and  C_24
REMARK    7  A    between atoms: C_35  and  C_36
REMARK    8  A    between atoms: C_36  and  C_38
REMARK                            x       y       z     vdW  Elec       q    Type
REMARK                         _______ _______ _______ _____ _____    ______ ____
ROOT
ATOM      2  O   UNL     1      -8.339 -10.843   7.443  0.00  0.00    -0.270 OA
ATOM      4  O   UNL     1      -4.344 -12.152  12.485  0.00  0.00    -0.252 OA
ATOM      7  N   UNL     1      -6.630  -9.920   8.744  0.00  0.00    -0.283 N 
ATOM      8  N   UNL     1      -5.233 -10.490  11.143  0.00  0.00    -0.282 N 
ATOM     11  N   UNL     1      -5.336 -10.301  13.491  0.00  0.00    -0.269 N 
ATOM     12  C   UNL     1      -5.900 -11.187   8.858  0.00  0.00    +0.179 C 
ATOM     13  C   UNL     1      -4.792 -11.153   9.915  0.00  0.00    +0.141 C 
ATOM     14  C   UNL     1      -6.070  -8.797   9.505  0.00  0.00    +0.128 C 
ATOM     15  C   UNL     1      -5.921  -9.201  10.971  0.00  0.00    +0.128 C 
ATOM     20  C   UNL     1      -7.865  -9.906   8.084  0.00  0.00    +0.247 C 
ATOM     23  C   UNL     1      -4.924 -11.068  12.398  0.00  0.00    +0.307 C 
ATOM     41  H   UNL     1      -5.812  -9.423  13.310  0.00  0.00    +0.156 HD
ENDROOT
BRANCH  20  24
ATOM     24  C   UNL     1      -8.666  -8.675   8.130  0.00  0.00    +0.037 A 
ATOM     25  C   UNL     1      -9.565  -8.472   9.173  0.00  0.00    +0.016 A 
ATOM     26  C   UNL     1      -8.521  -7.719   7.128  0.00  0.00    +0.016 A 
ATOM     28  C   UNL     1     -10.325  -7.304   9.215  0.00  0.00    +0.046 A 
ATOM     29  C   UNL     1      -9.281  -6.550   7.171  0.00  0.00    +0.046 A 
ATOM     30  C   UNL     1     -10.184  -6.343   8.215  0.00  0.00    +0.120 A 
BRANCH  30   5
ATOM      5  O   UNL     1     -10.927  -5.203   8.254  0.00  0.00    -0.495 OA
ATOM     37  C   UNL     1     -10.518  -4.192   9.174  0.00  0.00    +0.277 C 
ENDBRANCH  30   5
ENDBRANCH  20  24
BRANCH  11  27
ATOM     27  C   UNL     1      -5.184 -10.598  14.869  0.00  0.00    +0.035 A 
ATOM     31  C   UNL     1      -6.306 -10.870  15.647  0.00  0.00    +0.024 A 
ATOM     32  C   UNL     1      -3.913 -10.620  15.437  0.00  0.00    +0.024 A 
ATOM     33  C   UNL     1      -6.156 -11.163  17.003  0.00  0.00    +0.013 A 
ATOM     34  C   UNL     1      -3.762 -10.912  16.793  0.00  0.00    +0.013 A 
ATOM     35  C   UNL     1      -4.884 -11.183  17.576  0.00  0.00    +0.017 A 
BRANCH  35  36
ATOM      6  O   UNL     1      -3.686 -12.019  19.428  0.00  0.00    -0.292 OA
ATOM     36  C   UNL     1      -4.727 -11.490  18.988  0.00  0.00    +0.160 C 
ATOM     38  C   UNL     1      -5.845 -11.168  19.974  0.00  0.00    +0.091 C 
ENDBRANCH  35  36
ENDBRANCH  11  27
BRANCH  12  17
ATOM      1  O   UNL     1      -4.489 -10.651   7.008  0.00  0.00    -0.274 OA
ATOM      9  N   UNL     1      -5.756 -12.603   6.932  0.00  0.00    -0.302 N 
ATOM     17  C   UNL     1      -5.291 -11.435   7.511  0.00  0.00    +0.236 C 
ATOM     39  H   UNL     1      -6.397 -13.191   7.455  0.00  0.00    +0.150 HD
BRANCH   9  16
ATOM      3  O   UNL     1      -3.447 -14.053   6.742  0.00  0.00    -0.274 OA
ATOM     10  N   UNL     1      -3.133 -13.382   4.581  0.00  0.00    -0.314 N 
ATOM     16  C   UNL     1      -5.342 -13.055   5.628  0.00  0.00    +0.159 C 
ATOM     18  C   UNL     1      -5.593 -11.982   4.578  0.00  0.00    +0.033 C 
ATOM     19  C   UNL     1      -4.988 -12.416   3.252  0.00  0.00    +0.021 C 
ATOM     21  C   UNL     1      -3.491 -12.585   3.422  0.00  0.00    +0.104 C 
ATOM     22  C   UNL     1      -3.889 -13.508   5.729  0.00  0.00    +0.233 C 
ATOM     40  H   UNL     1      -2.181 -13.734   4.619  0.00  0.00    +0.149 HD
ENDBRANCH   9  16
ENDBRANCH  12  17
TORSDOF 6
ENDMDL
MODEL 6
REMARK VINA RESULT:      -6.2     27.721     33.127
REMARK  Name = 7673970
REMARK  8 active torsions:
REMARK  status: ('A' for Active; 'I' for Inactive)
REMARK    1  A    between atoms: O_5  and  C_30
REMARK    2  A    between atoms: O_5  and  C_37
REMARK    3  A    between atoms: N_9  and  C_16
REMARK    4  A    between atoms: N_11  and  C_27
REMARK    5  A    between atoms: C_12  and  C_17
REMARK    6  A    between atoms: C_20  and  C_24
REMARK    7  A    between atoms: C_35  and  C_36
REMARK    8  A    between atoms: C_36  and  C_38
REMARK                            x       y       z     vdW  Elec       q    Type
REMARK                         _______ _______ _______ _____ _____    ______ ____
ROOT
ATOM      2  O   UNL     1       9.800   8.177   4.407  0.00  0.00    -0.270 OA
ATOM      4  O   UNL     1      15.952  10.463   4.298  0.00  0.00    -0.252 OA
ATOM      7  N   UNL     1      11.469   9.078   5.775  0.00  0.00    -0.283 N 
ATOM      8  N   UNL     1      14.232   9.694   5.640  0.00  0.00    -0.282 N 
ATOM     11  N   UNL     1      16.394   8.774   5.838  0.00  0.00    -0.269 N 
ATOM     12  C   UNL     1      11.939  10.014   4.748  0.00  0.00    +0.179 C 
ATOM     13  C   UNL     1      13.282  10.665   5.095  0.00  0.00    +0.141 C 
ATOM     14  C   UNL     1      12.245   9.061   7.020  0.00  0.00    +0.128 C 
ATOM     15  C   UNL     1      13.717   8.809   6.696  0.00  0.00    +0.128 C 
ATOM     20  C   UNL     1      10.455   8.168   5.448  0.00  0.00    +0.247 C 
ATOM     23  C   UNL     1      15.574   9.699   5.188  0.00  0.00    +0.307 C 
ATOM     41  H   UNL     1      15.981   8.186   6.555  0.00  0.00    +0.156 HD
ENDROOT
BRANCH  20  24
ATOM     24  C   UNL     1      10.116   7.122   6.424  0.00  0.00    +0.037 A 
ATOM     25  C   UNL     1      10.517   5.809   6.198  0.00  0.00    +0.016 A 
ATOM     26  C   UNL     1       9.395   7.452   7.568  0.00  0.00    +0.016 A 
ATOM     28  C   UNL     1      10.195   4.817   7.124  0.00  0.00    +0.046 A 
ATOM     29  C   UNL     1       9.073   6.460   8.494  0.00  0.00    +0.046 A 
ATOM     30  C   UNL     1       9.473   5.141   8.272  0.00  0.00    +0.120 A 
BRANCH  30   5
ATOM      5  O   UNL     1       9.156   4.174   9.174  0.00  0.00    -0.495 OA
ATOM     37  C   UNL     1       8.749   4.604  10.472  0.00  0.00    +0.277 C 
ENDBRANCH  30   5
ENDBRANCH  20  24
BRANCH  11  27
ATOM     27  C   UNL     1      17.772   8.528   5.618  0.00  0.00    +0.035 A 
ATOM     31  C   UNL     1      18.693   8.782   6.632  0.00  0.00    +0.024 A 
ATOM     32  C   UNL     1      18.200   8.032   4.389  0.00  0.00    +0.024 A 
ATOM     33  C   UNL     1      20.049   8.540   6.415  0.00  0.00    +0.013 A 
ATOM     34  C   UNL     1      19.557   7.790   4.171  0.00  0.00    +0.013 A 
ATOM     35  C   UNL     1      20.481   8.045   5.184  0.00  0.00    +0.017 A 
BRANCH  35  36
ATOM      6  O   UNL     1      22.774   8.549   5.416  0.00  0.00    -0.292 OA
ATOM     36  C   UNL     1      21.895   7.791   4.958  0.00  0.00    +0.160 C 
ATOM     38  C   UNL     1      22.338   6.577   4.148  0.00  0.00    +0.091 C 
ENDBRANCH  35  36
ENDBRANCH  11  27
BRANCH  12  17
ATOM      1  O   UNL     1      10.780  11.966   5.488  0.00  0.00    -0.274 OA
ATOM      9  N   UNL     1      10.077  10.907   3.536  0.00  0.00    -0.302 N 
ATOM     17  C   UNL     1      10.887  11.077   4.646  0.00  0.00    +0.236 C 
ATOM     39  H   UNL     1      10.279  10.150   2.890  0.00  0.00    +0.150 HD
BRANCH   9  16
ATOM      3  O   UNL     1       7.696  10.491   4.812  0.00  0.00    -0.274 OA
ATOM     10  N   UNL     1       6.538  11.439   3.087  0.00  0.00    -0.314 N 
ATOM     16  C   UNL     1       8.976  11.782   3.224  0.00  0.00    +0.159 C 
ATOM     18  C   UNL     1       8.936  12.092   1.734  0.00  0.00    +0.033 C 
ATOM     19  C   UNL     1       7.670  12.868   1.409  0.00  0.00    +0.021 C 
ATOM     21  C   UNL     1       6.464  12.018   1.758  0.00  0.00    +0.104 C 
ATOM     22  C   UNL     1       7.702  11.144   3.767  0.00  0.00    +0.233 C 
ATOM     40  H   UNL     1       5.675  11.067   3.473  0.00  0.00    +0.149 HD
ENDBRANCH   9  16
ENDBRANCH  12  17
TORSDOF 6
ENDMDL
MODEL 7
REMARK VINA RESULT:      -6.2     27.939     33.266
REMARK  Name = 7673970
REMARK  8 active torsions:
REMARK  status: ('A' for Active; 'I' for Inactive)
REMARK    1  A    between atoms: O_5  and  C_30
REMARK    2  A    between atoms: O_5  and  C_37
REMARK    3  A    between atoms: N_9  and  C_16
REMARK    4  A    between atoms: N_11  and  C_27
REMARK    5  A    between atoms: C_12  and  C_17
REMARK    6  A    between atoms: C_20  and  C_24
REMARK    7  A    between atoms: C_35  and  C_36
REMARK    8  A    between atoms: C_36  and  C_38
REMARK                            x       y       z     vdW  Elec       q    Type
REMARK                         _______ _______ _______ _____ _____    ______ ____
ROOT
ATOM      2  O   UNL     1       9.934   8.300   4.385  0.00  0.00    -0.270 OA
ATOM      4  O   UNL     1      16.132  10.462   4.300  0.00  0.00    -0.252 OA
ATOM      7  N   UNL     1      11.627   9.133   5.766  0.00  0.00    -0.283 N 
ATOM      8  N   UNL     1      14.402   9.695   5.631  0.00  0.00    -0.282 N 
ATOM     11  N   UNL     1      16.545   8.727   5.796  0.00  0.00    -0.269 N 
ATOM     12  C   UNL     1      12.112  10.085   4.760  0.00  0.00    +0.179 C 
ATOM     13  C   UNL     1      13.470  10.699   5.115  0.00  0.00    +0.141 C 
ATOM     14  C   UNL     1      12.409   9.069   7.006  0.00  0.00    +0.128 C 
ATOM     15  C   UNL     1      13.874   8.795   6.669  0.00  0.00    +0.128 C 
ATOM     20  C   UNL     1      10.594   8.252   5.422  0.00  0.00    +0.247 C 
ATOM     23  C   UNL     1      15.742   9.685   5.174  0.00  0.00    +0.307 C 
ATOM     41  H   UNL     1      16.124   8.130   6.500  0.00  0.00    +0.156 HD
ENDROOT
BRANCH  20  24
ATOM     24  C   UNL     1      10.238   7.190   6.373  0.00  0.00    +0.037 A 
ATOM     25  C   UNL     1      10.645   5.881   6.133  0.00  0.00    +0.016 A 
ATOM     26  C   UNL     1       9.495   7.500   7.509  0.00  0.00    +0.016 A 
ATOM     28  C   UNL     1      10.307   4.873   7.036  0.00  0.00    +0.046 A 
ATOM     29  C   UNL     1       9.157   6.492   8.412  0.00  0.00    +0.046 A 
ATOM     30  C   UNL     1       9.563   5.178   8.175  0.00  0.00    +0.120 A 
BRANCH  30   5
ATOM      5  O   UNL     1       9.230   4.195   9.055  0.00  0.00    -0.495 OA
ATOM     37  C   UNL     1       8.866   4.599  10.374  0.00  0.00    +0.277 C 
ENDBRANCH  30   5
ENDBRANCH  20  24
BRANCH  11  27
ATOM     27  C   UNL     1      17.918   8.458   5.562  0.00  0.00    +0.035 A 
ATOM     31  C   UNL     1      18.847   8.665   6.580  0.00  0.00    +0.024 A 
ATOM     32  C   UNL     1      18.330   7.988   4.318  0.00  0.00    +0.024 A 
ATOM     33  C   UNL     1      20.197   8.400   6.350  0.00  0.00    +0.013 A 
ATOM     34  C   UNL     1      19.680   7.724   4.088  0.00  0.00    +0.013 A 
ATOM     35  C   UNL     1      20.614   7.930   5.103  0.00  0.00    +0.017 A 
BRANCH  35  36
ATOM      6  O   UNL     1      22.390   6.609   4.289  0.00  0.00    -0.292 OA
ATOM     36  C   UNL     1      22.021   7.653   4.864  0.00  0.00    +0.160 C 
ATOM     38  C   UNL     1      23.088   8.645   5.316  0.00  0.00    +0.091 C 
ENDBRANCH  35  36
ENDBRANCH  11  27
BRANCH  12  17
ATOM      1  O   UNL     1      10.550  11.491   3.629  0.00  0.00    -0.274 OA
ATOM      9  N   UNL     1      10.843  11.748   5.925  0.00  0.00    -0.302 N 
ATOM     17  C   UNL     1      11.082  11.171   4.690  0.00  0.00    +0.236 C 
ATOM     39  H   UNL     1      11.321  11.379   6.742  0.00  0.00    +0.150 HD
BRANCH   9  16
ATOM      3  O   UNL     1      11.545  13.758   7.639  0.00  0.00    -0.274 OA
ATOM     10  N   UNL     1       9.354  14.238   8.068  0.00  0.00    -0.314 N 
ATOM     16  C   UNL     1       9.913  12.830   6.122  0.00  0.00    +0.159 C 
ATOM     18  C   UNL     1       8.484  12.310   6.187  0.00  0.00    +0.033 C 
ATOM     19  C   UNL     1       7.546  13.445   6.570  0.00  0.00    +0.021 C 
ATOM     21  C   UNL     1       7.934  13.967   7.940  0.00  0.00    +0.104 C 
ATOM     22  C   UNL     1      10.355  13.609   7.356  0.00  0.00    +0.233 C 
ATOM     40  H   UNL     1       9.642  14.808   8.857  0.00  0.00    +0.149 HD
ENDBRANCH   9  16
ENDBRANCH  12  17
TORSDOF 6
ENDMDL
MODEL 8
REMARK VINA RESULT:      -6.2     27.689     29.455
REMARK  Name = 7673970
REMARK  8 active torsions:
REMARK  status: ('A' for Active; 'I' for Inactive)
REMARK    1  A    between atoms: O_5  and  C_30
REMARK    2  A    between atoms: O_5  and  C_37
REMARK    3  A    between atoms: N_9  and  C_16
REMARK    4  A    between atoms: N_11  and  C_27
REMARK    5  A    between atoms: C_12  and  C_17
REMARK    6  A    between atoms: C_20  and  C_24
REMARK    7  A    between atoms: C_35  and  C_36
REMARK    8  A    between atoms: C_36  and  C_38
REMARK                            x       y       z     vdW  Elec       q    Type
REMARK                         _______ _______ _______ _____ _____    ______ ____
ROOT
ATOM      2  O   UNL     1      -2.371  12.003  38.843  0.00  0.00    -0.270 OA
ATOM      4  O   UNL     1      -7.519  12.374  34.786  0.00  0.00    -0.252 OA
ATOM      7  N   UNL     1      -3.172  11.231  36.787  0.00  0.00    -0.283 N 
ATOM      8  N   UNL     1      -5.596  11.203  35.319  0.00  0.00    -0.282 N 
ATOM     11  N   UNL     1      -7.646  10.066  35.061  0.00  0.00    -0.269 N 
ATOM     12  C   UNL     1      -3.813  12.506  36.448  0.00  0.00    +0.179 C 
ATOM     13  C   UNL     1      -4.764  12.404  35.251  0.00  0.00    +0.141 C 
ATOM     14  C   UNL     1      -3.393  10.138  35.833  0.00  0.00    +0.128 C 
ATOM     15  C   UNL     1      -4.894   9.945  35.621  0.00  0.00    +0.128 C 
ATOM     20  C   UNL     1      -2.560  11.091  38.039  0.00  0.00    +0.247 C 
ATOM     23  C   UNL     1      -6.980  11.293  35.032  0.00  0.00    +0.307 C 
ATOM     41  H   UNL     1      -7.110   9.233  35.280  0.00  0.00    +0.156 HD
ENDROOT
BRANCH  20  24
ATOM     24  C   UNL     1      -2.079   9.761  38.436  0.00  0.00    +0.037 A 
ATOM     25  C   UNL     1      -2.942   8.875  39.074  0.00  0.00    +0.016 A 
ATOM     26  C   UNL     1      -0.762   9.396  38.172  0.00  0.00    +0.016 A 
ATOM     28  C   UNL     1      -2.484   7.612  39.451  0.00  0.00    +0.046 A 
ATOM     29  C   UNL     1      -0.305   8.133  38.548  0.00  0.00    +0.046 A 
ATOM     30  C   UNL     1      -1.166   7.241  39.189  0.00  0.00    +0.120 A 
BRANCH  30   5
ATOM      5  O   UNL     1      -0.718   6.010  39.558  0.00  0.00    -0.495 OA
ATOM     37  C   UNL     1      -1.687   5.086  40.050  0.00  0.00    +0.277 C 
ENDBRANCH  30   5
ENDBRANCH  20  24
BRANCH  11  27
ATOM     27  C   UNL     1      -9.022   9.817  34.825  0.00  0.00    +0.035 A 
ATOM     31  C   UNL     1      -9.852   9.455  35.884  0.00  0.00    +0.024 A 
ATOM     32  C   UNL     1      -9.538   9.938  33.538  0.00  0.00    +0.024 A 
ATOM     33  C   UNL     1     -11.205   9.211  35.653  0.00  0.00    +0.013 A 
ATOM     34  C   UNL     1     -10.891   9.694  33.305  0.00  0.00    +0.013 A 
ATOM     35  C   UNL     1     -11.725   9.330  34.363  0.00  0.00    +0.017 A 
BRANCH  35  36
ATOM      6  O   UNL     1     -14.020   9.836  34.570  0.00  0.00    -0.292 OA
ATOM     36  C   UNL     1     -13.137   9.078  34.121  0.00  0.00    +0.160 C 
ATOM     38  C   UNL     1     -13.572   7.865  33.304  0.00  0.00    +0.091 C 
ENDBRANCH  35  36
ENDBRANCH  11  27
BRANCH  12  17
ATOM      1  O   UNL     1      -2.368  14.357  36.878  0.00  0.00    -0.274 OA
ATOM      9  N   UNL     1      -2.139  13.188  34.877  0.00  0.00    -0.302 N 
ATOM     17  C   UNL     1      -2.699  13.452  36.115  0.00  0.00    +0.236 C 
ATOM     39  H   UNL     1      -2.475  12.391  34.344  0.00  0.00    +0.150 HD
BRANCH   9  16
ATOM      3  O   UNL     1      -2.778  15.192  33.132  0.00  0.00    -0.274 OA
ATOM     10  N   UNL     1      -0.736  15.044  32.121  0.00  0.00    -0.314 N 
ATOM     16  C   UNL     1      -1.066  13.968  34.315  0.00  0.00    +0.159 C 
ATOM     18  C   UNL     1       0.125  13.085  33.973  0.00  0.00    +0.033 C 
ATOM     19  C   UNL     1       1.166  13.901  33.224  0.00  0.00    +0.021 C 
ATOM     21  C   UNL     1       0.559  14.414  31.933  0.00  0.00    +0.104 C 
ATOM     22  C   UNL     1      -1.627  14.752  33.133  0.00  0.00    +0.233 C 
ATOM     40  H   UNL     1      -1.082  15.615  31.356  0.00  0.00    +0.149 HD
ENDBRANCH   9  16
ENDBRANCH  12  17
TORSDOF 6
ENDMDL
MODEL 9
REMARK VINA RESULT:      -6.1     29.500     32.385
REMARK  Name = 7673970
REMARK  8 active torsions:
REMARK  status: ('A' for Active; 'I' for Inactive)
REMARK    1  A    between atoms: O_5  and  C_30
REMARK    2  A    between atoms: O_5  and  C_37
REMARK    3  A    between atoms: N_9  and  C_16
REMARK    4  A    between atoms: N_11  and  C_27
REMARK    5  A    between atoms: C_12  and  C_17
REMARK    6  A    between atoms: C_20  and  C_24
REMARK    7  A    between atoms: C_35  and  C_36
REMARK    8  A    between atoms: C_36  and  C_38
REMARK                            x       y       z     vdW  Elec       q    Type
REMARK                         _______ _______ _______ _____ _____    ______ ____
ROOT
ATOM      2  O   UNL     1      13.877   6.672  19.122  0.00  0.00    -0.270 OA
ATOM      4  O   UNL     1      13.470  11.675  14.890  0.00  0.00    -0.252 OA
ATOM      7  N   UNL     1      14.385   8.942  18.877  0.00  0.00    -0.283 N 
ATOM      8  N   UNL     1      14.466  10.898  16.828  0.00  0.00    -0.282 N 
ATOM     11  N   UNL     1      15.789  11.758  15.076  0.00  0.00    -0.269 N 
ATOM     12  C   UNL     1      13.161   9.234  18.124  0.00  0.00    +0.179 C 
ATOM     13  C   UNL     1      13.176  10.613  17.458  0.00  0.00    +0.141 C 
ATOM     14  C   UNL     1      15.320  10.063  19.025  0.00  0.00    +0.128 C 
ATOM     15  C   UNL     1      15.659  10.626  17.646  0.00  0.00    +0.128 C 
ATOM     20  C   UNL     1      14.657   7.617  19.242  0.00  0.00    +0.247 C 
ATOM     23  C   UNL     1      14.501  11.468  15.533  0.00  0.00    +0.307 C 
ATOM     41  H   UNL     1      16.574  11.543  15.682  0.00  0.00    +0.156 HD
ENDROOT
BRANCH  20  24
ATOM     24  C   UNL     1      15.964   7.312  19.838  0.00  0.00    +0.037 A 
ATOM     25  C   UNL     1      16.787   6.354  19.251  0.00  0.00    +0.016 A 
ATOM     26  C   UNL     1      16.373   7.983  20.988  0.00  0.00    +0.016 A 
ATOM     28  C   UNL     1      18.028   6.066  19.819  0.00  0.00    +0.046 A 
ATOM     29  C   UNL     1      17.615   7.694  21.554  0.00  0.00    +0.046 A 
ATOM     30  C   UNL     1      18.442   6.734  20.969  0.00  0.00    +0.120 A 
BRANCH  30   5
ATOM      5  O   UNL     1      19.652   6.451  21.524  0.00  0.00    -0.495 OA
ATOM     37  C   UNL     1      20.771   6.382  20.643  0.00  0.00    +0.277 C 
ENDBRANCH  30   5
ENDBRANCH  20  24
BRANCH  11  27
ATOM     27  C   UNL     1      16.163  12.324  13.831  0.00  0.00    +0.035 A 
ATOM     31  C   UNL     1      15.770  11.709  12.644  0.00  0.00    +0.024 A 
ATOM     32  C   UNL     1      16.921  13.492  13.800  0.00  0.00    +0.024 A 
ATOM     33  C   UNL     1      16.137  12.266  11.419  0.00  0.00    +0.013 A 
ATOM     34  C   UNL     1      17.289  14.049  12.575  0.00  0.00    +0.013 A 
ATOM     35  C   UNL     1      16.898  13.436  11.385  0.00  0.00    +0.017 A 
BRANCH  35  36
ATOM      6  O   UNL     1      17.544  15.232   9.999  0.00  0.00    -0.292 OA
ATOM     36  C   UNL     1      17.280  14.017  10.108  0.00  0.00    +0.160 C 
ATOM     38  C   UNL     1      17.368  13.144   8.861  0.00  0.00    +0.091 C 
ENDBRANCH  35  36
ENDBRANCH  11  27
BRANCH  12  17
ATOM      1  O   UNL     1      11.075   8.434  18.966  0.00  0.00    -0.274 OA
ATOM      9  N   UNL     1      12.230  10.057  20.171  0.00  0.00    -0.302 N 
ATOM     17  C   UNL     1      12.041   9.178  19.119  0.00  0.00    +0.236 C 
ATOM     39  H   UNL     1      13.085  10.604  20.209  0.00  0.00    +0.150 HD
BRANCH   9  16
ATOM      3  O   UNL     1      11.522  12.590  20.914  0.00  0.00    -0.274 OA
ATOM     10  N   UNL     1      11.025  11.894  23.032  0.00  0.00    -0.314 N 
ATOM     16  C   UNL     1      11.286  10.211  21.248  0.00  0.00    +0.159 C 
ATOM     18  C   UNL     1      11.553   9.199  22.352  0.00  0.00    +0.033 C 
ATOM     19  C   UNL     1      10.660   9.498  23.545  0.00  0.00    +0.021 C 
ATOM     21  C   UNL     1      10.984  10.883  24.071  0.00  0.00    +0.104 C 
ATOM     22  C   UNL     1      11.330  11.665  21.705  0.00  0.00    +0.233 C 
ATOM     40  H   UNL     1      10.994  12.863  23.334  0.00  0.00    +0.149 HD
ENDBRANCH   9  16
ENDBRANCH  12  17
TORSDOF 6
ENDMDL
MODEL 10
REMARK VINA RESULT:      -6.1     22.415     27.012
REMARK  Name = 7673970
REMARK  8 active torsions:
REMARK  status: ('A' for Active; 'I' for Inactive)
REMARK    1  A    between atoms: O_5  and  C_30
REMARK    2  A    between atoms: O_5  and  C_37
REMARK    3  A    between atoms: N_9  and  C_16
REMARK    4  A    between atoms: N_11  and  C_27
REMARK    5  A    between atoms: C_12  and  C_17
REMARK    6  A    between atoms: C_20  and  C_24
REMARK    7  A    between atoms: C_35  and  C_36
REMARK    8  A    between atoms: C_36  and  C_38
REMARK                            x       y       z     vdW  Elec       q    Type
REMARK                         _______ _______ _______ _____ _____    ______ ____
ROOT
ATOM      2  O   UNL     1       5.935  -7.306  32.833  0.00  0.00    -0.270 OA
ATOM      4  O   UNL     1      11.887  -4.634  33.560  0.00  0.00    -0.252 OA
ATOM      7  N   UNL     1       8.119  -7.797  33.508  0.00  0.00    -0.283 N 
ATOM      8  N   UNL     1      10.691  -6.610  33.428  0.00  0.00    -0.282 N 
ATOM     11  N   UNL     1      12.586  -6.275  32.064  0.00  0.00    -0.269 N 
ATOM     12  C   UNL     1       8.320  -6.490  34.144  0.00  0.00    +0.179 C 
ATOM     13  C   UNL     1       9.782  -6.211  34.503  0.00  0.00    +0.141 C 
ATOM     14  C   UNL     1       9.291  -8.680  33.495  0.00  0.00    +0.128 C 
ATOM     15  C   UNL     1      10.470  -7.949  32.857  0.00  0.00    +0.128 C 
ATOM     20  C   UNL     1       6.921  -8.042  32.825  0.00  0.00    +0.247 C 
ATOM     23  C   UNL     1      11.748  -5.747  33.049  0.00  0.00    +0.307 C 
ATOM     41  H   UNL     1      12.380  -7.201  31.704  0.00  0.00    +0.156 HD
ENDROOT
BRANCH  20  24
ATOM     24  C   UNL     1       6.804  -9.282  32.047  0.00  0.00    +0.037 A 
ATOM     25  C   UNL     1       6.556 -10.487  32.699  0.00  0.00    +0.016 A 
ATOM     26  C   UNL     1       6.942  -9.246  30.662  0.00  0.00    +0.016 A 
ATOM     28  C   UNL     1       6.446 -11.665  31.959  0.00  0.00    +0.046 A 
ATOM     29  C   UNL     1       6.830 -10.423  29.923  0.00  0.00    +0.046 A 
ATOM     30  C   UNL     1       6.583 -11.634  30.572  0.00  0.00    +0.120 A 
BRANCH  30   5
ATOM      5  O   UNL     1       6.477 -12.782  29.851  0.00  0.00    -0.495 OA
ATOM     37  C   UNL     1       5.238 -13.486  29.927  0.00  0.00    +0.277 C 
ENDBRANCH  30   5
ENDBRANCH  20  24
BRANCH  11  27
ATOM     27  C   UNL     1      13.720  -5.667  31.470  0.00  0.00    +0.035 A 
ATOM     31  C   UNL     1      14.189  -4.449  31.957  0.00  0.00    +0.024 A 
ATOM     32  C   UNL     1      14.362  -6.291  30.403  0.00  0.00    +0.024 A 
ATOM     33  C   UNL     1      15.305  -3.851  31.373  0.00  0.00    +0.013 A 
ATOM     34  C   UNL     1      15.478  -5.693  29.818  0.00  0.00    +0.013 A 
ATOM     35  C   UNL     1      15.950  -4.473  30.302  0.00  0.00    +0.017 A 
BRANCH  35  36
ATOM      6  O   UNL     1      18.040  -4.534  29.210  0.00  0.00    -0.292 OA
ATOM     36  C   UNL     1      17.114  -3.851  29.694  0.00  0.00    +0.160 C 
ATOM     38  C   UNL     1      17.231  -2.331  29.633  0.00  0.00    +0.091 C 
ENDBRANCH  35  36
ENDBRANCH  11  27
BRANCH  12  17
ATOM      1  O   UNL     1       6.999  -7.547  35.828  0.00  0.00    -0.274 OA
ATOM      9  N   UNL     1       7.366  -5.251  35.958  0.00  0.00    -0.302 N 
ATOM     17  C   UNL     1       7.498  -6.510  35.397  0.00  0.00    +0.236 C 
ATOM     39  H   UNL     1       7.850  -4.468  35.529  0.00  0.00    +0.150 HD
BRANCH   9  16
ATOM      3  O   UNL     1       5.597  -3.168  35.944  0.00  0.00    -0.274 OA
ATOM     10  N   UNL     1       5.764  -2.934  38.210  0.00  0.00    -0.314 N 
ATOM     16  C   UNL     1       6.605  -4.998  37.154  0.00  0.00    +0.159 C 
ATOM     18  C   UNL     1       7.466  -5.187  38.395  0.00  0.00    +0.033 C 
ATOM     19  C   UNL     1       6.692  -4.744  39.626  0.00  0.00    +0.021 C 
ATOM     21  C   UNL     1       6.351  -3.272  39.494  0.00  0.00    +0.104 C 
ATOM     22  C   UNL     1       5.982  -3.612  37.028  0.00  0.00    +0.233 C 
ATOM     40  H   UNL     1       5.296  -2.035  38.143  0.00  0.00    +0.149 HD
ENDBRANCH   9  16
ENDBRANCH  12  17
TORSDOF 6
ENDMDL
