REMARK  Name = 25313249
REMARK  10 active torsions:
REMARK  status: ('A' for Active; 'I' for Inactive)
REMARK    1  A    between atoms: O_2  and  C_21
REMARK    2  A    between atoms: O_4  and  C_24
REMARK    3  A    between atoms: O_4  and  C_34
REMARK    4  A    between atoms: N_6  and  C_14
REMARK    5  A    between atoms: N_7  and  C_23
REMARK    6  A    between atoms: C_8  and  C_12
REMARK    7  A    between atoms: C_9  and  C_15
REMARK    8  A    between atoms: C_12  and  C_14
REMARK    9  A    between atoms: C_15  and  C_21
REMARK   10  A    between atoms: C_20  and  C_22
REMARK                            x       y       z     vdW  Elec       q    Type
REMARK                         _______ _______ _______ _____ _____    ______ ____
ROOT
ATOM      1  O   UNL     1      -4.254  -2.363   2.106  0.00  0.00    -0.270 OA
ATOM      5  N   UNL     1      -4.111  -0.898   0.288  0.00  0.00    -0.297 N 
ATOM      8  C   UNL     1      -2.889   0.876  -0.953  0.00  0.00    +0.011 C 
ATOM      9  C   UNL     1      -3.903   1.909  -0.396  0.00  0.00    +0.006 C 
ATOM     10  C   UNL     1      -3.540  -0.518  -1.013  0.00  0.00    +0.112 C 
ATOM     11  C   UNL     1      -4.507   1.445   0.940  0.00  0.00    +0.023 C 
ATOM     13  C   UNL     1      -5.094   0.041   0.824  0.00  0.00    +0.108 C 
ATOM     20  C   UNL     1      -3.783  -2.044   1.015  0.00  0.00    +0.247 C 
ENDROOT
BRANCH  20  22
ATOM     22  C   UNL     1      -2.791  -2.963   0.445  0.00  0.00    +0.037 A 
ATOM     25  C   UNL     1      -1.437  -2.794   0.732  0.00  0.00    +0.013 A 
ATOM     26  C   UNL     1      -3.204  -4.006  -0.384  0.00  0.00    +0.013 A 
ATOM     30  C   UNL     1      -0.495  -3.668   0.190  0.00  0.00    +0.001 A 
ATOM     31  C   UNL     1      -2.262  -4.880  -0.926  0.00  0.00    +0.001 A 
ATOM     33  C   UNL     1      -0.907  -4.711  -0.639  0.00  0.00    +0.000 A 
ENDBRANCH  20  22
BRANCH   8  12
ATOM     12  C   UNL     1      -1.571   0.815  -0.172  0.00  0.00    +0.020 C 
BRANCH  12  14
ATOM     14  C   UNL     1      -0.437   0.318  -1.058  0.00  0.00    +0.085 C 
BRANCH  14   6
ATOM      6  N   UNL     1       0.804   0.252  -0.287  0.00  0.00    -0.299 NA
ATOM      7  N   UNL     1       3.614   0.502   0.156  0.00  0.00    -0.325 N 
ATOM     16  C   UNL     1       1.428   1.578  -0.201  0.00  0.00    +0.103 C 
ATOM     17  C   UNL     1       1.739  -0.701  -0.897  0.00  0.00    +0.103 C 
ATOM     18  C   UNL     1       2.699   1.534   0.651  0.00  0.00    +0.120 C 
ATOM     19  C   UNL     1       3.019  -0.822  -0.067  0.00  0.00    +0.120 C 
BRANCH   7  23
ATOM     23  C   UNL     1       4.973   0.565   0.484  0.00  0.00    +0.072 A 
ATOM     24  C   UNL     1       5.938   0.056  -0.386  0.00  0.00    +0.141 A 
ATOM     27  C   UNL     1       5.360   1.144   1.692  0.00  0.00    +0.027 A 
ATOM     28  C   UNL     1       7.289   0.127  -0.047  0.00  0.00    +0.047 A 
ATOM     29  C   UNL     1       6.711   1.215   2.031  0.00  0.00    +0.002 A 
ATOM     32  C   UNL     1       7.676   0.706   1.161  0.00  0.00    +0.004 A 
BRANCH  24   4
ATOM      4  O   UNL     1       5.581  -0.513  -1.572  0.00  0.00    -0.493 OA
ATOM     34  C   UNL     1       5.495   0.349  -2.704  0.00  0.00    +0.277 C 
ENDBRANCH  24   4
ENDBRANCH   7  23
ENDBRANCH  14   6
ENDBRANCH  12  14
ENDBRANCH   8  12
BRANCH   9  15
ATOM     15  C   UNL     1      -3.318   3.314  -0.264  0.00  0.00    +0.124 C 
BRANCH  15  21
ATOM      3  O   UNL     1      -5.597   4.174  -0.342  0.00  0.00    -0.251 OA
ATOM     21  C   UNL     1      -4.393   4.365  -0.259  0.00  0.00    +0.305 C 
BRANCH  21   2
ATOM      2  O   UNL     1      -3.830   5.596  -0.146  0.00  0.00    -0.481 OA
ATOM     35  H   UNL     1      -4.505   6.307  -0.139  0.00  0.00    +0.295 HD
ENDBRANCH  21   2
ENDBRANCH  15  21
ENDBRANCH   9  15
TORSDOF 9
