MODEL 1
REMARK VINA RESULT:      -6.7      0.000      0.000
REMARK  Name = 75536606
REMARK  7 active torsions:
REMARK  status: ('A' for Active; 'I' for Inactive)
REMARK    1  A    between atoms: O_3  and  C_10
REMARK    2  A    between atoms: N_5  and  C_9
REMARK    3  A    between atoms: N_5  and  C_14
REMARK    4  A    between atoms: N_6  and  C_13
REMARK    5  A    between atoms: C_11  and  C_13
REMARK    6  A    between atoms: C_14  and  C_15
REMARK    7  A    between atoms: C_16  and  C_18
REMARK                            x       y       z     vdW  Elec       q    Type
REMARK                         _______ _______ _______ _____ _____    ______ ____
ROOT
ATOM      2  O   UNL     1      12.922   6.700  20.648  0.00  0.00    -0.371 OA
ATOM      9  C   UNL     1      10.816   7.706  21.088  0.00  0.00    +0.111 C 
ATOM     10  C   UNL     1      11.415   8.336  19.844  0.00  0.00    +0.164 C 
ATOM     11  C   UNL     1      12.416   7.267  19.427  0.00  0.00    +0.165 C 
ATOM     12  C   UNL     1      12.042   7.072  21.723  0.00  0.00    +0.181 C 
ENDROOT
BRANCH  10   3
ATOM      3  O   UNL     1      10.451   8.577  18.837  0.00  0.00    -0.388 OA
ATOM     24  H   UNL     1      10.522   9.507  18.562  0.00  0.00    +0.210 HD
ENDBRANCH  10   3
BRANCH   9   5
ATOM      5  N   UNL     1      10.156   8.661  21.965  0.00  0.00    -0.304 NA
ATOM     23  H   UNL     1       9.443   8.173  22.508  0.00  0.00    +0.123 HD
BRANCH   5  14
ATOM     14  C   UNL     1      11.108   9.279  22.879  0.00  0.00    +0.136 C 
BRANCH  14  15
ATOM      7  N   UNL     1      10.441  11.460  23.956  0.00  0.00    -0.347 N 
ATOM      8  N   UNL     1      10.987  13.001  22.452  0.00  0.00    -0.244 NA
ATOM     15  C   UNL     1      10.974  10.779  22.897  0.00  0.00    +0.049 A 
ATOM     17  C   UNL     1      11.303  11.751  21.982  0.00  0.00    +0.134 A 
ATOM     19  C   UNL     1      10.470  12.792  23.642  0.00  0.00    +0.196 A 
ATOM     26  H   UNL     1      10.088  11.059  24.814  0.00  0.00    +0.167 HD
ENDBRANCH  14  15
ENDBRANCH   5  14
ENDBRANCH   9   5
BRANCH  11  13
ATOM     13  C   UNL     1      13.566   7.812  18.599  0.00  0.00    +0.138 C 
BRANCH  13   6
ATOM      4  O   UNL     1      15.548   9.228  20.118  0.00  0.00    -0.270 OA
ATOM      6  N   UNL     1      14.826   7.297  19.054  0.00  0.00    -0.308 N 
ATOM     16  C   UNL     1      15.730   8.059  19.789  0.00  0.00    +0.251 C 
ATOM     25  H   UNL     1      15.050   6.340  18.805  0.00  0.00    +0.149 HD
BRANCH  16  18
ATOM      1  S   UNL     1      17.997   8.099  21.360  0.00  0.00    -0.092 S 
ATOM     18  C   UNL     1      17.002   7.388  20.163  0.00  0.00    +0.074 A 
ATOM     20  C   UNL     1      17.538   6.219  19.671  0.00  0.00    +0.021 A 
ATOM     21  C   UNL     1      18.783   5.902  20.286  0.00  0.00    +0.008 A 
ATOM     22  C   UNL     1      19.151   6.842  21.225  0.00  0.00    +0.046 A 
ENDBRANCH  16  18
ENDBRANCH  13   6
ENDBRANCH  11  13
TORSDOF 7
ENDMDL
MODEL 2
REMARK VINA RESULT:      -6.5      2.423      6.318
REMARK  Name = 75536606
REMARK  7 active torsions:
REMARK  status: ('A' for Active; 'I' for Inactive)
REMARK    1  A    between atoms: O_3  and  C_10
REMARK    2  A    between atoms: N_5  and  C_9
REMARK    3  A    between atoms: N_5  and  C_14
REMARK    4  A    between atoms: N_6  and  C_13
REMARK    5  A    between atoms: C_11  and  C_13
REMARK    6  A    between atoms: C_14  and  C_15
REMARK    7  A    between atoms: C_16  and  C_18
REMARK                            x       y       z     vdW  Elec       q    Type
REMARK                         _______ _______ _______ _____ _____    ______ ____
ROOT
ATOM      2  O   UNL     1      10.888   8.615  20.022  0.00  0.00    -0.371 OA
ATOM      9  C   UNL     1      12.329   6.773  19.611  0.00  0.00    +0.111 C 
ATOM     10  C   UNL     1      12.041   6.853  21.098  0.00  0.00    +0.164 C 
ATOM     11  C   UNL     1      10.761   7.678  21.105  0.00  0.00    +0.165 C 
ATOM     12  C   UNL     1      11.946   8.171  19.155  0.00  0.00    +0.181 C 
ENDROOT
BRANCH  10   3
ATOM      3  O   UNL     1      11.851   5.580  21.687  0.00  0.00    -0.388 OA
ATOM     24  H   UNL     1      10.913   5.491  21.925  0.00  0.00    +0.210 HD
ENDBRANCH  10   3
BRANCH   9   5
ATOM      5  N   UNL     1      13.710   6.437  19.301  0.00  0.00    -0.304 NA
ATOM     23  H   UNL     1      13.926   6.761  18.358  0.00  0.00    +0.123 HD
BRANCH   5  14
ATOM     14  C   UNL     1      14.627   7.069  20.241  0.00  0.00    +0.136 C 
BRANCH  14  15
ATOM      7  N   UNL     1      16.450   5.936  18.917  0.00  0.00    -0.347 N 
ATOM      8  N   UNL     1      18.255   6.127  20.196  0.00  0.00    -0.244 NA
ATOM     15  C   UNL     1      16.045   6.606  20.037  0.00  0.00    +0.049 A 
ATOM     17  C   UNL     1      17.176   6.712  20.811  0.00  0.00    +0.134 A 
ATOM     19  C   UNL     1      17.784   5.669  19.058  0.00  0.00    +0.196 A 
ATOM     26  H   UNL     1      15.872   5.681  18.127  0.00  0.00    +0.167 HD
ENDBRANCH  14  15
ENDBRANCH   5  14
ENDBRANCH   9   5
BRANCH  11  13
ATOM     13  C   UNL     1      10.536   8.426  22.407  0.00  0.00    +0.138 C 
BRANCH  13   6
ATOM      4  O   UNL     1      11.066  11.238  22.175  0.00  0.00    -0.270 OA
ATOM      6  N   UNL     1      11.725   9.111  22.827  0.00  0.00    -0.308 N 
ATOM     16  C   UNL     1      11.897  10.484  22.674  0.00  0.00    +0.251 C 
ATOM     25  H   UNL     1      12.462   8.547  23.236  0.00  0.00    +0.149 HD
BRANCH  16  18
ATOM      1  S   UNL     1      14.602  10.754  22.202  0.00  0.00    -0.092 S 
ATOM     18  C   UNL     1      13.196  11.038  23.136  0.00  0.00    +0.074 A 
ATOM     20  C   UNL     1      13.464  11.785  24.261  0.00  0.00    +0.021 A 
ATOM     21  C   UNL     1      14.844  12.129  24.357  0.00  0.00    +0.008 A 
ATOM     22  C   UNL     1      15.577  11.632  23.302  0.00  0.00    +0.046 A 
ENDBRANCH  16  18
ENDBRANCH  13   6
ENDBRANCH  11  13
TORSDOF 7
ENDMDL
MODEL 3
REMARK VINA RESULT:      -6.4      2.705      7.301
REMARK  Name = 75536606
REMARK  7 active torsions:
REMARK  status: ('A' for Active; 'I' for Inactive)
REMARK    1  A    between atoms: O_3  and  C_10
REMARK    2  A    between atoms: N_5  and  C_9
REMARK    3  A    between atoms: N_5  and  C_14
REMARK    4  A    between atoms: N_6  and  C_13
REMARK    5  A    between atoms: C_11  and  C_13
REMARK    6  A    between atoms: C_14  and  C_15
REMARK    7  A    between atoms: C_16  and  C_18
REMARK                            x       y       z     vdW  Elec       q    Type
REMARK                         _______ _______ _______ _____ _____    ______ ____
ROOT
ATOM      2  O   UNL     1      11.136   8.895  20.350  0.00  0.00    -0.371 OA
ATOM      9  C   UNL     1      12.404   6.974  19.766  0.00  0.00    +0.111 C 
ATOM     10  C   UNL     1      12.050   6.904  21.239  0.00  0.00    +0.164 C 
ATOM     11  C   UNL     1      10.860   7.853  21.301  0.00  0.00    +0.165 C 
ATOM     12  C   UNL     1      12.186   8.450  19.475  0.00  0.00    +0.181 C 
ENDROOT
BRANCH  10   3
ATOM      3  O   UNL     1      11.703   5.596  21.656  0.00  0.00    -0.388 OA
ATOM     24  H   UNL     1      12.522   5.087  21.777  0.00  0.00    +0.210 HD
ENDBRANCH  10   3
BRANCH   9   5
ATOM      5  N   UNL     1      13.757   6.533  19.469  0.00  0.00    -0.304 NA
ATOM     23  H   UNL     1      14.023   6.877  18.546  0.00  0.00    +0.123 HD
BRANCH   5  14
ATOM     14  C   UNL     1      14.703   7.043  20.455  0.00  0.00    +0.136 C 
BRANCH  14  15
ATOM      7  N   UNL     1      17.124   6.702  21.075  0.00  0.00    -0.347 N 
ATOM      8  N   UNL     1      18.031   5.797  19.262  0.00  0.00    -0.244 NA
ATOM     15  C   UNL     1      16.111   6.597  20.163  0.00  0.00    +0.049 A 
ATOM     17  C   UNL     1      16.695   6.036  19.052  0.00  0.00    +0.134 A 
ATOM     19  C   UNL     1      18.257   6.209  20.489  0.00  0.00    +0.196 A 
ATOM     26  H   UNL     1      17.053   7.076  22.012  0.00  0.00    +0.167 HD
ENDBRANCH  14  15
ENDBRANCH   5  14
ENDBRANCH   9   5
BRANCH  11  13
ATOM     13  C   UNL     1      10.646   8.457  22.678  0.00  0.00    +0.138 C 
BRANCH  13   6
ATOM      4  O   UNL     1      12.570  10.538  23.135  0.00  0.00    -0.270 OA
ATOM      6  N   UNL     1      10.415   9.871  22.596  0.00  0.00    -0.308 N 
ATOM     16  C   UNL     1      11.412  10.813  22.835  0.00  0.00    +0.251 C 
ATOM     25  H   UNL     1       9.474  10.171  22.366  0.00  0.00    +0.149 HD
BRANCH  16  18
ATOM      1  S   UNL     1      10.431  13.040  24.134  0.00  0.00    -0.092 S 
ATOM     18  C   UNL     1      11.005  12.238  22.735  0.00  0.00    +0.074 A 
ATOM     20  C   UNL     1      11.017  13.064  21.634  0.00  0.00    +0.021 A 
ATOM     21  C   UNL     1      10.547  14.373  21.942  0.00  0.00    +0.008 A 
ATOM     22  C   UNL     1      10.195  14.498  23.268  0.00  0.00    +0.046 A 
ENDBRANCH  16  18
ENDBRANCH  13   6
ENDBRANCH  11  13
TORSDOF 7
ENDMDL
MODEL 4
REMARK VINA RESULT:      -6.0      3.716      5.505
REMARK  Name = 75536606
REMARK  7 active torsions:
REMARK  status: ('A' for Active; 'I' for Inactive)
REMARK    1  A    between atoms: O_3  and  C_10
REMARK    2  A    between atoms: N_5  and  C_9
REMARK    3  A    between atoms: N_5  and  C_14
REMARK    4  A    between atoms: N_6  and  C_13
REMARK    5  A    between atoms: C_11  and  C_13
REMARK    6  A    between atoms: C_14  and  C_15
REMARK    7  A    between atoms: C_16  and  C_18
REMARK                            x       y       z     vdW  Elec       q    Type
REMARK                         _______ _______ _______ _____ _____    ______ ____
ROOT
ATOM      2  O   UNL     1      12.768   9.457  19.294  0.00  0.00    -0.371 OA
ATOM      9  C   UNL     1      12.351   9.376  16.958  0.00  0.00    +0.111 C 
ATOM     10  C   UNL     1      12.230   7.976  17.531  0.00  0.00    +0.164 C 
ATOM     11  C   UNL     1      11.993   8.281  19.004  0.00  0.00    +0.165 C 
ATOM     12  C   UNL     1      13.134  10.082  18.052  0.00  0.00    +0.181 C 
ENDROOT
BRANCH  10   3
ATOM      3  O   UNL     1      11.158   7.245  16.965  0.00  0.00    -0.388 OA
ATOM     24  H   UNL     1      10.373   7.818  16.948  0.00  0.00    +0.210 HD
ENDBRANCH  10   3
BRANCH   9   5
ATOM      5  N   UNL     1      13.017   9.422  15.666  0.00  0.00    -0.304 NA
ATOM     23  H   UNL     1      12.429   9.936  15.008  0.00  0.00    +0.123 HD
BRANCH   5  14
ATOM     14  C   UNL     1      14.310  10.088  15.765  0.00  0.00    +0.136 C 
BRANCH  14  15
ATOM      7  N   UNL     1      13.472  12.240  14.751  0.00  0.00    -0.347 N 
ATOM      8  N   UNL     1      15.015  12.770  13.244  0.00  0.00    -0.244 NA
ATOM     15  C   UNL     1      14.415  11.252  14.816  0.00  0.00    +0.049 A 
ATOM     17  C   UNL     1      15.356  11.601  13.877  0.00  0.00    +0.134 A 
ATOM     19  C   UNL     1      13.876  13.129  13.793  0.00  0.00    +0.196 A 
ATOM     26  H   UNL     1      12.630  12.305  15.307  0.00  0.00    +0.167 HD
ENDBRANCH  14  15
ENDBRANCH   5  14
ENDBRANCH   9   5
BRANCH  11  13
ATOM     13  C   UNL     1      12.412   7.150  19.926  0.00  0.00    +0.138 C 
BRANCH  13   6
ATOM      4  O   UNL     1      14.613   7.453  21.743  0.00  0.00    -0.270 OA
ATOM      6  N   UNL     1      13.774   6.764  19.693  0.00  0.00    -0.308 N 
ATOM     16  C   UNL     1      14.781   6.950  20.636  0.00  0.00    +0.251 C 
ATOM     25  H   UNL     1      13.989   6.355  18.790  0.00  0.00    +0.149 HD
BRANCH  16  18
ATOM      1  S   UNL     1      17.440   6.715  21.334  0.00  0.00    -0.092 S 
ATOM     18  C   UNL     1      16.145   6.521  20.231  0.00  0.00    +0.074 A 
ATOM     20  C   UNL     1      16.557   5.960  19.043  0.00  0.00    +0.021 A 
ATOM     21  C   UNL     1      17.955   5.686  19.037  0.00  0.00    +0.008 A 
ATOM     22  C   UNL     1      18.558   6.048  20.222  0.00  0.00    +0.046 A 
ENDBRANCH  16  18
ENDBRANCH  13   6
ENDBRANCH  11  13
TORSDOF 7
ENDMDL
MODEL 5
REMARK VINA RESULT:      -5.9      3.470      6.994
REMARK  Name = 75536606
REMARK  7 active torsions:
REMARK  status: ('A' for Active; 'I' for Inactive)
REMARK    1  A    between atoms: O_3  and  C_10
REMARK    2  A    between atoms: N_5  and  C_9
REMARK    3  A    between atoms: N_5  and  C_14
REMARK    4  A    between atoms: N_6  and  C_13
REMARK    5  A    between atoms: C_11  and  C_13
REMARK    6  A    between atoms: C_14  and  C_15
REMARK    7  A    between atoms: C_16  and  C_18
REMARK                            x       y       z     vdW  Elec       q    Type
REMARK                         _______ _______ _______ _____ _____    ______ ____
ROOT
ATOM      2  O   UNL     1      11.587   6.831  21.989  0.00  0.00    -0.371 OA
ATOM      9  C   UNL     1      12.378   7.530  19.861  0.00  0.00    +0.111 C 
ATOM     10  C   UNL     1      11.613   8.672  20.504  0.00  0.00    +0.164 C 
ATOM     11  C   UNL     1      11.661   8.267  21.972  0.00  0.00    +0.165 C 
ATOM     12  C   UNL     1      11.879   6.343  20.668  0.00  0.00    +0.181 C 
ENDROOT
BRANCH  10   3
ATOM      3  O   UNL     1      12.224   9.929  20.285  0.00  0.00    -0.388 OA
ATOM     24  H   UNL     1      12.315  10.378  21.142  0.00  0.00    +0.210 HD
ENDBRANCH  10   3
BRANCH   9   5
ATOM      5  N   UNL     1      12.127   7.390  18.436  0.00  0.00    -0.304 NA
ATOM     23  H   UNL     1      11.511   8.145  18.132  0.00  0.00    +0.123 HD
BRANCH   5  14
ATOM     14  C   UNL     1      13.369   7.457  17.675  0.00  0.00    +0.136 C 
BRANCH  14  15
ATOM      7  N   UNL     1      14.322   9.780  17.912  0.00  0.00    -0.347 N 
ATOM      8  N   UNL     1      13.803  10.781  15.998  0.00  0.00    -0.244 NA
ATOM     15  C   UNL     1      13.644   8.850  17.174  0.00  0.00    +0.049 A 
ATOM     17  C   UNL     1      13.334   9.491  15.998  0.00  0.00    +0.134 A 
ATOM     19  C   UNL     1      14.392  10.924  17.164  0.00  0.00    +0.196 A 
ATOM     26  H   UNL     1      14.702   9.651  18.840  0.00  0.00    +0.167 HD
ENDBRANCH  14  15
ENDBRANCH   5  14
ENDBRANCH   9   5
BRANCH  11  13
ATOM     13  C   UNL     1      10.523   8.849  22.792  0.00  0.00    +0.138 C 
BRANCH  13   6
ATOM      4  O   UNL     1      11.181  10.721  24.866  0.00  0.00    -0.270 OA
ATOM      6  N   UNL     1      10.489  10.280  22.696  0.00  0.00    -0.308 N 
ATOM     16  C   UNL     1      10.827  11.115  23.758  0.00  0.00    +0.251 C 
ATOM     25  H   UNL     1      10.190  10.675  21.811  0.00  0.00    +0.149 HD
BRANCH  16  18
ATOM      1  S   UNL     1      11.155  13.189  21.969  0.00  0.00    -0.092 S 
ATOM     18  C   UNL     1      10.716  12.574  23.505  0.00  0.00    +0.074 A 
ATOM     20  C   UNL     1      10.294  13.569  24.359  0.00  0.00    +0.021 A 
ATOM     21  C   UNL     1      10.331  14.853  23.744  0.00  0.00    +0.008 A 
ATOM     22  C   UNL     1      10.780  14.791  22.442  0.00  0.00    +0.046 A 
ENDBRANCH  16  18
ENDBRANCH  13   6
ENDBRANCH  11  13
TORSDOF 7
ENDMDL
MODEL 6
REMARK VINA RESULT:      -5.9      1.652      2.290
REMARK  Name = 75536606
REMARK  7 active torsions:
REMARK  status: ('A' for Active; 'I' for Inactive)
REMARK    1  A    between atoms: O_3  and  C_10
REMARK    2  A    between atoms: N_5  and  C_9
REMARK    3  A    between atoms: N_5  and  C_14
REMARK    4  A    between atoms: N_6  and  C_13
REMARK    5  A    between atoms: C_11  and  C_13
REMARK    6  A    between atoms: C_14  and  C_15
REMARK    7  A    between atoms: C_16  and  C_18
REMARK                            x       y       z     vdW  Elec       q    Type
REMARK                         _______ _______ _______ _____ _____    ______ ____
ROOT
ATOM      2  O   UNL     1      10.745   8.470  20.855  0.00  0.00    -0.371 OA
ATOM      9  C   UNL     1      11.859   9.936  22.355  0.00  0.00    +0.111 C 
ATOM     10  C   UNL     1      12.806   8.818  21.960  0.00  0.00    +0.164 C 
ATOM     11  C   UNL     1      12.164   8.332  20.668  0.00  0.00    +0.165 C 
ATOM     12  C   UNL     1      10.514   9.337  21.979  0.00  0.00    +0.181 C 
ENDROOT
BRANCH  10   3
ATOM      3  O   UNL     1      14.130   9.272  21.752  0.00  0.00    -0.388 OA
ATOM     24  H   UNL     1      14.742   8.581  22.058  0.00  0.00    +0.210 HD
ENDBRANCH  10   3
BRANCH   9   5
ATOM      5  N   UNL     1      11.943  10.302  23.760  0.00  0.00    -0.304 NA
ATOM     23  H   UNL     1      12.492   9.598  24.254  0.00  0.00    +0.123 HD
BRANCH   5  14
ATOM     14  C   UNL     1      12.580  11.603  23.926  0.00  0.00    +0.136 C 
BRANCH  14  15
ATOM      7  N   UNL     1      10.315  12.711  23.984  0.00  0.00    -0.347 N 
ATOM      8  N   UNL     1      10.629  14.650  22.947  0.00  0.00    -0.244 NA
ATOM     15  C   UNL     1      11.633  12.733  23.622  0.00  0.00    +0.049 A 
ATOM     17  C   UNL     1      11.803  13.939  22.984  0.00  0.00    +0.134 A 
ATOM     19  C   UNL     1       9.753  13.883  23.558  0.00  0.00    +0.196 A 
ATOM     26  H   UNL     1       9.839  11.967  24.476  0.00  0.00    +0.167 HD
ENDBRANCH  14  15
ENDBRANCH   5  14
ENDBRANCH   9   5
BRANCH  11  13
ATOM     13  C   UNL     1      12.499   6.888  20.338  0.00  0.00    +0.138 C 
BRANCH  13   6
ATOM      4  O   UNL     1      14.480   7.269  18.296  0.00  0.00    -0.270 OA
ATOM      6  N   UNL     1      13.907   6.639  20.454  0.00  0.00    -0.308 N 
ATOM     16  C   UNL     1      14.799   6.853  19.407  0.00  0.00    +0.251 C 
ATOM     25  H   UNL     1      14.240   6.280  21.342  0.00  0.00    +0.149 HD
BRANCH  16  18
ATOM      1  S   UNL     1      16.960   7.132  21.098  0.00  0.00    -0.092 S 
ATOM     18  C   UNL     1      16.222   6.524  19.679  0.00  0.00    +0.074 A 
ATOM     20  C   UNL     1      17.091   5.764  18.928  0.00  0.00    +0.021 A 
ATOM     21  C   UNL     1      18.381   5.680  19.526  0.00  0.00    +0.008 A 
ATOM     22  C   UNL     1      18.449   6.379  20.712  0.00  0.00    +0.046 A 
ENDBRANCH  16  18
ENDBRANCH  13   6
ENDBRANCH  11  13
TORSDOF 7
ENDMDL
MODEL 7
REMARK VINA RESULT:      -5.8     27.015     29.693
REMARK  Name = 75536606
REMARK  7 active torsions:
REMARK  status: ('A' for Active; 'I' for Inactive)
REMARK    1  A    between atoms: O_3  and  C_10
REMARK    2  A    between atoms: N_5  and  C_9
REMARK    3  A    between atoms: N_5  and  C_14
REMARK    4  A    between atoms: N_6  and  C_13
REMARK    5  A    between atoms: C_11  and  C_13
REMARK    6  A    between atoms: C_14  and  C_15
REMARK    7  A    between atoms: C_16  and  C_18
REMARK                            x       y       z     vdW  Elec       q    Type
REMARK                         _______ _______ _______ _____ _____    ______ ____
ROOT
ATOM      2  O   UNL     1     -17.400   5.472  24.462  0.00  0.00    -0.371 OA
ATOM      9  C   UNL     1     -16.018   4.119  23.084  0.00  0.00    +0.111 C 
ATOM     10  C   UNL     1     -15.759   3.771  24.538  0.00  0.00    +0.164 C 
ATOM     11  C   UNL     1     -17.030   4.292  25.195  0.00  0.00    +0.165 C 
ATOM     12  C   UNL     1     -16.684   5.478  23.215  0.00  0.00    +0.181 C 
ENDROOT
BRANCH  10   3
ATOM      3  O   UNL     1     -15.591   2.381  24.746  0.00  0.00    -0.388 OA
ATOM     24  H   UNL     1     -15.235   2.247  25.640  0.00  0.00    +0.210 HD
ENDBRANCH  10   3
BRANCH   9   5
ATOM      5  N   UNL     1     -14.813   4.155  22.270  0.00  0.00    -0.304 NA
ATOM     23  H   UNL     1     -15.062   4.444  21.324  0.00  0.00    +0.123 HD
BRANCH   5  14
ATOM     14  C   UNL     1     -13.841   5.096  22.813  0.00  0.00    +0.136 C 
BRANCH  14  15
ATOM      7  N   UNL     1     -12.037   5.955  21.275  0.00  0.00    -0.347 N 
ATOM      8  N   UNL     1     -12.999   7.636  20.188  0.00  0.00    -0.244 NA
ATOM     15  C   UNL     1     -13.314   6.029  21.755  0.00  0.00    +0.049 A 
ATOM     17  C   UNL     1     -13.888   7.074  21.070  0.00  0.00    +0.134 A 
ATOM     19  C   UNL     1     -11.894   6.940  20.336  0.00  0.00    +0.196 A 
ATOM     26  H   UNL     1     -11.324   5.296  21.558  0.00  0.00    +0.167 HD
ENDBRANCH  14  15
ENDBRANCH   5  14
ENDBRANCH   9   5
BRANCH  11  13
ATOM     13  C   UNL     1     -16.850   4.636  26.663  0.00  0.00    +0.138 C 
BRANCH  13   6
ATOM      4  O   UNL     1     -15.952   4.682  29.390  0.00  0.00    -0.270 OA
ATOM      6  N   UNL     1     -16.224   3.560  27.377  0.00  0.00    -0.308 N 
ATOM     16  C   UNL     1     -15.819   3.672  28.704  0.00  0.00    +0.251 C 
ATOM     25  H   UNL     1     -16.068   2.698  26.867  0.00  0.00    +0.149 HD
BRANCH  16  18
ATOM      1  S   UNL     1     -15.846   0.931  29.016  0.00  0.00    -0.092 S 
ATOM     18  C   UNL     1     -15.163   2.476  29.293  0.00  0.00    +0.074 A 
ATOM     20  C   UNL     1     -14.028   2.408  30.070  0.00  0.00    +0.021 A 
ATOM     21  C   UNL     1     -13.715   1.069  30.444  0.00  0.00    +0.008 A 
ATOM     22  C   UNL     1     -14.623   0.165  29.938  0.00  0.00    +0.046 A 
ENDBRANCH  16  18
ENDBRANCH  13   6
ENDBRANCH  11  13
TORSDOF 7
ENDMDL
MODEL 8
REMARK VINA RESULT:      -5.8     25.821     27.373
REMARK  Name = 75536606
REMARK  7 active torsions:
REMARK  status: ('A' for Active; 'I' for Inactive)
REMARK    1  A    between atoms: O_3  and  C_10
REMARK    2  A    between atoms: N_5  and  C_9
REMARK    3  A    between atoms: N_5  and  C_14
REMARK    4  A    between atoms: N_6  and  C_13
REMARK    5  A    between atoms: C_11  and  C_13
REMARK    6  A    between atoms: C_14  and  C_15
REMARK    7  A    between atoms: C_16  and  C_18
REMARK                            x       y       z     vdW  Elec       q    Type
REMARK                         _______ _______ _______ _____ _____    ______ ____
ROOT
ATOM      2  O   UNL     1      -1.337 -11.312  15.009  0.00  0.00    -0.371 OA
ATOM      9  C   UNL     1      -3.462 -10.893  15.982  0.00  0.00    +0.111 C 
ATOM     10  C   UNL     1      -3.596 -10.866  14.471  0.00  0.00    +0.164 C 
ATOM     11  C   UNL     1      -2.357 -11.647  14.053  0.00  0.00    +0.165 C 
ATOM     12  C   UNL     1      -1.964 -10.709  16.155  0.00  0.00    +0.181 C 
ENDROOT
BRANCH  10   3
ATOM      3  O   UNL     1      -4.785 -11.484  14.017  0.00  0.00    -0.388 OA
ATOM     24  H   UNL     1      -4.656 -11.753  13.092  0.00  0.00    +0.210 HD
ENDBRANCH  10   3
BRANCH   9   5
ATOM      5  N   UNL     1      -4.239  -9.864  16.655  0.00  0.00    -0.304 NA
ATOM     23  H   UNL     1      -4.657  -9.252  15.953  0.00  0.00    +0.123 HD
BRANCH   5  14
ATOM     14  C   UNL     1      -5.302 -10.452  17.462  0.00  0.00    +0.136 C 
BRANCH  14  15
ATOM      7  N   UNL     1      -7.554  -9.436  17.967  0.00  0.00    -0.347 N 
ATOM      8  N   UNL     1      -8.545  -9.291  15.985  0.00  0.00    -0.244 NA
ATOM     15  C   UNL     1      -6.659  -9.936  17.063  0.00  0.00    +0.049 A 
ATOM     17  C   UNL     1      -7.293  -9.836  15.847  0.00  0.00    +0.134 A 
ATOM     19  C   UNL     1      -8.671  -9.061  17.273  0.00  0.00    +0.196 A 
ATOM     26  H   UNL     1      -7.419  -9.356  18.966  0.00  0.00    +0.167 HD
ENDBRANCH  14  15
ENDBRANCH   5  14
ENDBRANCH   9   5
BRANCH  11  13
ATOM     13  C   UNL     1      -1.878 -11.308  12.653  0.00  0.00    +0.138 C 
BRANCH  13   6
ATOM      4  O   UNL     1      -1.777  -9.190  10.717  0.00  0.00    -0.270 OA
ATOM      6  N   UNL     1      -2.959 -10.847  11.829  0.00  0.00    -0.308 N 
ATOM     16  C   UNL     1      -2.820  -9.809  10.913  0.00  0.00    +0.251 C 
ATOM     25  H   UNL     1      -3.857 -11.305  11.949  0.00  0.00    +0.149 HD
BRANCH  16  18
ATOM      1  S   UNL     1      -4.554 -10.428   8.859  0.00  0.00    -0.092 S 
ATOM     18  C   UNL     1      -4.041  -9.434  10.155  0.00  0.00    +0.074 A 
ATOM     20  C   UNL     1      -4.874  -8.353  10.339  0.00  0.00    +0.021 A 
ATOM     21  C   UNL     1      -5.948  -8.340   9.403  0.00  0.00    +0.008 A 
ATOM     22  C   UNL     1      -5.895  -9.412   8.539  0.00  0.00    +0.046 A 
ENDBRANCH  16  18
ENDBRANCH  13   6
ENDBRANCH  11  13
TORSDOF 7
ENDMDL
MODEL 9
REMARK VINA RESULT:      -5.8      1.726      2.151
REMARK  Name = 75536606
REMARK  7 active torsions:
REMARK  status: ('A' for Active; 'I' for Inactive)
REMARK    1  A    between atoms: O_3  and  C_10
REMARK    2  A    between atoms: N_5  and  C_9
REMARK    3  A    between atoms: N_5  and  C_14
REMARK    4  A    between atoms: N_6  and  C_13
REMARK    5  A    between atoms: C_11  and  C_13
REMARK    6  A    between atoms: C_14  and  C_15
REMARK    7  A    between atoms: C_16  and  C_18
REMARK                            x       y       z     vdW  Elec       q    Type
REMARK                         _______ _______ _______ _____ _____    ______ ____
ROOT
ATOM      2  O   UNL     1      14.649   7.654  21.735  0.00  0.00    -0.371 OA
ATOM      9  C   UNL     1      12.302   7.828  21.417  0.00  0.00    +0.111 C 
ATOM     10  C   UNL     1      12.929   7.251  20.162  0.00  0.00    +0.164 C 
ATOM     11  C   UNL     1      14.251   6.729  20.708  0.00  0.00    +0.165 C 
ATOM     12  C   UNL     1      13.509   8.452  22.097  0.00  0.00    +0.181 C 
ENDROOT
BRANCH  10   3
ATOM      3  O   UNL     1      12.151   6.218  19.588  0.00  0.00    -0.388 OA
ATOM     24  H   UNL     1      11.236   6.316  19.900  0.00  0.00    +0.210 HD
ENDBRANCH  10   3
BRANCH   9   5
ATOM      5  N   UNL     1      11.243   8.789  21.151  0.00  0.00    -0.304 NA
ATOM     23  H   UNL     1      10.426   8.291  20.795  0.00  0.00    +0.123 HD
BRANCH   5  14
ATOM     14  C   UNL     1      10.869   9.507  22.364  0.00  0.00    +0.136 C 
BRANCH  14  15
ATOM      7  N   UNL     1      10.492  11.899  23.067  0.00  0.00    -0.347 N 
ATOM      8  N   UNL     1      11.637  13.092  21.584  0.00  0.00    -0.244 NA
ATOM     15  C   UNL     1      11.060  10.993  22.216  0.00  0.00    +0.049 A 
ATOM     17  C   UNL     1      11.761  11.753  21.310  0.00  0.00    +0.134 A 
ATOM     19  C   UNL     1      10.866  13.146  22.648  0.00  0.00    +0.196 A 
ATOM     26  H   UNL     1       9.902  11.690  23.862  0.00  0.00    +0.167 HD
ENDBRANCH  14  15
ENDBRANCH   5  14
ENDBRANCH   9   5
BRANCH  11  13
ATOM     13  C   UNL     1      15.341   6.633  19.654  0.00  0.00    +0.138 C 
BRANCH  13   6
ATOM      4  O   UNL     1      17.749   5.461  18.620  0.00  0.00    -0.270 OA
ATOM      6  N   UNL     1      16.646   6.694  20.247  0.00  0.00    -0.308 N 
ATOM     16  C   UNL     1      17.763   6.094  19.673  0.00  0.00    +0.251 C 
ATOM     25  H   UNL     1      16.729   7.190  21.128  0.00  0.00    +0.149 HD
BRANCH  16  18
ATOM      1  S   UNL     1      19.275   7.594  21.426  0.00  0.00    -0.092 S 
ATOM     18  C   UNL     1      19.038   6.227  20.424  0.00  0.00    +0.074 A 
ATOM     20  C   UNL     1      20.121   5.377  20.443  0.00  0.00    +0.021 A 
ATOM     21  C   UNL     1      21.161   5.855  21.292  0.00  0.00    +0.008 A 
ATOM     22  C   UNL     1      20.831   7.053  21.890  0.00  0.00    +0.046 A 
ENDBRANCH  16  18
ENDBRANCH  13   6
ENDBRANCH  11  13
TORSDOF 7
ENDMDL
MODEL 10
REMARK VINA RESULT:      -5.8      3.237      4.206
REMARK  Name = 75536606
REMARK  7 active torsions:
REMARK  status: ('A' for Active; 'I' for Inactive)
REMARK    1  A    between atoms: O_3  and  C_10
REMARK    2  A    between atoms: N_5  and  C_9
REMARK    3  A    between atoms: N_5  and  C_14
REMARK    4  A    between atoms: N_6  and  C_13
REMARK    5  A    between atoms: C_11  and  C_13
REMARK    6  A    between atoms: C_14  and  C_15
REMARK    7  A    between atoms: C_16  and  C_18
REMARK                            x       y       z     vdW  Elec       q    Type
REMARK                         _______ _______ _______ _____ _____    ______ ____
ROOT
ATOM      2  O   UNL     1      14.039   8.937  20.086  0.00  0.00    -0.371 OA
ATOM      9  C   UNL     1      12.539   8.322  21.822  0.00  0.00    +0.111 C 
ATOM     10  C   UNL     1      11.996   7.820  20.497  0.00  0.00    +0.164 C 
ATOM     11  C   UNL     1      13.258   7.813  19.645  0.00  0.00    +0.165 C 
ATOM     12  C   UNL     1      13.533   9.374  21.359  0.00  0.00    +0.181 C 
ENDROOT
BRANCH  10   3
ATOM      3  O   UNL     1      11.420   6.531  20.596  0.00  0.00    -0.388 OA
ATOM     24  H   UNL     1      10.993   6.453  21.466  0.00  0.00    +0.210 HD
ENDBRANCH  10   3
BRANCH   9   5
ATOM      5  N   UNL     1      11.518   8.859  22.706  0.00  0.00    -0.304 NA
ATOM     23  H   UNL     1      11.838   8.775  23.671  0.00  0.00    +0.123 HD
BRANCH   5  14
ATOM     14  C   UNL     1      11.256  10.263  22.414  0.00  0.00    +0.136 C 
BRANCH  14  15
ATOM      7  N   UNL     1      10.270  11.800  24.153  0.00  0.00    -0.347 N 
ATOM      8  N   UNL     1      11.970  12.253  25.509  0.00  0.00    -0.244 NA
ATOM     15  C   UNL     1      11.343  11.118  23.650  0.00  0.00    +0.049 A 
ATOM     17  C   UNL     1      12.379  11.413  24.503  0.00  0.00    +0.134 A 
ATOM     19  C   UNL     1      10.696  12.467  25.269  0.00  0.00    +0.196 A 
ATOM     26  H   UNL     1       9.333  11.813  23.773  0.00  0.00    +0.167 HD
ENDBRANCH  14  15
ENDBRANCH   5  14
ENDBRANCH   9   5
BRANCH  11  13
ATOM     13  C   UNL     1      12.979   7.935  18.158  0.00  0.00    +0.138 C 
BRANCH  13   6
ATOM      4  O   UNL     1      12.926   8.767  15.411  0.00  0.00    -0.270 OA
ATOM      6  N   UNL     1      13.758   8.985  17.565  0.00  0.00    -0.308 N 
ATOM     16  C   UNL     1      13.667   9.322  16.218  0.00  0.00    +0.251 C 
ATOM     25  H   UNL     1      14.404   9.477  18.172  0.00  0.00    +0.149 HD
BRANCH  16  18
ATOM      1  S   UNL     1      14.566  11.901  16.604  0.00  0.00    -0.092 S 
ATOM     18  C   UNL     1      14.559  10.415  15.754  0.00  0.00    +0.074 A 
ATOM     20  C   UNL     1      15.430  10.425  14.688  0.00  0.00    +0.021 A 
ATOM     21  C   UNL     1      16.113  11.670  14.567  0.00  0.00    +0.008 A 
ATOM     22  C   UNL     1      15.738  12.564  15.546  0.00  0.00    +0.046 A 
ENDBRANCH  16  18
ENDBRANCH  13   6
ENDBRANCH  11  13
TORSDOF 7
ENDMDL
