MODEL 1
REMARK VINA RESULT:      -7.8      0.000      0.000
REMARK  Name = 11886052
REMARK  3 active torsions:
REMARK  status: ('A' for Active; 'I' for Inactive)
REMARK    1  A    between atoms: O_3  and  C_13
REMARK    2  A    between atoms: N_6  and  C_12
REMARK    3  A    between atoms: C_16  and  C_17
REMARK                            x       y       z     vdW  Elec       q    Type
REMARK                         _______ _______ _______ _____ _____    ______ ____
ROOT
ATOM      6  N   UNL     1      12.184   7.673  20.509  0.00  0.00    -0.217 N 
ATOM      7  N   UNL     1      11.728   6.450  20.217  0.00  0.00    -0.043 NA
ATOM      8  N   UNL     1      10.893   7.148  22.163  0.00  0.00    -0.108 NA
ATOM      9  N   UNL     1      10.937   6.132  21.234  0.00  0.00    -0.023 NA
ATOM     16  C   UNL     1      11.674   8.093  21.692  0.00  0.00    +0.182 A 
ENDROOT
BRANCH  16  17
ATOM      4  O   UNL     1      10.220  11.884  24.280  0.00  0.00    -0.485 OA
ATOM      5  O   UNL     1      12.840  13.056  24.007  0.00  0.00    -0.485 OA
ATOM     17  C   UNL     1      11.960   9.367  22.304  0.00  0.00    +0.024 A 
ATOM     18  C   UNL     1      10.957  10.046  22.998  0.00  0.00    +0.061 A 
ATOM     19  C   UNL     1      13.238   9.916  22.205  0.00  0.00    +0.015 A 
ATOM     20  C   UNL     1      11.238  11.275  23.595  0.00  0.00    +0.163 A 
ATOM     21  C   UNL     1      12.512  11.838  23.472  0.00  0.00    +0.162 A 
ATOM     22  C   UNL     1      13.516  11.151  22.790  0.00  0.00    +0.050 A 
ATOM     23  C   UNL     1      10.699  12.935  25.125  0.00  0.00    +0.270 C 
ATOM     24  C   UNL     1      11.680  13.811  24.370  0.00  0.00    +0.270 C 
ENDBRANCH  16  17
BRANCH   6  12
ATOM      1  O   UNL     1      13.257   7.418  17.409  0.00  0.00    -0.369 OA
ATOM      2  O   UNL     1      13.224  10.386  18.278  0.00  0.00    -0.369 OA
ATOM     10  C   UNL     1      12.378   9.266  18.619  0.00  0.00    +0.176 C 
ATOM     11  C   UNL     1      12.234   8.427  17.365  0.00  0.00    +0.180 C 
ATOM     12  C   UNL     1      13.101   8.363  19.599  0.00  0.00    +0.168 C 
ATOM     13  C   UNL     1      12.487   9.430  16.264  0.00  0.00    +0.171 C 
ATOM     14  C   UNL     1      13.916   7.456  18.683  0.00  0.00    +0.190 C 
ATOM     15  C   UNL     1      13.541  10.320  16.880  0.00  0.00    +0.194 C 
BRANCH  13   3
ATOM      3  O   UNL     1      12.924   8.845  15.058  0.00  0.00    -0.387 OA
ATOM     25  H   UNL     1      13.481   8.082  15.288  0.00  0.00    +0.210 HD
ENDBRANCH  13   3
ENDBRANCH   6  12
TORSDOF 3
ENDMDL
MODEL 2
REMARK VINA RESULT:      -7.3      1.469      2.406
REMARK  Name = 11886052
REMARK  3 active torsions:
REMARK  status: ('A' for Active; 'I' for Inactive)
REMARK    1  A    between atoms: O_3  and  C_13
REMARK    2  A    between atoms: N_6  and  C_12
REMARK    3  A    between atoms: C_16  and  C_17
REMARK                            x       y       z     vdW  Elec       q    Type
REMARK                         _______ _______ _______ _____ _____    ______ ____
ROOT
ATOM      6  N   UNL     1      13.202   7.917  19.828  0.00  0.00    -0.217 N 
ATOM      7  N   UNL     1      14.064   7.020  19.337  0.00  0.00    -0.043 NA
ATOM      8  N   UNL     1      14.438   7.351  21.510  0.00  0.00    -0.108 NA
ATOM      9  N   UNL     1      14.820   6.676  20.372  0.00  0.00    -0.023 NA
ATOM     16  C   UNL     1      13.433   8.115  21.147  0.00  0.00    +0.182 A 
ENDROOT
BRANCH  16  17
ATOM      4  O   UNL     1      13.146  12.265  23.574  0.00  0.00    -0.485 OA
ATOM      5  O   UNL     1      10.489  11.558  24.439  0.00  0.00    -0.485 OA
ATOM     17  C   UNL     1      12.685   9.019  21.986  0.00  0.00    +0.024 A 
ATOM     18  C   UNL     1      13.263  10.218  22.406  0.00  0.00    +0.061 A 
ATOM     19  C   UNL     1      11.385   8.695  22.373  0.00  0.00    +0.015 A 
ATOM     20  C   UNL     1      12.534  11.094  23.212  0.00  0.00    +0.163 A 
ATOM     21  C   UNL     1      11.241  10.756  23.622  0.00  0.00    +0.162 A 
ATOM     22  C   UNL     1      10.661   9.563  23.190  0.00  0.00    +0.050 A 
ATOM     23  C   UNL     1      12.212  13.217  24.090  0.00  0.00    +0.270 C 
ATOM     24  C   UNL     1      11.283  12.555  25.088  0.00  0.00    +0.270 C 
ENDBRANCH  16  17
BRANCH   6  12
ATOM      1  O   UNL     1      12.978  10.347  17.621  0.00  0.00    -0.369 OA
ATOM      2  O   UNL     1      10.998   8.083  16.906  0.00  0.00    -0.369 OA
ATOM     10  C   UNL     1      12.305   8.070  17.522  0.00  0.00    +0.176 C 
ATOM     11  C   UNL     1      13.121   9.150  16.839  0.00  0.00    +0.180 C 
ATOM     12  C   UNL     1      12.193   8.531  18.962  0.00  0.00    +0.168 C 
ATOM     13  C   UNL     1      12.444   9.277  15.495  0.00  0.00    +0.171 C 
ATOM     14  C   UNL     1      12.277  10.048  18.836  0.00  0.00    +0.190 C 
ATOM     15  C   UNL     1      10.993   9.049  15.846  0.00  0.00    +0.194 C 
BRANCH  13   3
ATOM      3  O   UNL     1      12.651  10.527  14.876  0.00  0.00    -0.387 OA
ATOM     25  H   UNL     1      12.028  11.158  15.276  0.00  0.00    +0.210 HD
ENDBRANCH  13   3
ENDBRANCH   6  12
TORSDOF 3
ENDMDL
MODEL 3
REMARK VINA RESULT:      -7.2      3.557      6.098
REMARK  Name = 11886052
REMARK  3 active torsions:
REMARK  status: ('A' for Active; 'I' for Inactive)
REMARK    1  A    between atoms: O_3  and  C_13
REMARK    2  A    between atoms: N_6  and  C_12
REMARK    3  A    between atoms: C_16  and  C_17
REMARK                            x       y       z     vdW  Elec       q    Type
REMARK                         _______ _______ _______ _____ _____    ______ ____
ROOT
ATOM      6  N   UNL     1      12.948   7.503  18.830  0.00  0.00    -0.217 N 
ATOM      7  N   UNL     1      12.083   7.631  17.818  0.00  0.00    -0.043 NA
ATOM      8  N   UNL     1      14.173   7.901  17.092  0.00  0.00    -0.108 NA
ATOM      9  N   UNL     1      12.839   7.875  16.755  0.00  0.00    -0.023 NA
ATOM     16  C   UNL     1      14.217   7.668  18.384  0.00  0.00    +0.182 A 
ENDROOT
BRANCH  16  17
ATOM      4  O   UNL     1      17.533   9.854  21.106  0.00  0.00    -0.485 OA
ATOM      5  O   UNL     1      18.819   7.313  21.554  0.00  0.00    -0.485 OA
ATOM     17  C   UNL     1      15.395   7.594  19.212  0.00  0.00    +0.024 A 
ATOM     18  C   UNL     1      15.931   8.757  19.767  0.00  0.00    +0.061 A 
ATOM     19  C   UNL     1      15.995   6.359  19.460  0.00  0.00    +0.015 A 
ATOM     20  C   UNL     1      17.066   8.681  20.573  0.00  0.00    +0.163 A 
ATOM     21  C   UNL     1      17.683   7.447  20.800  0.00  0.00    +0.162 A 
ATOM     22  C   UNL     1      17.139   6.284  20.255  0.00  0.00    +0.050 A 
ATOM     23  C   UNL     1      18.463   9.624  22.169  0.00  0.00    +0.270 C 
ATOM     24  C   UNL     1      19.472   8.568  21.765  0.00  0.00    +0.270 C 
ENDBRANCH  16  17
BRANCH   6  12
ATOM      1  O   UNL     1      13.043   8.871  21.821  0.00  0.00    -0.369 OA
ATOM      2  O   UNL     1      10.424   7.264  21.474  0.00  0.00    -0.369 OA
ATOM     10  C   UNL     1      11.230   8.017  20.542  0.00  0.00    +0.176 C 
ATOM     11  C   UNL     1      11.755   9.226  21.293  0.00  0.00    +0.180 C 
ATOM     12  C   UNL     1      12.472   7.223  20.186  0.00  0.00    +0.168 C 
ATOM     13  C   UNL     1      10.732   9.404  22.389  0.00  0.00    +0.171 C 
ATOM     14  C   UNL     1      13.439   7.591  21.306  0.00  0.00    +0.190 C 
ATOM     15  C   UNL     1      10.366   7.976  22.718  0.00  0.00    +0.194 C 
BRANCH  13   3
ATOM      3  O   UNL     1      11.226  10.098  23.513  0.00  0.00    -0.387 OA
ATOM     25  H   UNL     1      12.097  10.459  23.274  0.00  0.00    +0.210 HD
ENDBRANCH  13   3
ENDBRANCH   6  12
TORSDOF 3
ENDMDL
MODEL 4
REMARK VINA RESULT:      -6.5     26.335     27.924
REMARK  Name = 11886052
REMARK  3 active torsions:
REMARK  status: ('A' for Active; 'I' for Inactive)
REMARK    1  A    between atoms: O_3  and  C_13
REMARK    2  A    between atoms: N_6  and  C_12
REMARK    3  A    between atoms: C_16  and  C_17
REMARK                            x       y       z     vdW  Elec       q    Type
REMARK                         _______ _______ _______ _____ _____    ______ ____
ROOT
ATOM      6  N   UNL     1      -3.493 -11.007  15.467  0.00  0.00    -0.217 N 
ATOM      7  N   UNL     1      -2.831 -10.837  16.616  0.00  0.00    -0.043 NA
ATOM      8  N   UNL     1      -1.427 -10.737  14.888  0.00  0.00    -0.108 NA
ATOM      9  N   UNL     1      -1.565 -10.672  16.256  0.00  0.00    -0.023 NA
ATOM     16  C   UNL     1      -2.636 -10.945  14.420  0.00  0.00    +0.182 A 
ENDROOT
BRANCH  16  17
ATOM      4  O   UNL     1      -4.191  -8.982  10.307  0.00  0.00    -0.485 OA
ATOM      5  O   UNL     1      -4.144 -11.582   9.065  0.00  0.00    -0.485 OA
ATOM     17  C   UNL     1      -3.017 -11.089  13.037  0.00  0.00    +0.024 A 
ATOM     18  C   UNL     1      -3.442  -9.974  12.312  0.00  0.00    +0.061 A 
ATOM     19  C   UNL     1      -2.957 -12.341  12.424  0.00  0.00    +0.015 A 
ATOM     20  C   UNL     1      -3.803 -10.115  10.972  0.00  0.00    +0.163 A 
ATOM     21  C   UNL     1      -3.769 -11.374  10.366  0.00  0.00    +0.162 A 
ATOM     22  C   UNL     1      -3.332 -12.485  11.089  0.00  0.00    +0.050 A 
ATOM     23  C   UNL     1      -4.201  -9.172   8.889  0.00  0.00    +0.270 C 
ATOM     24  C   UNL     1      -4.886 -10.478   8.539  0.00  0.00    +0.270 C 
ENDBRANCH  16  17
BRANCH   6  12
ATOM      1  O   UNL     1      -5.998 -11.010  17.600  0.00  0.00    -0.369 OA
ATOM      2  O   UNL     1      -6.980 -10.092  14.816  0.00  0.00    -0.369 OA
ATOM     10  C   UNL     1      -5.722  -9.922  15.505  0.00  0.00    +0.176 C 
ATOM     11  C   UNL     1      -6.050  -9.719  16.971  0.00  0.00    +0.180 C 
ATOM     12  C   UNL     1      -4.942 -11.221  15.467  0.00  0.00    +0.168 C 
ATOM     13  C   UNL     1      -7.459  -9.177  16.924  0.00  0.00    +0.171 C 
ATOM     14  C   UNL     1      -5.490 -11.978  16.672  0.00  0.00    +0.190 C 
ATOM     15  C   UNL     1      -8.050  -9.930  15.756  0.00  0.00    +0.194 C 
BRANCH  13   3
ATOM      3  O   UNL     1      -8.183  -9.387  18.115  0.00  0.00    -0.387 OA
ATOM     25  H   UNL     1      -8.173 -10.342  18.300  0.00  0.00    +0.210 HD
ENDBRANCH  13   3
ENDBRANCH   6  12
TORSDOF 3
ENDMDL
MODEL 5
REMARK VINA RESULT:      -6.5     26.228     27.738
REMARK  Name = 11886052
REMARK  3 active torsions:
REMARK  status: ('A' for Active; 'I' for Inactive)
REMARK    1  A    between atoms: O_3  and  C_13
REMARK    2  A    between atoms: N_6  and  C_12
REMARK    3  A    between atoms: C_16  and  C_17
REMARK                            x       y       z     vdW  Elec       q    Type
REMARK                         _______ _______ _______ _____ _____    ______ ____
ROOT
ATOM      6  N   UNL     1      -2.857 -10.650  14.405  0.00  0.00    -0.217 N 
ATOM      7  N   UNL     1      -1.558 -10.430  14.178  0.00  0.00    -0.043 NA
ATOM      8  N   UNL     1      -1.935 -10.671  16.361  0.00  0.00    -0.108 NA
ATOM      9  N   UNL     1      -0.997 -10.443  15.380  0.00  0.00    -0.023 NA
ATOM     16  C   UNL     1      -3.081 -10.797  15.733  0.00  0.00    +0.182 A 
ENDROOT
BRANCH  16  17
ATOM      4  O   UNL     1      -7.369  -9.172  17.205  0.00  0.00    -0.485 OA
ATOM      5  O   UNL     1      -8.059 -11.830  18.081  0.00  0.00    -0.485 OA
ATOM     17  C   UNL     1      -4.372 -11.047  16.325  0.00  0.00    +0.024 A 
ATOM     18  C   UNL     1      -5.271  -9.994  16.506  0.00  0.00    +0.061 A 
ATOM     19  C   UNL     1      -4.721 -12.340  16.715  0.00  0.00    +0.015 A 
ATOM     20  C   UNL     1      -6.522 -10.240  17.073  0.00  0.00    +0.163 A 
ATOM     21  C   UNL     1      -6.861 -11.532  17.487  0.00  0.00    +0.162 A 
ATOM     22  C   UNL     1      -5.966 -12.584  17.295  0.00  0.00    +0.050 A 
ATOM     23  C   UNL     1      -8.714  -9.586  17.463  0.00  0.00    +0.270 C 
ATOM     24  C   UNL     1      -8.736 -10.656  18.537  0.00  0.00    +0.270 C 
ENDBRANCH  16  17
BRANCH   6  12
ATOM      1  O   UNL     1      -2.846 -11.180  11.157  0.00  0.00    -0.369 OA
ATOM      2  O   UNL     1      -5.508 -12.167  12.382  0.00  0.00    -0.369 OA
ATOM     10  C   UNL     1      -4.159 -12.127  12.898  0.00  0.00    +0.176 C 
ATOM     11  C   UNL     1      -3.236 -12.436  11.735  0.00  0.00    +0.180 C 
ATOM     12  C   UNL     1      -3.809 -10.706  13.293  0.00  0.00    +0.168 C 
ATOM     13  C   UNL     1      -4.127 -13.226  10.806  0.00  0.00    +0.171 C 
ATOM     14  C   UNL     1      -3.316 -10.103  11.982  0.00  0.00    +0.190 C 
ATOM     15  C   UNL     1      -5.466 -12.554  11.002  0.00  0.00    +0.194 C 
BRANCH  13   3
ATOM      3  O   UNL     1      -3.707 -13.193   9.460  0.00  0.00    -0.387 OA
ATOM     25  H   UNL     1      -4.446 -12.846   8.931  0.00  0.00    +0.210 HD
ENDBRANCH  13   3
ENDBRANCH   6  12
TORSDOF 3
ENDMDL
MODEL 6
REMARK VINA RESULT:      -6.4     27.759     29.618
REMARK  Name = 11886052
REMARK  3 active torsions:
REMARK  status: ('A' for Active; 'I' for Inactive)
REMARK    1  A    between atoms: O_3  and  C_13
REMARK    2  A    between atoms: N_6  and  C_12
REMARK    3  A    between atoms: C_16  and  C_17
REMARK                            x       y       z     vdW  Elec       q    Type
REMARK                         _______ _______ _______ _____ _____    ______ ____
ROOT
ATOM      6  N   UNL     1     -14.525   2.534  32.026  0.00  0.00    -0.217 N 
ATOM      7  N   UNL     1     -14.498   1.339  32.624  0.00  0.00    -0.043 NA
ATOM      8  N   UNL     1     -14.674   2.964  34.140  0.00  0.00    -0.108 NA
ATOM      9  N   UNL     1     -14.589   1.608  33.920  0.00  0.00    -0.023 NA
ATOM     16  C   UNL     1     -14.632   3.518  32.950  0.00  0.00    +0.182 A 
ENDROOT
BRANCH  16  17
ATOM      4  O   UNL     1     -12.410   7.766  32.487  0.00  0.00    -0.485 OA
ATOM      5  O   UNL     1     -14.929   8.992  31.808  0.00  0.00    -0.485 OA
ATOM     17  C   UNL     1     -14.688   4.927  32.648  0.00  0.00    +0.024 A 
ATOM     18  C   UNL     1     -13.529   5.701  32.720  0.00  0.00    +0.061 A 
ATOM     19  C   UNL     1     -15.900   5.514  32.282  0.00  0.00    +0.015 A 
ATOM     20  C   UNL     1     -13.584   7.063  32.420  0.00  0.00    +0.163 A 
ATOM     21  C   UNL     1     -14.804   7.655  32.079  0.00  0.00    +0.162 A 
ATOM     22  C   UNL     1     -15.959   6.878  31.996  0.00  0.00    +0.050 A 
ATOM     23  C   UNL     1     -12.512   9.037  31.838  0.00  0.00    +0.270 C 
ATOM     24  C   UNL     1     -13.791   9.737  32.252  0.00  0.00    +0.270 C 
ENDBRANCH  16  17
BRANCH   6  12
ATOM      1  O   UNL     1     -15.019   0.648  29.375  0.00  0.00    -0.369 OA
ATOM      2  O   UNL     1     -15.663   3.599  28.710  0.00  0.00    -0.369 OA
ATOM     10  C   UNL     1     -15.804   2.825  29.921  0.00  0.00    +0.176 C 
ATOM     11  C   UNL     1     -16.220   1.428  29.503  0.00  0.00    +0.180 C 
ATOM     12  C   UNL     1     -14.445   2.639  30.567  0.00  0.00    +0.168 C 
ATOM     13  C   UNL     1     -16.877   1.665  28.164  0.00  0.00    +0.171 C 
ATOM     14  C   UNL     1     -13.899   1.407  29.854  0.00  0.00    +0.190 C 
ATOM     15  C   UNL     1     -16.038   2.783  27.591  0.00  0.00    +0.194 C 
BRANCH  13   3
ATOM      3  O   UNL     1     -16.885   0.527  27.331  0.00  0.00    -0.387 OA
ATOM     25  H   UNL     1     -16.935  -0.256  27.906  0.00  0.00    +0.210 HD
ENDBRANCH  13   3
ENDBRANCH   6  12
TORSDOF 3
ENDMDL
MODEL 7
REMARK VINA RESULT:      -6.4     26.444     28.478
REMARK  Name = 11886052
REMARK  3 active torsions:
REMARK  status: ('A' for Active; 'I' for Inactive)
REMARK    1  A    between atoms: O_3  and  C_13
REMARK    2  A    between atoms: N_6  and  C_12
REMARK    3  A    between atoms: C_16  and  C_17
REMARK                            x       y       z     vdW  Elec       q    Type
REMARK                         _______ _______ _______ _____ _____    ______ ____
ROOT
ATOM      6  N   UNL     1      -7.043 -11.030  18.477  0.00  0.00    -0.217 N 
ATOM      7  N   UNL     1      -7.412 -10.752  19.732  0.00  0.00    -0.043 NA
ATOM      8  N   UNL     1      -5.287 -11.422  19.677  0.00  0.00    -0.108 NA
ATOM      9  N   UNL     1      -6.332 -10.994  20.463  0.00  0.00    -0.023 NA
ATOM     16  C   UNL     1      -5.751 -11.436  18.448  0.00  0.00    +0.182 A 
ENDROOT
BRANCH  16  17
ATOM      4  O   UNL     1      -2.749 -10.297  14.860  0.00  0.00    -0.485 OA
ATOM      5  O   UNL     1      -3.034 -12.961  13.795  0.00  0.00    -0.485 OA
ATOM     17  C   UNL     1      -5.035 -11.815  17.255  0.00  0.00    +0.024 A 
ATOM     18  C   UNL     1      -4.233 -10.880  16.598  0.00  0.00    +0.061 A 
ATOM     19  C   UNL     1      -5.143 -13.115  16.761  0.00  0.00    +0.015 A 
ATOM     20  C   UNL     1      -3.537 -11.251  15.448  0.00  0.00    +0.163 A 
ATOM     21  C   UNL     1      -3.666 -12.546  14.939  0.00  0.00    +0.162 A 
ATOM     22  C   UNL     1      -4.457 -13.482  15.604  0.00  0.00    +0.050 A 
ATOM     23  C   UNL     1      -1.832 -10.866  13.920  0.00  0.00    +0.270 C 
ATOM     24  C   UNL     1      -2.547 -11.858  13.024  0.00  0.00    +0.270 C 
ENDBRANCH  16  17
BRANCH   6  12
ATOM      1  O   UNL     1     -10.031  -9.764  17.930  0.00  0.00    -0.369 OA
ATOM      2  O   UNL     1      -8.306  -9.552  15.372  0.00  0.00    -0.369 OA
ATOM     10  C   UNL     1      -7.971  -9.484  16.776  0.00  0.00    +0.176 C 
ATOM     11  C   UNL     1      -9.113  -8.761  17.464  0.00  0.00    +0.180 C 
ATOM     12  C   UNL     1      -7.991 -10.878  17.371  0.00  0.00    +0.168 C 
ATOM     13  C   UNL     1      -9.706  -7.938  16.345  0.00  0.00    +0.171 C 
ATOM     14  C   UNL     1      -9.459 -11.066  17.739  0.00  0.00    +0.190 C 
ATOM     15  C   UNL     1      -9.539  -8.852  15.154  0.00  0.00    +0.194 C 
BRANCH  13   3
ATOM      3  O   UNL     1     -11.055  -7.585  16.559  0.00  0.00    -0.387 OA
ATOM     25  H   UNL     1     -11.603  -8.336  16.273  0.00  0.00    +0.210 HD
ENDBRANCH  13   3
ENDBRANCH   6  12
TORSDOF 3
ENDMDL
MODEL 8
REMARK VINA RESULT:      -6.4      2.928      4.089
REMARK  Name = 11886052
REMARK  3 active torsions:
REMARK  status: ('A' for Active; 'I' for Inactive)
REMARK    1  A    between atoms: O_3  and  C_13
REMARK    2  A    between atoms: N_6  and  C_12
REMARK    3  A    between atoms: C_16  and  C_17
REMARK                            x       y       z     vdW  Elec       q    Type
REMARK                         _______ _______ _______ _____ _____    ______ ____
ROOT
ATOM      6  N   UNL     1      15.009   9.224  20.920  0.00  0.00    -0.217 N 
ATOM      7  N   UNL     1      15.919   8.391  20.403  0.00  0.00    -0.043 NA
ATOM      8  N   UNL     1      16.911   9.948  21.653  0.00  0.00    -0.108 NA
ATOM      9  N   UNL     1      17.083   8.840  20.855  0.00  0.00    -0.023 NA
ATOM     16  C   UNL     1      15.616  10.168  21.678  0.00  0.00    +0.182 A 
ENDROOT
BRANCH  16  17
ATOM      4  O   UNL     1      13.634  11.866  25.725  0.00  0.00    -0.485 OA
ATOM      5  O   UNL     1      12.912  14.288  24.337  0.00  0.00    -0.485 OA
ATOM     17  C   UNL     1      14.930  11.223  22.382  0.00  0.00    +0.024 A 
ATOM     18  C   UNL     1      14.585  11.055  23.724  0.00  0.00    +0.061 A 
ATOM     19  C   UNL     1      14.614  12.410  21.721  0.00  0.00    +0.015 A 
ATOM     20  C   UNL     1      13.927  12.080  24.404  0.00  0.00    +0.163 A 
ATOM     21  C   UNL     1      13.587  13.259  23.734  0.00  0.00    +0.162 A 
ATOM     22  C   UNL     1      13.943  13.430  22.396  0.00  0.00    +0.050 A 
ATOM     23  C   UNL     1      13.286  13.080  26.398  0.00  0.00    +0.270 C 
ATOM     24  C   UNL     1      12.303  13.879  25.566  0.00  0.00    +0.270 C 
ENDBRANCH  16  17
BRANCH   6  12
ATOM      1  O   UNL     1      12.993   6.889  19.776  0.00  0.00    -0.369 OA
ATOM      2  O   UNL     1      11.495   8.682  21.802  0.00  0.00    -0.369 OA
ATOM     10  C   UNL     1      12.873   8.253  21.719  0.00  0.00    +0.176 C 
ATOM     11  C   UNL     1      12.857   6.827  21.205  0.00  0.00    +0.180 C 
ATOM     12  C   UNL     1      13.584   9.039  20.635  0.00  0.00    +0.168 C 
ATOM     13  C   UNL     1      11.487   6.341  21.615  0.00  0.00    +0.171 C 
ATOM     14  C   UNL     1      13.269   8.239  19.376  0.00  0.00    +0.190 C 
ATOM     15  C   UNL     1      10.645   7.584  21.444  0.00  0.00    +0.194 C 
BRANCH  13   3
ATOM      3  O   UNL     1      11.014   5.266  20.836  0.00  0.00    -0.387 OA
ATOM     25  H   UNL     1      11.174   4.448  21.337  0.00  0.00    +0.210 HD
ENDBRANCH  13   3
ENDBRANCH   6  12
TORSDOF 3
ENDMDL
MODEL 9
REMARK VINA RESULT:      -6.4      3.516      4.999
REMARK  Name = 11886052
REMARK  3 active torsions:
REMARK  status: ('A' for Active; 'I' for Inactive)
REMARK    1  A    between atoms: O_3  and  C_13
REMARK    2  A    between atoms: N_6  and  C_12
REMARK    3  A    between atoms: C_16  and  C_17
REMARK                            x       y       z     vdW  Elec       q    Type
REMARK                         _______ _______ _______ _____ _____    ______ ____
ROOT
ATOM      6  N   UNL     1      14.949   7.624  19.802  0.00  0.00    -0.217 N 
ATOM      7  N   UNL     1      15.215   6.358  19.465  0.00  0.00    -0.043 NA
ATOM      8  N   UNL     1      17.080   7.402  20.099  0.00  0.00    -0.108 NA
ATOM      9  N   UNL     1      16.522   6.227  19.649  0.00  0.00    -0.023 NA
ATOM     16  C   UNL     1      16.084   8.255  20.187  0.00  0.00    +0.182 A 
ENDROOT
BRANCH  16  17
ATOM      4  O   UNL     1      16.005  12.951  19.125  0.00  0.00    -0.485 OA
ATOM      5  O   UNL     1      16.417  13.572  21.910  0.00  0.00    -0.485 OA
ATOM     17  C   UNL     1      16.156   9.630  20.614  0.00  0.00    +0.024 A 
ATOM     18  C   UNL     1      16.062  10.657  19.674  0.00  0.00    +0.061 A 
ATOM     19  C   UNL     1      16.317   9.931  21.967  0.00  0.00    +0.015 A 
ATOM     20  C   UNL     1      16.125  11.987  20.091  0.00  0.00    +0.163 A 
ATOM     21  C   UNL     1      16.313  12.288  21.443  0.00  0.00    +0.162 A 
ATOM     22  C   UNL     1      16.395  11.261  22.382  0.00  0.00    +0.050 A 
ATOM     23  C   UNL     1      15.737  14.239  19.687  0.00  0.00    +0.270 C 
ATOM     24  C   UNL     1      16.666  14.506  20.855  0.00  0.00    +0.270 C 
ENDBRANCH  16  17
BRANCH   6  12
ATOM      1  O   UNL     1      11.861   6.523  20.081  0.00  0.00    -0.369 OA
ATOM      2  O   UNL     1      12.027   9.461  21.031  0.00  0.00    -0.369 OA
ATOM     10  C   UNL     1      12.968   8.366  21.095  0.00  0.00    +0.176 C 
ATOM     11  C   UNL     1      12.161   7.110  21.358  0.00  0.00    +0.180 C 
ATOM     12  C   UNL     1      13.581   8.144  19.727  0.00  0.00    +0.168 C 
ATOM     13  C   UNL     1      10.920   7.647  22.031  0.00  0.00    +0.171 C 
ATOM     14  C   UNL     1      12.571   7.224  19.050  0.00  0.00    +0.190 C 
ATOM     15  C   UNL     1      10.713   8.960  21.313  0.00  0.00    +0.194 C 
BRANCH  13   3
ATOM      3  O   UNL     1       9.802   6.796  21.914  0.00  0.00    -0.387 OA
ATOM     25  H   UNL     1       9.464   6.632  22.812  0.00  0.00    +0.210 HD
ENDBRANCH  13   3
ENDBRANCH   6  12
TORSDOF 3
ENDMDL
MODEL 10
REMARK VINA RESULT:      -6.4      3.783      5.759
REMARK  Name = 11886052
REMARK  3 active torsions:
REMARK  status: ('A' for Active; 'I' for Inactive)
REMARK    1  A    between atoms: O_3  and  C_13
REMARK    2  A    between atoms: N_6  and  C_12
REMARK    3  A    between atoms: C_16  and  C_17
REMARK                            x       y       z     vdW  Elec       q    Type
REMARK                         _______ _______ _______ _____ _____    ______ ____
ROOT
ATOM      6  N   UNL     1      13.412   9.258  17.105  0.00  0.00    -0.217 N 
ATOM      7  N   UNL     1      13.199   8.219  16.290  0.00  0.00    -0.043 NA
ATOM      8  N   UNL     1      14.478   9.745  15.287  0.00  0.00    -0.108 NA
ATOM      9  N   UNL     1      13.854   8.523  15.177  0.00  0.00    -0.023 NA
ATOM     16  C   UNL     1      14.190  10.182  16.492  0.00  0.00    +0.182 A 
ENDROOT
BRANCH  16  17
ATOM      4  O   UNL     1      16.726  12.547  19.833  0.00  0.00    -0.485 OA
ATOM      5  O   UNL     1      15.753  15.048  18.779  0.00  0.00    -0.485 OA
ATOM     17  C   UNL     1      14.612  11.426  17.087  0.00  0.00    +0.024 A 
ATOM     18  C   UNL     1      15.462  11.416  18.193  0.00  0.00    +0.061 A 
ATOM     19  C   UNL     1      14.171  12.638  16.553  0.00  0.00    +0.015 A 
ATOM     20  C   UNL     1      15.874  12.621  18.762  0.00  0.00    +0.163 A 
ATOM     21  C   UNL     1      15.411  13.834  18.244  0.00  0.00    +0.162 A 
ATOM     22  C   UNL     1      14.572  13.843  17.130  0.00  0.00    +0.050 A 
ATOM     23  C   UNL     1      17.346  13.807  20.109  0.00  0.00    +0.270 C 
ATOM     24  C   UNL     1      16.313  14.916  20.089  0.00  0.00    +0.270 C 
ENDBRANCH  16  17
BRANCH   6  12
ATOM      1  O   UNL     1      11.736   7.263  19.114  0.00  0.00    -0.369 OA
ATOM      2  O   UNL     1      13.530   9.165  20.765  0.00  0.00    -0.369 OA
ATOM     10  C   UNL     1      13.699   8.557  19.466  0.00  0.00    +0.176 C 
ATOM     11  C   UNL     1      13.102   7.166  19.552  0.00  0.00    +0.180 C 
ATOM     12  C   UNL     1      12.835   9.279  18.451  0.00  0.00    +0.168 C 
ATOM     13  C   UNL     1      13.194   6.856  21.027  0.00  0.00    +0.171 C 
ATOM     14  C   UNL     1      11.489   8.577  18.594  0.00  0.00    +0.190 C 
ATOM     15  C   UNL     1      12.937   8.207  21.653  0.00  0.00    +0.194 C 
BRANCH  13   3
ATOM      3  O   UNL     1      12.267   5.885  21.458  0.00  0.00    -0.387 OA
ATOM     25  H   UNL     1      11.508   5.916  20.852  0.00  0.00    +0.210 HD
ENDBRANCH  13   3
ENDBRANCH   6  12
TORSDOF 3
ENDMDL
