MODEL 1
REMARK VINA RESULT:      -7.7      0.000      0.000
REMARK  Name = 11882028
REMARK  10 active torsions:
REMARK  status: ('A' for Active; 'I' for Inactive)
REMARK    1  A    between atoms: N_6  and  C_11
REMARK    2  A    between atoms: N_7  and  C_15
REMARK    3  A    between atoms: N_8  and  C_24
REMARK    4  A    between atoms: C_12  and  C_21
REMARK    5  A    between atoms: C_23  and  C_25
REMARK    6  A    between atoms: C_24  and  C_26
REMARK    7  A    between atoms: C_24  and  C_28
REMARK    8  A    between atoms: C_26  and  C_27
REMARK    9  A    between atoms: C_29  and  C_33
REMARK   10  A    between atoms: C_29  and  C_34
REMARK                            x       y       z     vdW  Elec       q    Type
REMARK                         _______ _______ _______ _____ _____    ______ ____
ROOT
ATOM      3  O   UNL     1      15.525   6.641  21.233  0.00  0.00    -0.271 OA
ATOM      5  N   UNL     1      16.668   8.656  21.307  0.00  0.00    -0.285 N 
ATOM     11  C   UNL     1      17.427  10.911  21.343  0.00  0.00    +0.094 C 
ATOM     12  C   UNL     1      15.499   9.478  21.581  0.00  0.00    +0.164 C 
ATOM     13  C   UNL     1      16.056  10.831  22.018  0.00  0.00    +0.056 C 
ATOM     14  C   UNL     1      17.893   9.459  21.307  0.00  0.00    +0.131 C 
ATOM     23  C   UNL     1      16.581   7.275  21.229  0.00  0.00    +0.240 C 
ENDROOT
BRANCH  11   6
ATOM      2  O   UNL     1      19.266  12.770  20.147  0.00  0.00    -0.253 OA
ATOM      6  N   UNL     1      17.341  11.481  20.021  0.00  0.00    -0.295 N 
ATOM      7  N   UNL     1      17.964  12.774  18.224  0.00  0.00    -0.297 N 
ATOM     22  C   UNL     1      18.281  12.379  19.521  0.00  0.00    +0.300 C 
ATOM     39  H   UNL     1      16.593  11.179  19.404  0.00  0.00    +0.151 HD
ATOM     40  H   UNL     1      17.165  12.336  17.776  0.00  0.00    +0.151 HD
BRANCH   7  15
ATOM     15  C   UNL     1      18.768  13.702  17.461  0.00  0.00    +0.074 C 
ATOM     16  C   UNL     1      17.893  14.580  16.561  0.00  0.00    +0.022 C 
ATOM     17  C   UNL     1      19.837  12.963  16.645  0.00  0.00    +0.022 C 
ATOM     18  C   UNL     1      17.302  13.805  15.383  0.00  0.00    +0.002 C 
ATOM     19  C   UNL     1      19.243  12.191  15.468  0.00  0.00    +0.002 C 
ATOM     20  C   UNL     1      18.385  13.089  14.581  0.00  0.00    +0.000 C 
ENDBRANCH   7  15
ENDBRANCH  11   6
BRANCH  12  21
ATOM      1  O   UNL     1      14.992  10.375  19.426  0.00  0.00    -0.274 OA
ATOM      8  N   UNL     1      13.580   8.764  20.338  0.00  0.00    -0.302 N 
ATOM     21  C   UNL     1      14.685   9.597  20.327  0.00  0.00    +0.234 C 
ATOM     41  H   UNL     1      13.479   8.094  21.096  0.00  0.00    +0.150 HD
BRANCH   8  24
ATOM     24  C   UNL     1      12.622   8.705  19.258  0.00  0.00    +0.163 C 
BRANCH  24  28
ATOM      4  O   UNL     1      13.399   7.253  17.471  0.00  0.00    -0.274 OA
ATOM     10  N   UNL     1      12.347   6.304  19.279  0.00  0.00    -0.328 N 
ATOM     28  C   UNL     1      12.827   7.373  18.552  0.00  0.00    +0.231 C 
ATOM     43  H   UNL     1      11.896   6.416  20.181  0.00  0.00    +0.145 HD
ATOM     44  H   UNL     1      12.433   5.356  18.928  0.00  0.00    +0.145 HD
ENDBRANCH  24  28
BRANCH  24  26
ATOM     26  C   UNL     1      11.177   8.834  19.754  0.00  0.00    +0.069 C 
BRANCH  26  27
ATOM      9  N   UNL     1      10.796   8.919  23.409  0.00  0.00    -0.360 N 
ATOM     27  C   UNL     1      11.082   9.148  21.219  0.00  0.00    -0.020 A 
ATOM     30  C   UNL     1      11.279  10.418  21.828  0.00  0.00    +0.003 A 
ATOM     31  C   UNL     1      10.787   8.246  22.217  0.00  0.00    +0.087 A 
ATOM     32  C   UNL     1      11.093  10.247  23.202  0.00  0.00    +0.047 A 
ATOM     35  C   UNL     1      11.597  11.702  21.342  0.00  0.00    +0.010 A 
ATOM     36  C   UNL     1      11.211  11.300  24.116  0.00  0.00    +0.026 A 
ATOM     37  C   UNL     1      11.718  12.764  22.244  0.00  0.00    +0.001 A 
ATOM     38  C   UNL     1      11.527  12.564  23.611  0.00  0.00    +0.002 A 
ATOM     42  H   UNL     1      10.612   8.502  24.310  0.00  0.00    +0.165 HD
ENDBRANCH  26  27
ENDBRANCH  24  26
ENDBRANCH   8  24
ENDBRANCH  12  21
BRANCH  23  25
ATOM     25  C   UNL     1      17.853   6.533  21.134  0.00  0.00    +0.066 C 
ATOM     29  C   UNL     1      18.263   5.851  20.051  0.00  0.00    -0.071 C 
ATOM     33  C   UNL     1      17.396   5.811  18.819  0.00  0.00    +0.039 C 
ATOM     34  C   UNL     1      19.550   5.084  19.916  0.00  0.00    +0.039 C 
ENDBRANCH  23  25
TORSDOF 8
ENDMDL
MODEL 2
REMARK VINA RESULT:      -7.5     28.426     31.279
REMARK  Name = 11882028
REMARK  10 active torsions:
REMARK  status: ('A' for Active; 'I' for Inactive)
REMARK    1  A    between atoms: N_6  and  C_11
REMARK    2  A    between atoms: N_7  and  C_15
REMARK    3  A    between atoms: N_8  and  C_24
REMARK    4  A    between atoms: C_12  and  C_21
REMARK    5  A    between atoms: C_23  and  C_25
REMARK    6  A    between atoms: C_24  and  C_26
REMARK    7  A    between atoms: C_24  and  C_28
REMARK    8  A    between atoms: C_26  and  C_27
REMARK    9  A    between atoms: C_29  and  C_33
REMARK   10  A    between atoms: C_29  and  C_34
REMARK                            x       y       z     vdW  Elec       q    Type
REMARK                         _______ _______ _______ _____ _____    ______ ____
ROOT
ATOM      3  O   UNL     1      -9.915  -7.981  17.402  0.00  0.00    -0.271 OA
ATOM      5  N   UNL     1      -9.773  -9.098  15.376  0.00  0.00    -0.285 N 
ATOM     11  C   UNL     1      -9.404 -10.561  13.535  0.00  0.00    +0.094 C 
ATOM     12  C   UNL     1      -9.407 -10.388  15.943  0.00  0.00    +0.164 C 
ATOM     13  C   UNL     1      -9.594 -11.391  14.807  0.00  0.00    +0.056 C 
ATOM     14  C   UNL     1      -9.938  -9.186  13.922  0.00  0.00    +0.131 C 
ATOM     23  C   UNL     1     -10.070  -8.010  16.181  0.00  0.00    +0.240 C 
ENDROOT
BRANCH  11   6
ATOM      2  O   UNL     1      -8.307 -11.441  11.028  0.00  0.00    -0.253 OA
ATOM      6  N   UNL     1      -8.021 -10.507  13.132  0.00  0.00    -0.295 N 
ATOM      7  N   UNL     1      -6.200 -10.791  11.757  0.00  0.00    -0.297 N 
ATOM     22  C   UNL     1      -7.575 -10.958  11.892  0.00  0.00    +0.300 C 
ATOM     39  H   UNL     1      -7.345 -10.074  13.755  0.00  0.00    +0.151 HD
ATOM     40  H   UNL     1      -5.703 -10.318  12.506  0.00  0.00    +0.151 HD
BRANCH   7  15
ATOM     15  C   UNL     1      -5.469 -11.173  10.569  0.00  0.00    +0.074 C 
ATOM     16  C   UNL     1      -4.012 -11.509  10.902  0.00  0.00    +0.022 C 
ATOM     17  C   UNL     1      -5.557 -10.084   9.494  0.00  0.00    +0.022 C 
ATOM     18  C   UNL     1      -3.192 -10.267  11.255  0.00  0.00    +0.002 C 
ATOM     19  C   UNL     1      -4.735  -8.845   9.848  0.00  0.00    +0.002 C 
ATOM     20  C   UNL     1      -3.286  -9.203  10.165  0.00  0.00    +0.000 C 
ENDBRANCH   7  15
ENDBRANCH  11   6
BRANCH  12  21
ATOM      1  O   UNL     1      -7.161  -9.581  15.868  0.00  0.00    -0.274 OA
ATOM      8  N   UNL     1      -7.722 -11.212  17.432  0.00  0.00    -0.302 N 
ATOM     21  C   UNL     1      -7.979 -10.329  16.397  0.00  0.00    +0.234 C 
ATOM     41  H   UNL     1      -8.499 -11.712  17.854  0.00  0.00    +0.150 HD
BRANCH   8  24
ATOM     24  C   UNL     1      -6.417 -11.367  18.034  0.00  0.00    +0.163 C 
BRANCH  24  28
ATOM      4  O   UNL     1      -6.179 -11.231  20.449  0.00  0.00    -0.274 OA
ATOM     10  N   UNL     1      -7.457 -12.923  19.564  0.00  0.00    -0.328 N 
ATOM     28  C   UNL     1      -6.639 -11.816  19.471  0.00  0.00    +0.231 C 
ATOM     43  H   UNL     1      -7.847 -13.383  18.748  0.00  0.00    +0.145 HD
ATOM     44  H   UNL     1      -7.696 -13.318  20.466  0.00  0.00    +0.145 HD
ENDBRANCH  24  28
BRANCH  24  26
ATOM     26  C   UNL     1      -5.546 -12.380  17.282  0.00  0.00    +0.069 C 
BRANCH  26  27
ATOM      9  N   UNL     1      -2.835 -10.281  15.957  0.00  0.00    -0.360 N 
ATOM     27  C   UNL     1      -4.386 -11.747  16.570  0.00  0.00    -0.020 A 
ATOM     30  C   UNL     1      -3.603 -12.333  15.537  0.00  0.00    +0.003 A 
ATOM     31  C   UNL     1      -3.889 -10.485  16.807  0.00  0.00    +0.087 A 
ATOM     32  C   UNL     1      -2.638 -11.393  15.170  0.00  0.00    +0.047 A 
ATOM     35  C   UNL     1      -3.624 -13.577  14.875  0.00  0.00    +0.010 A 
ATOM     36  C   UNL     1      -1.689 -11.636  14.171  0.00  0.00    +0.026 A 
ATOM     37  C   UNL     1      -2.681 -13.834  13.874  0.00  0.00    +0.001 A 
ATOM     38  C   UNL     1      -1.728 -12.876  13.528  0.00  0.00    +0.002 A 
ATOM     42  H   UNL     1      -2.282  -9.437  15.914  0.00  0.00    +0.165 HD
ENDBRANCH  26  27
ENDBRANCH  24  26
ENDBRANCH   8  24
ENDBRANCH  12  21
BRANCH  23  25
ATOM     25  C   UNL     1     -10.608  -6.811  15.507  0.00  0.00    +0.066 C 
ATOM     29  C   UNL     1     -11.911  -6.582  15.275  0.00  0.00    -0.071 C 
ATOM     33  C   UNL     1     -12.938  -7.594  15.715  0.00  0.00    +0.039 C 
ATOM     34  C   UNL     1     -12.497  -5.376  14.593  0.00  0.00    +0.039 C 
ENDBRANCH  23  25
TORSDOF 8
ENDMDL
MODEL 3
REMARK VINA RESULT:      -7.2     28.293     30.995
REMARK  Name = 11882028
REMARK  10 active torsions:
REMARK  status: ('A' for Active; 'I' for Inactive)
REMARK    1  A    between atoms: N_6  and  C_11
REMARK    2  A    between atoms: N_7  and  C_15
REMARK    3  A    between atoms: N_8  and  C_24
REMARK    4  A    between atoms: C_12  and  C_21
REMARK    5  A    between atoms: C_23  and  C_25
REMARK    6  A    between atoms: C_24  and  C_26
REMARK    7  A    between atoms: C_24  and  C_28
REMARK    8  A    between atoms: C_26  and  C_27
REMARK    9  A    between atoms: C_29  and  C_33
REMARK   10  A    between atoms: C_29  and  C_34
REMARK                            x       y       z     vdW  Elec       q    Type
REMARK                         _______ _______ _______ _____ _____    ______ ____
ROOT
ATOM      3  O   UNL     1      -7.738 -12.462  17.792  0.00  0.00    -0.271 OA
ATOM      5  N   UNL     1      -5.638 -11.935  16.964  0.00  0.00    -0.285 N 
ATOM     11  C   UNL     1      -3.630 -10.964  16.135  0.00  0.00    +0.094 C 
ATOM     12  C   UNL     1      -5.701 -10.519  17.294  0.00  0.00    +0.164 C 
ATOM     13  C   UNL     1      -4.267 -10.012  17.150  0.00  0.00    +0.056 C 
ATOM     14  C   UNL     1      -4.335 -12.291  16.397  0.00  0.00    +0.131 C 
ATOM     23  C   UNL     1      -6.656 -12.807  17.317  0.00  0.00    +0.240 C 
ENDROOT
BRANCH  11   6
ATOM      2  O   UNL     1      -2.061 -11.685  13.837  0.00  0.00    -0.253 OA
ATOM      6  N   UNL     1      -3.825 -10.510  14.781  0.00  0.00    -0.295 N 
ATOM      7  N   UNL     1      -3.415 -10.331  12.524  0.00  0.00    -0.297 N 
ATOM     22  C   UNL     1      -3.012 -10.913  13.723  0.00  0.00    +0.300 C 
ATOM     39  H   UNL     1      -4.619  -9.912  14.572  0.00  0.00    +0.151 HD
ATOM     40  H   UNL     1      -4.257  -9.763  12.531  0.00  0.00    +0.151 HD
BRANCH   7  15
ATOM     15  C   UNL     1      -2.750 -10.574  11.264  0.00  0.00    +0.074 C 
ATOM     16  C   UNL     1      -2.655  -9.289  10.434  0.00  0.00    +0.022 C 
ATOM     17  C   UNL     1      -3.448 -11.691  10.479  0.00  0.00    +0.022 C 
ATOM     18  C   UNL     1      -4.008  -8.856   9.870  0.00  0.00    +0.002 C 
ATOM     19  C   UNL     1      -4.799 -11.254   9.915  0.00  0.00    +0.002 C 
ATOM     20  C   UNL     1      -4.677  -9.980   9.084  0.00  0.00    +0.000 C 
ENDBRANCH   7  15
ENDBRANCH  11   6
BRANCH  12  21
ATOM      1  O   UNL     1      -6.320  -9.664  15.152  0.00  0.00    -0.274 OA
ATOM      8  N   UNL     1      -7.803  -9.429  16.932  0.00  0.00    -0.302 N 
ATOM     21  C   UNL     1      -6.625  -9.837  16.329  0.00  0.00    +0.234 C 
ATOM     41  H   UNL     1      -7.986  -9.712  17.890  0.00  0.00    +0.150 HD
BRANCH   8  24
ATOM     24  C   UNL     1      -8.851  -8.728  16.225  0.00  0.00    +0.163 C 
BRANCH  24  28
ATOM      4  O   UNL     1     -10.303 -10.641  15.850  0.00  0.00    -0.274 OA
ATOM     10  N   UNL     1      -9.409  -9.565  14.027  0.00  0.00    -0.328 N 
ATOM     28  C   UNL     1      -9.587  -9.758  15.382  0.00  0.00    +0.231 C 
ATOM     43  H   UNL     1      -8.832  -8.818  13.654  0.00  0.00    +0.145 HD
ATOM     44  H   UNL     1      -9.857 -10.175  13.352  0.00  0.00    +0.145 HD
ENDBRANCH  24  28
BRANCH  24  26
ATOM     26  C   UNL     1      -9.822  -8.021  17.178  0.00  0.00    +0.069 C 
BRANCH  26  27
ATOM      9  N   UNL     1     -11.978  -5.769  15.230  0.00  0.00    -0.360 N 
ATOM     27  C   UNL     1     -10.913  -7.278  16.463  0.00  0.00    -0.020 A 
ATOM     30  C   UNL     1     -12.294  -7.620  16.435  0.00  0.00    +0.003 A 
ATOM     31  C   UNL     1     -10.749  -6.136  15.713  0.00  0.00    +0.087 A 
ATOM     32  C   UNL     1     -12.939  -6.658  15.656  0.00  0.00    +0.047 A 
ATOM     35  C   UNL     1     -13.060  -8.659  17.001  0.00  0.00    +0.010 A 
ATOM     36  C   UNL     1     -14.317  -6.684  15.412  0.00  0.00    +0.026 A 
ATOM     37  C   UNL     1     -14.438  -8.697  16.766  0.00  0.00    +0.001 A 
ATOM     38  C   UNL     1     -15.056  -7.723  15.983  0.00  0.00    +0.002 A 
ATOM     42  H   UNL     1     -12.153  -4.964  14.646  0.00  0.00    +0.165 HD
ENDBRANCH  26  27
ENDBRANCH  24  26
ENDBRANCH   8  24
ENDBRANCH  12  21
BRANCH  23  25
ATOM     25  C   UNL     1      -6.404 -14.245  17.100  0.00  0.00    +0.066 C 
ATOM     29  C   UNL     1      -6.794 -14.937  16.016  0.00  0.00    -0.071 C 
ATOM     33  C   UNL     1      -7.547 -14.237  14.914  0.00  0.00    +0.039 C 
ATOM     34  C   UNL     1      -6.556 -16.400  15.759  0.00  0.00    +0.039 C 
ENDBRANCH  23  25
TORSDOF 8
ENDMDL
MODEL 4
REMARK VINA RESULT:      -7.1     14.867     17.801
REMARK  Name = 11882028
REMARK  10 active torsions:
REMARK  status: ('A' for Active; 'I' for Inactive)
REMARK    1  A    between atoms: N_6  and  C_11
REMARK    2  A    between atoms: N_7  and  C_15
REMARK    3  A    between atoms: N_8  and  C_24
REMARK    4  A    between atoms: C_12  and  C_21
REMARK    5  A    between atoms: C_23  and  C_25
REMARK    6  A    between atoms: C_24  and  C_26
REMARK    7  A    between atoms: C_24  and  C_28
REMARK    8  A    between atoms: C_26  and  C_27
REMARK    9  A    between atoms: C_29  and  C_33
REMARK   10  A    between atoms: C_29  and  C_34
REMARK                            x       y       z     vdW  Elec       q    Type
REMARK                         _______ _______ _______ _____ _____    ______ ____
ROOT
ATOM      3  O   UNL     1      14.503   7.401   6.746  0.00  0.00    -0.271 OA
ATOM      5  N   UNL     1      13.998   8.155   4.613  0.00  0.00    -0.285 N 
ATOM     11  C   UNL     1      13.051   8.816   2.532  0.00  0.00    +0.094 C 
ATOM     12  C   UNL     1      12.562   8.261   4.830  0.00  0.00    +0.164 C 
ATOM     13  C   UNL     1      12.040   9.078   3.651  0.00  0.00    +0.056 C 
ATOM     14  C   UNL     1      14.369   8.630   3.277  0.00  0.00    +0.131 C 
ATOM     23  C   UNL     1      14.861   7.797   5.636  0.00  0.00    +0.240 C 
ENDROOT
BRANCH  11   6
ATOM      2  O   UNL     1      14.052   8.120  -0.071  0.00  0.00    -0.253 OA
ATOM      6  N   UNL     1      12.703   7.652   1.757  0.00  0.00    -0.295 N 
ATOM      7  N   UNL     1      12.738   6.206  -0.031  0.00  0.00    -0.297 N 
ATOM     22  C   UNL     1      13.239   7.392   0.497  0.00  0.00    +0.300 C 
ATOM     39  H   UNL     1      12.080   6.959   2.163  0.00  0.00    +0.151 HD
ATOM     40  H   UNL     1      12.124   5.647   0.553  0.00  0.00    +0.151 HD
BRANCH   7  15
ATOM     15  C   UNL     1      13.124   5.692  -1.327  0.00  0.00    +0.074 C 
ATOM     16  C   UNL     1      11.909   5.562  -2.252  0.00  0.00    +0.022 C 
ATOM     17  C   UNL     1      13.865   4.356  -1.191  0.00  0.00    +0.022 C 
ATOM     18  C   UNL     1      10.984   4.414  -1.845  0.00  0.00    +0.002 C 
ATOM     19  C   UNL     1      12.937   3.211  -0.786  0.00  0.00    +0.002 C 
ATOM     20  C   UNL     1      11.742   3.095  -1.728  0.00  0.00    +0.000 C 
ENDBRANCH   7  15
ENDBRANCH  11   6
BRANCH  12  21
ATOM      1  O   UNL     1      12.225   6.057   3.977  0.00  0.00    -0.274 OA
ATOM      8  N   UNL     1      11.124   6.692   5.927  0.00  0.00    -0.302 N 
ATOM     21  C   UNL     1      11.972   6.883   4.850  0.00  0.00    +0.234 C 
ATOM     41  H   UNL     1      11.065   7.415   6.639  0.00  0.00    +0.150 HD
BRANCH   8  24
ATOM     24  C   UNL     1      10.411   5.457   6.163  0.00  0.00    +0.163 C 
BRANCH  24  28
ATOM      4  O   UNL     1      10.142   6.247   8.446  0.00  0.00    -0.274 OA
ATOM     10  N   UNL     1      10.253   3.983   8.073  0.00  0.00    -0.328 N 
ATOM     28  C   UNL     1      10.272   5.303   7.671  0.00  0.00    +0.231 C 
ATOM     43  H   UNL     1      10.339   3.212   7.418  0.00  0.00    +0.145 HD
ATOM     44  H   UNL     1      10.152   3.739   9.052  0.00  0.00    +0.145 HD
ENDBRANCH  24  28
BRANCH  24  26
ATOM     26  C   UNL     1       9.032   5.445   5.493  0.00  0.00    +0.069 C 
BRANCH  26  27
ATOM      9  N   UNL     1       7.519   8.796   5.515  0.00  0.00    -0.360 N 
ATOM     27  C   UNL     1       8.493   6.822   5.226  0.00  0.00    -0.020 A 
ATOM     30  C   UNL     1       8.547   7.529   3.993  0.00  0.00    +0.003 A 
ATOM     31  C   UNL     1       7.856   7.626   6.143  0.00  0.00    +0.087 A 
ATOM     32  C   UNL     1       7.929   8.763   4.201  0.00  0.00    +0.047 A 
ATOM     35  C   UNL     1       9.064   7.236   2.715  0.00  0.00    +0.010 A 
ATOM     36  C   UNL     1       7.802   9.724   3.191  0.00  0.00    +0.026 A 
ATOM     37  C   UNL     1       8.944   8.187   1.696  0.00  0.00    +0.001 A 
ATOM     38  C   UNL     1       8.322   9.411   1.932  0.00  0.00    +0.002 A 
ATOM     42  H   UNL     1       7.039   9.570   5.951  0.00  0.00    +0.165 HD
ENDBRANCH  26  27
ENDBRANCH  24  26
ENDBRANCH   8  24
ENDBRANCH  12  21
BRANCH  23  25
ATOM     25  C   UNL     1      16.306   7.902   5.354  0.00  0.00    +0.066 C 
ATOM     29  C   UNL     1      17.059   8.985   5.606  0.00  0.00    -0.071 C 
ATOM     33  C   UNL     1      16.429  10.209   6.219  0.00  0.00    +0.039 C 
ATOM     34  C   UNL     1      18.532   9.131   5.333  0.00  0.00    +0.039 C 
ENDBRANCH  23  25
TORSDOF 8
ENDMDL
MODEL 5
REMARK VINA RESULT:      -7.1     14.037     17.732
REMARK  Name = 11882028
REMARK  10 active torsions:
REMARK  status: ('A' for Active; 'I' for Inactive)
REMARK    1  A    between atoms: N_6  and  C_11
REMARK    2  A    between atoms: N_7  and  C_15
REMARK    3  A    between atoms: N_8  and  C_24
REMARK    4  A    between atoms: C_12  and  C_21
REMARK    5  A    between atoms: C_23  and  C_25
REMARK    6  A    between atoms: C_24  and  C_26
REMARK    7  A    between atoms: C_24  and  C_28
REMARK    8  A    between atoms: C_26  and  C_27
REMARK    9  A    between atoms: C_29  and  C_33
REMARK   10  A    between atoms: C_29  and  C_34
REMARK                            x       y       z     vdW  Elec       q    Type
REMARK                         _______ _______ _______ _____ _____    ______ ____
ROOT
ATOM      3  O   UNL     1      10.351  10.868   6.549  0.00  0.00    -0.271 OA
ATOM      5  N   UNL     1      10.534   8.588   6.174  0.00  0.00    -0.285 N 
ATOM     11  C   UNL     1      11.167   6.316   5.856  0.00  0.00    +0.094 C 
ATOM     12  C   UNL     1      11.880   8.458   6.714  0.00  0.00    +0.164 C 
ATOM     13  C   UNL     1      12.094   6.956   6.892  0.00  0.00    +0.056 C 
ATOM     14  C   UNL     1       9.992   7.285   5.781  0.00  0.00    +0.131 C 
ATOM     23  C   UNL     1       9.853   9.795   6.210  0.00  0.00    +0.240 C 
ENDROOT
BRANCH  11   6
ATOM      2  O   UNL     1      10.596   4.323   3.865  0.00  0.00    -0.253 OA
ATOM      6  N   UNL     1      11.818   6.161   4.579  0.00  0.00    -0.295 N 
ATOM      7  N   UNL     1      12.254   5.234   2.519  0.00  0.00    -0.297 N 
ATOM     22  C   UNL     1      11.475   5.161   3.671  0.00  0.00    +0.300 C 
ATOM     39  H   UNL     1      12.522   6.838   4.300  0.00  0.00    +0.151 HD
ATOM     40  H   UNL     1      12.905   6.009   2.434  0.00  0.00    +0.151 HD
BRANCH   7  15
ATOM     15  C   UNL     1      12.113   4.319   1.409  0.00  0.00    +0.074 C 
ATOM     16  C   UNL     1      13.038   3.108   1.571  0.00  0.00    +0.022 C 
ATOM     17  C   UNL     1      12.358   5.031   0.073  0.00  0.00    +0.022 C 
ATOM     18  C   UNL     1      14.510   3.464   1.355  0.00  0.00    +0.002 C 
ATOM     19  C   UNL     1      13.829   5.383  -0.140  0.00  0.00    +0.002 C 
ATOM     20  C   UNL     1      14.730   4.161   0.016  0.00  0.00    +0.000 C 
ENDBRANCH   7  15
ENDBRANCH  11   6
BRANCH  12  21
ATOM      1  O   UNL     1      12.594   9.125   4.535  0.00  0.00    -0.274 OA
ATOM      8  N   UNL     1      14.038   9.427   6.336  0.00  0.00    -0.302 N 
ATOM     21  C   UNL     1      12.853   9.040   5.733  0.00  0.00    +0.234 C 
ATOM     41  H   UNL     1      14.103   9.397   7.350  0.00  0.00    +0.150 HD
BRANCH   8  24
ATOM     24  C   UNL     1      15.148   9.996   5.608  0.00  0.00    +0.163 C 
BRANCH  24  28
ATOM      4  O   UNL     1      15.282  12.259   6.486  0.00  0.00    -0.274 OA
ATOM     10  N   UNL     1      14.365  11.941   4.403  0.00  0.00    -0.328 N 
ATOM     28  C   UNL     1      14.937  11.503   5.580  0.00  0.00    +0.231 C 
ATOM     43  H   UNL     1      14.105  11.307   3.654  0.00  0.00    +0.145 HD
ATOM     44  H   UNL     1      14.182  12.926   4.249  0.00  0.00    +0.145 HD
ENDBRANCH  24  28
BRANCH  24  26
ATOM     26  C   UNL     1      16.499   9.654   6.246  0.00  0.00    +0.069 C 
BRANCH  26  27
ATOM      9  N   UNL     1      18.204   7.854   3.531  0.00  0.00    -0.360 N 
ATOM     27  C   UNL     1      17.413   8.901   5.323  0.00  0.00    -0.020 A 
ATOM     30  C   UNL     1      18.733   8.458   5.613  0.00  0.00    +0.003 A 
ATOM     31  C   UNL     1      17.115   8.516   4.035  0.00  0.00    +0.087 A 
ATOM     32  C   UNL     1      19.207   7.804   4.473  0.00  0.00    +0.047 A 
ATOM     35  C   UNL     1      19.575   8.549   6.740  0.00  0.00    +0.010 A 
ATOM     36  C   UNL     1      20.484   7.236   4.404  0.00  0.00    +0.026 A 
ATOM     37  C   UNL     1      20.854   7.986   6.685  0.00  0.00    +0.001 A 
ATOM     38  C   UNL     1      21.300   7.339   5.534  0.00  0.00    +0.002 A 
ATOM     42  H   UNL     1      18.263   7.461   2.603  0.00  0.00    +0.165 HD
ENDBRANCH  26  27
ENDBRANCH  24  26
ENDBRANCH   8  24
ENDBRANCH  12  21
BRANCH  23  25
ATOM     25  C   UNL     1       8.433   9.769   5.809  0.00  0.00    +0.066 C 
ATOM     29  C   UNL     1       7.982  10.023   4.569  0.00  0.00    -0.071 C 
ATOM     33  C   UNL     1       8.959  10.366   3.474  0.00  0.00    +0.039 C 
ATOM     34  C   UNL     1       6.546  10.006   4.121  0.00  0.00    +0.039 C 
ENDBRANCH  23  25
TORSDOF 8
ENDMDL
MODEL 6
REMARK VINA RESULT:      -7.1     13.601     16.745
REMARK  Name = 11882028
REMARK  10 active torsions:
REMARK  status: ('A' for Active; 'I' for Inactive)
REMARK    1  A    between atoms: N_6  and  C_11
REMARK    2  A    between atoms: N_7  and  C_15
REMARK    3  A    between atoms: N_8  and  C_24
REMARK    4  A    between atoms: C_12  and  C_21
REMARK    5  A    between atoms: C_23  and  C_25
REMARK    6  A    between atoms: C_24  and  C_26
REMARK    7  A    between atoms: C_24  and  C_28
REMARK    8  A    between atoms: C_26  and  C_27
REMARK    9  A    between atoms: C_29  and  C_33
REMARK   10  A    between atoms: C_29  and  C_34
REMARK                            x       y       z     vdW  Elec       q    Type
REMARK                         _______ _______ _______ _____ _____    ______ ____
ROOT
ATOM      3  O   UNL     1      18.817   9.121   6.566  0.00  0.00    -0.271 OA
ATOM      5  N   UNL     1      18.150   8.670   4.392  0.00  0.00    -0.285 N 
ATOM     11  C   UNL     1      17.076   8.406   2.285  0.00  0.00    +0.094 C 
ATOM     12  C   UNL     1      17.012   9.577   4.395  0.00  0.00    +0.164 C 
ATOM     13  C   UNL     1      16.605   9.712   2.929  0.00  0.00    +0.056 C 
ATOM     14  C   UNL     1      18.329   8.047   3.078  0.00  0.00    +0.131 C 
ATOM     23  C   UNL     1      19.008   8.579   5.477  0.00  0.00    +0.240 C 
ENDROOT
BRANCH  11   6
ATOM      2  O   UNL     1      14.880   7.991   0.477  0.00  0.00    -0.253 OA
ATOM      6  N   UNL     1      16.073   7.375   2.369  0.00  0.00    -0.295 N 
ATOM      7  N   UNL     1      14.211   6.172   1.755  0.00  0.00    -0.297 N 
ATOM     22  C   UNL     1      15.038   7.248   1.444  0.00  0.00    +0.300 C 
ATOM     39  H   UNL     1      16.147   6.676   3.102  0.00  0.00    +0.151 HD
ATOM     40  H   UNL     1      14.473   5.581   2.539  0.00  0.00    +0.151 HD
BRANCH   7  15
ATOM     15  C   UNL     1      13.057   5.807   0.964  0.00  0.00    +0.074 C 
ATOM     16  C   UNL     1      11.756   6.097   1.720  0.00  0.00    +0.022 C 
ATOM     17  C   UNL     1      13.130   4.339   0.528  0.00  0.00    +0.022 C 
ATOM     18  C   UNL     1      11.524   5.126   2.879  0.00  0.00    +0.002 C 
ATOM     19  C   UNL     1      12.896   3.372   1.687  0.00  0.00    +0.002 C 
ATOM     20  C   UNL     1      11.591   3.673   2.418  0.00  0.00    +0.000 C 
ENDBRANCH   7  15
ENDBRANCH  11   6
BRANCH  12  21
ATOM      1  O   UNL     1      15.849   7.763   5.424  0.00  0.00    -0.274 OA
ATOM      8  N   UNL     1      15.012   9.922   5.668  0.00  0.00    -0.302 N 
ATOM     21  C   UNL     1      15.913   8.972   5.218  0.00  0.00    +0.234 C 
ATOM     41  H   UNL     1      15.219  10.905   5.515  0.00  0.00    +0.150 HD
BRANCH   8  24
ATOM     24  C   UNL     1      13.850   9.595   6.462  0.00  0.00    +0.163 C 
BRANCH  24  28
ATOM      4  O   UNL     1      12.351  11.157   7.568  0.00  0.00    -0.274 OA
ATOM     10  N   UNL     1      14.614  11.537   7.684  0.00  0.00    -0.328 N 
ATOM     28  C   UNL     1      13.499  10.836   7.271  0.00  0.00    +0.231 C 
ATOM     43  H   UNL     1      15.558  11.247   7.450  0.00  0.00    +0.145 HD
ATOM     44  H   UNL     1      14.521  12.378   8.243  0.00  0.00    +0.145 HD
ENDBRANCH  24  28
BRANCH  24  26
ATOM     26  C   UNL     1      12.659   9.162   5.599  0.00  0.00    +0.069 C 
BRANCH  26  27
ATOM      9  N   UNL     1      11.732   5.929   7.082  0.00  0.00    -0.360 N 
ATOM     27  C   UNL     1      12.037   7.874   6.057  0.00  0.00    -0.020 A 
ATOM     30  C   UNL     1      10.758   7.373   5.688  0.00  0.00    +0.003 A 
ATOM     31  C   UNL     1      12.612   6.965   6.915  0.00  0.00    +0.087 A 
ATOM     32  C   UNL     1      10.591   6.152   6.344  0.00  0.00    +0.047 A 
ATOM     35  C   UNL     1       9.722   7.842   4.855  0.00  0.00    +0.010 A 
ATOM     36  C   UNL     1       9.436   5.373   6.209  0.00  0.00    +0.026 A 
ATOM     37  C   UNL     1       8.562   7.074   4.711  0.00  0.00    +0.001 A 
ATOM     38  C   UNL     1       8.423   5.858   5.378  0.00  0.00    +0.002 A 
ATOM     42  H   UNL     1      11.896   5.118   7.662  0.00  0.00    +0.165 HD
ENDBRANCH  26  27
ENDBRANCH  24  26
ENDBRANCH   8  24
ENDBRANCH  12  21
BRANCH  23  25
ATOM     25  C   UNL     1      20.229   7.771   5.293  0.00  0.00    +0.066 C 
ATOM     29  C   UNL     1      21.429   8.263   4.943  0.00  0.00    -0.071 C 
ATOM     33  C   UNL     1      21.591   9.743   4.709  0.00  0.00    +0.039 C 
ATOM     34  C   UNL     1      22.695   7.473   4.747  0.00  0.00    +0.039 C 
ENDBRANCH  23  25
TORSDOF 8
ENDMDL
MODEL 7
REMARK VINA RESULT:      -7.1     28.777     31.443
REMARK  Name = 11882028
REMARK  10 active torsions:
REMARK  status: ('A' for Active; 'I' for Inactive)
REMARK    1  A    between atoms: N_6  and  C_11
REMARK    2  A    between atoms: N_7  and  C_15
REMARK    3  A    between atoms: N_8  and  C_24
REMARK    4  A    between atoms: C_12  and  C_21
REMARK    5  A    between atoms: C_23  and  C_25
REMARK    6  A    between atoms: C_24  and  C_26
REMARK    7  A    between atoms: C_24  and  C_28
REMARK    8  A    between atoms: C_26  and  C_27
REMARK    9  A    between atoms: C_29  and  C_33
REMARK   10  A    between atoms: C_29  and  C_34
REMARK                            x       y       z     vdW  Elec       q    Type
REMARK                         _______ _______ _______ _____ _____    ______ ____
ROOT
ATOM      3  O   UNL     1      -9.412 -11.345  19.416  0.00  0.00    -0.271 OA
ATOM      5  N   UNL     1      -7.211 -11.759  18.819  0.00  0.00    -0.285 N 
ATOM     11  C   UNL     1      -4.943 -11.742  18.096  0.00  0.00    +0.094 C 
ATOM     12  C   UNL     1      -6.805 -10.362  18.772  0.00  0.00    +0.164 C 
ATOM     13  C   UNL     1      -5.279 -10.391  18.730  0.00  0.00    +0.056 C 
ATOM     14  C   UNL     1      -6.074 -12.650  18.568  0.00  0.00    +0.131 C 
ATOM     23  C   UNL     1      -8.485 -12.131  19.217  0.00  0.00    +0.240 C 
ENDROOT
BRANCH  11   6
ATOM      2  O   UNL     1      -2.688 -10.931  16.508  0.00  0.00    -0.253 OA
ATOM      6  N   UNL     1      -4.886 -11.659  16.658  0.00  0.00    -0.295 N 
ATOM      7  N   UNL     1      -3.956 -11.263  14.592  0.00  0.00    -0.297 N 
ATOM     22  C   UNL     1      -3.745 -11.254  15.968  0.00  0.00    +0.300 C 
ATOM     39  H   UNL     1      -5.691 -11.958  16.115  0.00  0.00    +0.151 HD
ATOM     40  H   UNL     1      -4.846 -11.613  14.249  0.00  0.00    +0.151 HD
BRANCH   7  15
ATOM     15  C   UNL     1      -2.941 -10.887  13.633  0.00  0.00    +0.074 C 
ATOM     16  C   UNL     1      -3.570 -10.300  12.365  0.00  0.00    +0.022 C 
ATOM     17  C   UNL     1      -2.029 -12.074  13.303  0.00  0.00    +0.022 C 
ATOM     18  C   UNL     1      -4.270 -11.361  11.514  0.00  0.00    +0.002 C 
ATOM     19  C   UNL     1      -2.731 -13.132  12.451  0.00  0.00    +0.002 C 
ATOM     20  C   UNL     1      -3.339 -12.526  11.190  0.00  0.00    +0.000 C 
ENDBRANCH   7  15
ENDBRANCH  11   6
BRANCH  12  21
ATOM      1  O   UNL     1      -6.733  -9.648  16.494  0.00  0.00    -0.274 OA
ATOM      8  N   UNL     1      -8.664  -9.263  17.736  0.00  0.00    -0.302 N 
ATOM     21  C   UNL     1      -7.378  -9.733  17.536  0.00  0.00    +0.234 C 
ATOM     41  H   UNL     1      -9.133  -9.474  18.613  0.00  0.00    +0.150 HD
BRANCH   8  24
ATOM     24  C   UNL     1      -9.431  -8.595  16.709  0.00  0.00    +0.163 C 
BRANCH  24  28
ATOM      4  O   UNL     1      -9.915  -9.780  14.643  0.00  0.00    -0.274 OA
ATOM     10  N   UNL     1     -10.822 -10.569  16.602  0.00  0.00    -0.328 N 
ATOM     28  C   UNL     1     -10.076  -9.678  15.857  0.00  0.00    +0.231 C 
ATOM     43  H   UNL     1     -10.928 -10.485  17.607  0.00  0.00    +0.145 HD
ATOM     44  H   UNL     1     -11.295 -11.348  16.158  0.00  0.00    +0.145 HD
ENDBRANCH  24  28
BRANCH  24  26
ATOM     26  C   UNL     1     -10.499  -7.663  17.294  0.00  0.00    +0.069 C 
BRANCH  26  27
ATOM      9  N   UNL     1     -11.681  -5.426  14.628  0.00  0.00    -0.360 N 
ATOM     27  C   UNL     1     -11.234  -6.878  16.246  0.00  0.00    -0.020 A 
ATOM     30  C   UNL     1     -12.607  -7.009  15.898  0.00  0.00    +0.003 A 
ATOM     31  C   UNL     1     -10.691  -5.897  15.448  0.00  0.00    +0.087 A 
ATOM     32  C   UNL     1     -12.862  -6.087  14.880  0.00  0.00    +0.047 A 
ATOM     35  C   UNL     1     -13.663  -7.826  16.351  0.00  0.00    +0.010 A 
ATOM     36  C   UNL     1     -14.123  -5.940  14.292  0.00  0.00    +0.026 A 
ATOM     37  C   UNL     1     -14.929  -7.690  15.772  0.00  0.00    +0.001 A 
ATOM     38  C   UNL     1     -15.153  -6.761  14.758  0.00  0.00    +0.002 A 
ATOM     42  H   UNL     1     -11.562  -4.698  13.937  0.00  0.00    +0.165 HD
ENDBRANCH  26  27
ENDBRANCH  24  26
ENDBRANCH   8  24
ENDBRANCH  12  21
BRANCH  23  25
ATOM     25  C   UNL     1      -8.728 -13.574  19.407  0.00  0.00    +0.066 C 
ATOM     29  C   UNL     1      -9.187 -14.406  18.457  0.00  0.00    -0.071 C 
ATOM     33  C   UNL     1      -9.492 -13.874  17.080  0.00  0.00    +0.039 C 
ATOM     34  C   UNL     1      -9.446 -15.880  18.611  0.00  0.00    +0.039 C 
ENDBRANCH  23  25
TORSDOF 8
ENDMDL
MODEL 8
REMARK VINA RESULT:      -7.0      1.867      2.578
REMARK  Name = 11882028
REMARK  10 active torsions:
REMARK  status: ('A' for Active; 'I' for Inactive)
REMARK    1  A    between atoms: N_6  and  C_11
REMARK    2  A    between atoms: N_7  and  C_15
REMARK    3  A    between atoms: N_8  and  C_24
REMARK    4  A    between atoms: C_12  and  C_21
REMARK    5  A    between atoms: C_23  and  C_25
REMARK    6  A    between atoms: C_24  and  C_26
REMARK    7  A    between atoms: C_24  and  C_28
REMARK    8  A    between atoms: C_26  and  C_27
REMARK    9  A    between atoms: C_29  and  C_33
REMARK   10  A    between atoms: C_29  and  C_34
REMARK                            x       y       z     vdW  Elec       q    Type
REMARK                         _______ _______ _______ _____ _____    ______ ____
ROOT
ATOM      3  O   UNL     1      16.261   6.081  21.386  0.00  0.00    -0.271 OA
ATOM      5  N   UNL     1      16.676   8.354  21.201  0.00  0.00    -0.285 N 
ATOM     11  C   UNL     1      16.662  10.733  21.124  0.00  0.00    +0.094 C 
ATOM     12  C   UNL     1      15.475   8.781  21.905  0.00  0.00    +0.164 C 
ATOM     13  C   UNL     1      15.699  10.259  22.215  0.00  0.00    +0.056 C 
ATOM     14  C   UNL     1      17.514   9.500  20.840  0.00  0.00    +0.131 C 
ATOM     23  C   UNL     1      17.000   7.013  21.068  0.00  0.00    +0.240 C 
ENDROOT
BRANCH  11   6
ATOM      2  O   UNL     1      17.637  12.567  19.137  0.00  0.00    -0.253 OA
ATOM      6  N   UNL     1      15.960  11.184  19.949  0.00  0.00    -0.295 N 
ATOM      7  N   UNL     1      15.628  12.348  17.993  0.00  0.00    -0.297 N 
ATOM     22  C   UNL     1      16.512  12.079  19.034  0.00  0.00    +0.300 C 
ATOM     39  H   UNL     1      15.044  10.796  19.744  0.00  0.00    +0.151 HD
ATOM     40  H   UNL     1      14.750  11.836  17.970  0.00  0.00    +0.151 HD
BRANCH   7  15
ATOM     15  C   UNL     1      15.940  13.244  16.902  0.00  0.00    +0.074 C 
ATOM     16  C   UNL     1      14.663  13.758  16.228  0.00  0.00    +0.022 C 
ATOM     17  C   UNL     1      16.872  12.572  15.886  0.00  0.00    +0.022 C 
ATOM     18  C   UNL     1      13.958  12.676  15.408  0.00  0.00    +0.002 C 
ATOM     19  C   UNL     1      16.164  11.493  15.068  0.00  0.00    +0.002 C 
ATOM     20  C   UNL     1      14.903  12.030  14.398  0.00  0.00    +0.000 C 
ENDBRANCH   7  15
ENDBRANCH  11   6
BRANCH  12  21
ATOM      1  O   UNL     1      14.412   8.452  19.792  0.00  0.00    -0.274 OA
ATOM      8  N   UNL     1      13.096   8.582  21.708  0.00  0.00    -0.302 N 
ATOM     21  C   UNL     1      14.290   8.580  21.008  0.00  0.00    +0.234 C 
ATOM     41  H   UNL     1      13.124   8.600  22.724  0.00  0.00    +0.150 HD
BRANCH   8  24
ATOM     24  C   UNL     1      11.807   8.430  21.074  0.00  0.00    +0.163 C 
BRANCH  24  28
ATOM      4  O   UNL     1      11.877   6.055  21.588  0.00  0.00    -0.274 OA
ATOM     10  N   UNL     1       9.923   7.204  21.964  0.00  0.00    -0.328 N 
ATOM     28  C   UNL     1      11.233   7.101  21.543  0.00  0.00    +0.231 C 
ATOM     43  H   UNL     1       9.410   8.079  21.941  0.00  0.00    +0.145 HD
ATOM     44  H   UNL     1       9.424   6.393  22.314  0.00  0.00    +0.145 HD
ENDBRANCH  24  28
BRANCH  24  26
ATOM     26  C   UNL     1      10.851   9.579  21.416  0.00  0.00    +0.069 C 
BRANCH  26  27
ATOM      9  N   UNL     1      12.821  12.675  21.626  0.00  0.00    -0.360 N 
ATOM     27  C   UNL     1      11.563  10.852  21.773  0.00  0.00    -0.020 A 
ATOM     30  C   UNL     1      11.541  11.510  23.034  0.00  0.00    +0.003 A 
ATOM     31  C   UNL     1      12.358  11.592  20.927  0.00  0.00    +0.087 A 
ATOM     32  C   UNL     1      12.338  12.651  22.915  0.00  0.00    +0.047 A 
ATOM     35  C   UNL     1      10.918  11.245  24.270  0.00  0.00    +0.010 A 
ATOM     36  C   UNL     1      12.544  13.542  23.973  0.00  0.00    +0.026 A 
ATOM     37  C   UNL     1      11.115  12.128  25.337  0.00  0.00    +0.001 A 
ATOM     38  C   UNL     1      11.916  13.259  25.189  0.00  0.00    +0.002 A 
ATOM     42  H   UNL     1      13.429  13.389  21.250  0.00  0.00    +0.165 HD
ENDBRANCH  26  27
ENDBRANCH  24  26
ENDBRANCH   8  24
ENDBRANCH  12  21
BRANCH  23  25
ATOM     25  C   UNL     1      18.327   6.703  20.503  0.00  0.00    +0.066 C 
ATOM     29  C   UNL     1      19.458   6.585  21.220  0.00  0.00    -0.071 C 
ATOM     33  C   UNL     1      19.418   6.776  22.714  0.00  0.00    +0.039 C 
ATOM     34  C   UNL     1      20.827   6.271  20.681  0.00  0.00    +0.039 C 
ENDBRANCH  23  25
TORSDOF 8
ENDMDL
MODEL 9
REMARK VINA RESULT:      -7.0      2.679      6.506
REMARK  Name = 11882028
REMARK  10 active torsions:
REMARK  status: ('A' for Active; 'I' for Inactive)
REMARK    1  A    between atoms: N_6  and  C_11
REMARK    2  A    between atoms: N_7  and  C_15
REMARK    3  A    between atoms: N_8  and  C_24
REMARK    4  A    between atoms: C_12  and  C_21
REMARK    5  A    between atoms: C_23  and  C_25
REMARK    6  A    between atoms: C_24  and  C_26
REMARK    7  A    between atoms: C_24  and  C_28
REMARK    8  A    between atoms: C_26  and  C_27
REMARK    9  A    between atoms: C_29  and  C_33
REMARK   10  A    between atoms: C_29  and  C_34
REMARK                            x       y       z     vdW  Elec       q    Type
REMARK                         _______ _______ _______ _____ _____    ______ ____
ROOT
ATOM      3  O   UNL     1      11.032   9.160  18.957  0.00  0.00    -0.271 OA
ATOM      5  N   UNL     1      12.267   9.923  20.764  0.00  0.00    -0.285 N 
ATOM     11  C   UNL     1      13.703  11.008  22.321  0.00  0.00    +0.094 C 
ATOM     12  C   UNL     1      12.648  11.191  20.157  0.00  0.00    +0.164 C 
ATOM     13  C   UNL     1      13.194  12.035  21.307  0.00  0.00    +0.056 C 
ATOM     14  C   UNL     1      12.753   9.828  22.143  0.00  0.00    +0.131 C 
ATOM     23  C   UNL     1      11.415   9.039  20.121  0.00  0.00    +0.240 C 
ENDROOT
BRANCH  11   6
ATOM      2  O   UNL     1      16.051  12.237  23.435  0.00  0.00    -0.253 OA
ATOM      6  N   UNL     1      15.073  10.638  22.067  0.00  0.00    -0.295 N 
ATOM      7  N   UNL     1      17.364  10.739  22.242  0.00  0.00    -0.297 N 
ATOM     22  C   UNL     1      16.155  11.293  22.654  0.00  0.00    +0.300 C 
ATOM     39  H   UNL     1      15.264   9.834  21.478  0.00  0.00    +0.151 HD
ATOM     40  H   UNL     1      17.333   9.916  21.647  0.00  0.00    +0.151 HD
BRANCH   7  15
ATOM     15  C   UNL     1      18.650  11.223  22.694  0.00  0.00    +0.074 C 
ATOM     16  C   UNL     1      19.240  12.231  21.703  0.00  0.00    +0.022 C 
ATOM     17  C   UNL     1      19.617  10.060  22.947  0.00  0.00    +0.022 C 
ATOM     18  C   UNL     1      19.715  11.570  20.409  0.00  0.00    +0.002 C 
ATOM     19  C   UNL     1      20.092   9.403  21.651  0.00  0.00    +0.002 C 
ATOM     20  C   UNL     1      20.685  10.424  20.685  0.00  0.00    +0.000 C 
ENDBRANCH   7  15
ENDBRANCH  11   6
BRANCH  12  21
ATOM      1  O   UNL     1      14.895  10.952  19.385  0.00  0.00    -0.274 OA
ATOM      8  N   UNL     1      13.148  10.707  17.865  0.00  0.00    -0.302 N 
ATOM     21  C   UNL     1      13.696  10.933  19.116  0.00  0.00    +0.234 C 
ATOM     41  H   UNL     1      12.139  10.620  17.781  0.00  0.00    +0.150 HD
BRANCH   8  24
ATOM     24  C   UNL     1      13.944  10.456  16.686  0.00  0.00    +0.163 C 
BRANCH  24  28
ATOM      4  O   UNL     1      13.705   8.579  15.160  0.00  0.00    -0.274 OA
ATOM     10  N   UNL     1      11.806   9.624  15.923  0.00  0.00    -0.328 N 
ATOM     28  C   UNL     1      13.174   9.462  15.829  0.00  0.00    +0.231 C 
ATOM     43  H   UNL     1      11.381  10.344  16.497  0.00  0.00    +0.145 HD
ATOM     44  H   UNL     1      11.175   9.017  15.412  0.00  0.00    +0.145 HD
ENDBRANCH  24  28
BRANCH  24  26
ATOM     26  C   UNL     1      14.232  11.738  15.895  0.00  0.00    +0.069 C 
BRANCH  26  27
ATOM      9  N   UNL     1      17.358  11.560  13.970  0.00  0.00    -0.360 N 
ATOM     27  C   UNL     1      15.626  11.788  15.340  0.00  0.00    -0.020 A 
ATOM     30  C   UNL     1      16.780  12.304  15.993  0.00  0.00    +0.003 A 
ATOM     31  C   UNL     1      16.013  11.338  14.098  0.00  0.00    +0.087 A 
ATOM     32  C   UNL     1      17.853  12.148  15.112  0.00  0.00    +0.047 A 
ATOM     35  C   UNL     1      17.016  12.890  17.253  0.00  0.00    +0.010 A 
ATOM     36  C   UNL     1      19.154  12.552  15.430  0.00  0.00    +0.026 A 
ATOM     37  C   UNL     1      18.313  13.297  17.583  0.00  0.00    +0.001 A 
ATOM     38  C   UNL     1      19.365  13.130  16.684  0.00  0.00    +0.002 A 
ATOM     42  H   UNL     1      17.908  11.326  13.156  0.00  0.00    +0.165 HD
ENDBRANCH  26  27
ENDBRANCH  24  26
ENDBRANCH   8  24
ENDBRANCH  12  21
BRANCH  23  25
ATOM     25  C   UNL     1      10.950   7.877  20.903  0.00  0.00    +0.066 C 
ATOM     29  C   UNL     1      11.560   6.680  20.935  0.00  0.00    -0.071 C 
ATOM     33  C   UNL     1      12.815   6.459  20.131  0.00  0.00    +0.039 C 
ATOM     34  C   UNL     1      11.117   5.474  21.718  0.00  0.00    +0.039 C 
ENDBRANCH  23  25
TORSDOF 8
ENDMDL
MODEL 10
REMARK VINA RESULT:      -6.9     27.170     30.942
REMARK  Name = 11882028
REMARK  10 active torsions:
REMARK  status: ('A' for Active; 'I' for Inactive)
REMARK    1  A    between atoms: N_6  and  C_11
REMARK    2  A    between atoms: N_7  and  C_15
REMARK    3  A    between atoms: N_8  and  C_24
REMARK    4  A    between atoms: C_12  and  C_21
REMARK    5  A    between atoms: C_23  and  C_25
REMARK    6  A    between atoms: C_24  and  C_26
REMARK    7  A    between atoms: C_24  and  C_28
REMARK    8  A    between atoms: C_26  and  C_27
REMARK    9  A    between atoms: C_29  and  C_33
REMARK   10  A    between atoms: C_29  and  C_34
REMARK                            x       y       z     vdW  Elec       q    Type
REMARK                         _______ _______ _______ _____ _____    ______ ____
ROOT
ATOM      3  O   UNL     1      -3.707 -13.252   9.580  0.00  0.00    -0.271 OA
ATOM      5  N   UNL     1      -4.656 -11.184  10.022  0.00  0.00    -0.285 N 
ATOM     11  C   UNL     1      -5.306  -9.029  10.796  0.00  0.00    +0.094 C 
ATOM     12  C   UNL     1      -3.536 -10.672  10.800  0.00  0.00    +0.164 C 
ATOM     13  C   UNL     1      -3.787  -9.170  10.918  0.00  0.00    +0.056 C 
ATOM     14  C   UNL     1      -5.696 -10.166   9.857  0.00  0.00    +0.131 C 
ATOM     23  C   UNL     1      -4.605 -12.426   9.410  0.00  0.00    +0.240 C 
ENDROOT
BRANCH  11   6
ATOM      2  O   UNL     1      -8.123  -9.354  11.269  0.00  0.00    -0.253 OA
ATOM      6  N   UNL     1      -5.958  -9.142  12.077  0.00  0.00    -0.295 N 
ATOM      7  N   UNL     1      -7.706  -9.382  13.553  0.00  0.00    -0.297 N 
ATOM     22  C   UNL     1      -7.337  -9.298  12.213  0.00  0.00    +0.300 C 
ATOM     39  H   UNL     1      -5.390  -9.163  12.918  0.00  0.00    +0.151 HD
ATOM     40  H   UNL     1      -6.967  -9.394  14.250  0.00  0.00    +0.151 HD
BRANCH   7  15
ATOM     15  C   UNL     1      -9.076  -9.547  13.987  0.00  0.00    +0.074 C 
ATOM     16  C   UNL     1      -9.363  -8.705  15.235  0.00  0.00    +0.022 C 
ATOM     17  C   UNL     1      -9.404 -11.025  14.226  0.00  0.00    +0.022 C 
ATOM     18  C   UNL     1      -8.685  -9.264  16.486  0.00  0.00    +0.002 C 
ATOM     19  C   UNL     1      -8.726 -11.580  15.478  0.00  0.00    +0.002 C 
ATOM     20  C   UNL     1      -9.035 -10.732  16.708  0.00  0.00    +0.000 C 
ENDBRANCH   7  15
ENDBRANCH  11   6
BRANCH  12  21
ATOM      1  O   UNL     1      -4.009 -12.459  12.312  0.00  0.00    -0.274 OA
ATOM      8  N   UNL     1      -2.975 -10.537  13.124  0.00  0.00    -0.302 N 
ATOM     21  C   UNL     1      -3.536 -11.338  12.144  0.00  0.00    +0.234 C 
ATOM     41  H   UNL     1      -2.529  -9.666  12.850  0.00  0.00    +0.150 HD
BRANCH   8  24
ATOM     24  C   UNL     1      -2.875 -10.937  14.509  0.00  0.00    +0.163 C 
BRANCH  24  28
ATOM      4  O   UNL     1      -0.943  -9.462  14.525  0.00  0.00    -0.274 OA
ATOM     10  N   UNL     1      -1.129 -11.047  16.178  0.00  0.00    -0.328 N 
ATOM     28  C   UNL     1      -1.551 -10.401  15.034  0.00  0.00    +0.231 C 
ATOM     43  H   UNL     1      -1.653 -11.806  16.600  0.00  0.00    +0.145 HD
ATOM     44  H   UNL     1      -0.267 -10.777  16.639  0.00  0.00    +0.145 HD
ENDBRANCH  24  28
BRANCH  24  26
ATOM     26  C   UNL     1      -4.041 -10.408  15.353  0.00  0.00    +0.069 C 
BRANCH  26  27
ATOM      9  N   UNL     1      -5.654 -13.462  16.612  0.00  0.00    -0.360 N 
ATOM     27  C   UNL     1      -4.774 -11.492  16.091  0.00  0.00    -0.020 A 
ATOM     30  C   UNL     1      -5.429 -11.367  17.347  0.00  0.00    +0.003 A 
ATOM     31  C   UNL     1      -4.929 -12.791  15.664  0.00  0.00    +0.087 A 
ATOM     32  C   UNL     1      -5.973 -12.617  17.651  0.00  0.00    +0.047 A 
ATOM     35  C   UNL     1      -5.613 -10.308  18.259  0.00  0.00    +0.010 A 
ATOM     36  C   UNL     1      -6.694 -12.861  18.825  0.00  0.00    +0.026 A 
ATOM     37  C   UNL     1      -6.332 -10.538  19.436  0.00  0.00    +0.001 A 
ATOM     38  C   UNL     1      -6.864 -11.796  19.714  0.00  0.00    +0.002 A 
ATOM     42  H   UNL     1      -5.917 -14.435  16.558  0.00  0.00    +0.165 HD
ENDBRANCH  26  27
ENDBRANCH  24  26
ENDBRANCH   8  24
ENDBRANCH  12  21
BRANCH  23  25
ATOM     25  C   UNL     1      -5.714 -12.764   8.497  0.00  0.00    +0.066 C 
ATOM     29  C   UNL     1      -5.706 -12.554   7.170  0.00  0.00    -0.071 C 
ATOM     33  C   UNL     1      -4.498 -11.930   6.520  0.00  0.00    +0.039 C 
ATOM     34  C   UNL     1      -6.815 -12.884   6.208  0.00  0.00    +0.039 C 
ENDBRANCH  23  25
TORSDOF 8
ENDMDL
