REMARK  Name = 44716482
REMARK  7 active torsions:
REMARK  status: ('A' for Active; 'I' for Inactive)
REMARK    1  A    between atoms: O_3  and  C_21
REMARK    2  A    between atoms: O_3  and  C_33
REMARK    3  A    between atoms: N_7  and  C_12
REMARK    4  A    between atoms: N_7  and  C_22
REMARK    5  A    between atoms: C_10  and  C_18
REMARK    6  A    between atoms: C_14  and  C_21
REMARK    7  A    between atoms: C_22  and  C_28
REMARK                            x       y       z     vdW  Elec       q    Type
REMARK                         _______ _______ _______ _____ _____    ______ ____
ROOT
ATOM      5  N   UNL     1      -0.819  -0.501  -0.078  0.00  0.00    -0.274 NA
ATOM      6  N   UNL     1      -2.130   3.018  -0.014  0.00  0.00    -0.356 N 
ATOM      9  C   UNL     1      -0.753   0.922  -0.531  0.00  0.00    +0.106 C 
ATOM     10  C   UNL     1       0.341  -1.293  -0.563  0.00  0.00    +0.090 C 
ATOM     11  C   UNL     1       0.547   1.586  -0.051  0.00  0.00    +0.044 C 
ATOM     12  C   UNL     1       1.763   0.823  -0.574  0.00  0.00    +0.058 C 
ATOM     13  C   UNL     1       1.678  -0.639  -0.137  0.00  0.00    +0.042 C 
ATOM     14  C   UNL     1      -2.147  -1.127  -0.322  0.00  0.00    +0.172 C 
ATOM     15  C   UNL     1      -1.964   1.661  -0.047  0.00  0.00    +0.038 A 
ATOM     16  C   UNL     1      -3.292  -0.403   0.431  0.00  0.00    +0.068 C 
ATOM     17  C   UNL     1      -3.137   1.076   0.378  0.00  0.00    -0.016 A 
ATOM     19  C   UNL     1      -4.044   2.117   0.718  0.00  0.00    +0.003 A 
ATOM     20  C   UNL     1      -3.386   3.324   0.464  0.00  0.00    +0.047 A 
ATOM     25  C   UNL     1      -5.362   2.155   1.213  0.00  0.00    +0.010 A 
ATOM     26  C   UNL     1      -3.986   4.570   0.683  0.00  0.00    +0.026 A 
ATOM     27  C   UNL     1      -5.973   3.393   1.439  0.00  0.00    +0.001 A 
ATOM     31  C   UNL     1      -5.293   4.581   1.177  0.00  0.00    +0.002 A 
ATOM     38  H   UNL     1      -1.439   3.701  -0.293  0.00  0.00    +0.166 HD
ENDROOT
BRANCH  10  18
ATOM      1  F   UNL     1       0.431  -4.596   3.054  0.00  0.00    -0.202 F 
ATOM      2  F   UNL     1       0.402  -6.650   1.250  0.00  0.00    -0.202 F 
ATOM     18  C   UNL     1       0.357  -2.739  -0.073  0.00  0.00    -0.027 A 
ATOM     23  C   UNL     1       0.388  -3.012   1.294  0.00  0.00    +0.046 A 
ATOM     24  C   UNL     1       0.342  -3.787  -0.994  0.00  0.00    +0.008 A 
ATOM     29  C   UNL     1       0.402  -4.333   1.741  0.00  0.00    +0.159 A 
ATOM     30  C   UNL     1       0.357  -5.108  -0.547  0.00  0.00    +0.041 A 
ATOM     32  C   UNL     1       0.387  -5.381   0.821  0.00  0.00    +0.158 A 
ENDBRANCH  10  18
BRANCH  14  21
ATOM      4  O   UNL     1      -1.673  -0.782  -2.661  0.00  0.00    -0.249 OA
ATOM     21  C   UNL     1      -2.433  -1.195  -1.796  0.00  0.00    +0.325 C 
BRANCH  21   3
ATOM      3  O   UNL     1      -3.648  -1.779  -1.998  0.00  0.00    -0.467 OA
ATOM     33  C   UNL     1      -4.049  -1.909  -3.366  0.00  0.00    +0.280 C 
ENDBRANCH  21   3
ENDBRANCH  14  21
BRANCH  12   7
ATOM      7  N   UNL     1       2.994   1.442  -0.085  0.00  0.00    -0.309 NA
ATOM     39  H   UNL     1       2.888   2.457  -0.101  0.00  0.00    +0.123 HD
BRANCH   7  22
ATOM     22  C   UNL     1       4.124   1.076  -0.925  0.00  0.00    +0.118 C 
BRANCH  22  28
ATOM      8  N   UNL     1       7.519   1.448   0.706  0.00  0.00    -0.263 NA
ATOM     28  C   UNL     1       5.406   1.699  -0.442  0.00  0.00    -0.015 A 
ATOM     34  C   UNL     1       5.681   3.043  -0.668  0.00  0.00    +0.008 A 
ATOM     35  C   UNL     1       6.350   0.951   0.244  0.00  0.00    +0.115 A 
ATOM     36  C   UNL     1       6.873   3.590  -0.208  0.00  0.00    +0.020 A 
ATOM     37  C   UNL     1       7.751   2.758   0.467  0.00  0.00    +0.111 A 
ENDBRANCH  22  28
ENDBRANCH   7  22
ENDBRANCH  12   7
TORSDOF 6
