MODEL 1
REMARK VINA RESULT:      -6.4      0.000      0.000
REMARK  Name = 38029128
REMARK  14 active torsions:
REMARK  status: ('A' for Active; 'I' for Inactive)
REMARK    1  A    between atoms: S_1  and  N_5
REMARK    2  A    between atoms: S_1  and  C_21
REMARK    3  A    between atoms: N_5  and  C_15
REMARK    4  A    between atoms: N_6  and  C_22
REMARK    5  A    between atoms: N_6  and  C_23
REMARK    6  A    between atoms: C_8  and  C_12
REMARK    7  A    between atoms: C_9  and  C_15
REMARK    8  A    between atoms: C_11  and  C_16
REMARK    9  A    between atoms: C_12  and  C_17
REMARK   10  A    between atoms: C_12  and  C_18
REMARK   11  A    between atoms: C_13  and  C_19
REMARK   12  A    between atoms: C_16  and  C_20
REMARK   13  A    between atoms: C_22  and  C_26
REMARK   14  A    between atoms: C_29  and  C_32
REMARK                            x       y       z     vdW  Elec       q    Type
REMARK                         _______ _______ _______ _____ _____    ______ ____
ROOT
ATOM      8  C   UNL     1      -6.062 -11.272  14.829  0.00  0.00    +0.000 C 
ATOM      9  C   UNL     1      -4.706 -11.560  15.521  0.00  0.00    +0.030 C 
ATOM     10  C   UNL     1      -6.751 -10.065  15.482  0.00  0.00    +0.012 C 
ATOM     11  C   UNL     1      -7.006 -10.281  16.986  0.00  0.00    +0.023 C 
ATOM     13  C   UNL     1      -5.780 -10.824  17.692  0.00  0.00    -0.073 C 
ATOM     14  C   UNL     1      -4.757 -11.379  17.020  0.00  0.00    -0.023 C 
ATOM     19  C   UNL     1      -5.738 -10.672  19.187  0.00  0.00    +0.039 C 
ENDROOT
BRANCH   8  12
ATOM     12  C   UNL     1      -5.892 -11.024  13.327  0.00  0.00    -0.013 C 
ATOM     17  C   UNL     1      -6.090  -9.547  13.006  0.00  0.00    +0.007 C 
ATOM     18  C   UNL     1      -6.869 -11.886  12.533  0.00  0.00    +0.007 C 
ENDBRANCH   8  12
BRANCH   9  15
ATOM     15  C   UNL     1      -4.205 -12.971  15.193  0.00  0.00    +0.113 C 
BRANCH  15   5
ATOM      5  N   UNL     1      -2.754 -12.922  14.948  0.00  0.00    -0.189 NA
ATOM     35  H   UNL     1      -2.226 -12.192  15.441  0.00  0.00    +0.148 HD
BRANCH   5   1
ATOM      1  S   UNL     1      -2.112 -13.514  13.486  0.00  0.00    +0.058 S 
ATOM      3  O   UNL     1      -2.812 -14.728  13.113  0.00  0.00    -0.153 OA
ATOM      4  O   UNL     1      -0.663 -13.501  13.564  0.00  0.00    -0.153 OA
BRANCH   1  21
ATOM     21  C   UNL     1      -2.578 -12.245  12.348  0.00  0.00    +0.105 A 
ATOM     24  C   UNL     1      -2.177 -10.927  12.568  0.00  0.00    +0.029 A 
ATOM     25  C   UNL     1      -3.349 -12.560  11.228  0.00  0.00    +0.029 A 
ATOM     27  C   UNL     1      -2.545  -9.926  11.670  0.00  0.00    +0.005 A 
ATOM     28  C   UNL     1      -3.716 -11.559  10.329  0.00  0.00    +0.005 A 
ATOM     29  C   UNL     1      -3.314 -10.242  10.550  0.00  0.00    -0.050 A 
ATOM     32  C   UNL     1      -3.707  -9.172   9.589  0.00  0.00    +0.044 C 
ENDBRANCH   1  21
ENDBRANCH   5   1
ENDBRANCH  15   5
ENDBRANCH   9  15
BRANCH  11  16
ATOM     16  C   UNL     1      -8.219 -11.190  17.215  0.00  0.00    +0.103 C 
BRANCH  16  20
ATOM      2  O   UNL     1      -9.400 -10.045  18.958  0.00  0.00    -0.276 OA
ATOM      6  N   UNL     1     -10.469 -10.218  16.908  0.00  0.00    -0.300 N 
ATOM     20  C   UNL     1      -9.403 -10.434  17.788  0.00  0.00    +0.216 C 
ATOM     23  C   UNL     1     -10.451 -10.687  15.527  0.00  0.00    +0.132 C 
BRANCH   6  22
ATOM     22  C   UNL     1     -11.683  -9.507  17.305  0.00  0.00    +0.144 C 
BRANCH  22  26
ATOM      7  N   UNL     1     -13.153  -6.797  15.116  0.00  0.00    -0.263 NA
ATOM     26  C   UNL     1     -11.835  -8.204  16.574  0.00  0.00    -0.012 A 
ATOM     30  C   UNL     1     -10.857  -7.220  16.653  0.00  0.00    +0.008 A 
ATOM     31  C   UNL     1     -12.955  -7.946  15.800  0.00  0.00    +0.115 A 
ATOM     33  C   UNL     1     -11.025  -6.024  15.963  0.00  0.00    +0.020 A 
ATOM     34  C   UNL     1     -12.181  -5.863  15.215  0.00  0.00    +0.111 A 
ENDBRANCH  22  26
ENDBRANCH   6  22
ENDBRANCH  16  20
ENDBRANCH  11  16
TORSDOF 9
ENDMDL
MODEL 2
REMARK VINA RESULT:      -6.3     24.411     28.020
REMARK  Name = 38029128
REMARK  14 active torsions:
REMARK  status: ('A' for Active; 'I' for Inactive)
REMARK    1  A    between atoms: S_1  and  N_5
REMARK    2  A    between atoms: S_1  and  C_21
REMARK    3  A    between atoms: N_5  and  C_15
REMARK    4  A    between atoms: N_6  and  C_22
REMARK    5  A    between atoms: N_6  and  C_23
REMARK    6  A    between atoms: C_8  and  C_12
REMARK    7  A    between atoms: C_9  and  C_15
REMARK    8  A    between atoms: C_11  and  C_16
REMARK    9  A    between atoms: C_12  and  C_17
REMARK   10  A    between atoms: C_12  and  C_18
REMARK   11  A    between atoms: C_13  and  C_19
REMARK   12  A    between atoms: C_16  and  C_20
REMARK   13  A    between atoms: C_22  and  C_26
REMARK   14  A    between atoms: C_29  and  C_32
REMARK                            x       y       z     vdW  Elec       q    Type
REMARK                         _______ _______ _______ _____ _____    ______ ____
ROOT
ATOM      8  C   UNL     1       9.612   9.510   3.234  0.00  0.00    +0.000 C 
ATOM      9  C   UNL     1       8.443   9.671   4.238  0.00  0.00    +0.030 C 
ATOM     10  C   UNL     1       9.453   8.210   2.431  0.00  0.00    +0.012 C 
ATOM     11  C   UNL     1       9.413   6.965   3.338  0.00  0.00    +0.023 C 
ATOM     13  C   UNL     1       8.474   7.154   4.512  0.00  0.00    -0.073 C 
ATOM     14  C   UNL     1       8.041   8.369   4.891  0.00  0.00    -0.023 C 
ATOM     19  C   UNL     1       8.007   5.909   5.214  0.00  0.00    +0.039 C 
ENDROOT
BRANCH   8  12
ATOM     12  C   UNL     1       9.708  10.702   2.278  0.00  0.00    -0.013 C 
ATOM     17  C   UNL     1       8.798  10.493   1.073  0.00  0.00    +0.007 C 
ATOM     18  C   UNL     1      11.153  10.913   1.836  0.00  0.00    +0.007 C 
ENDBRANCH   8  12
BRANCH   9  15
ATOM     15  C   UNL     1       8.782  10.702   5.321  0.00  0.00    +0.113 C 
BRANCH  15   5
ATOM      5  N   UNL     1      10.160  10.476   5.786  0.00  0.00    -0.189 NA
ATOM     35  H   UNL     1      10.803  10.024   5.125  0.00  0.00    +0.148 HD
BRANCH   5   1
ATOM      1  S   UNL     1      10.486  10.310   7.449  0.00  0.00    +0.058 S 
ATOM      3  O   UNL     1       9.448  10.979   8.209  0.00  0.00    -0.153 OA
ATOM      4  O   UNL     1      11.883  10.620   7.692  0.00  0.00    -0.153 OA
BRANCH   1  21
ATOM     21  C   UNL     1      10.297   8.569   7.681  0.00  0.00    +0.105 A 
ATOM     24  C   UNL     1      11.298   7.695   7.259  0.00  0.00    +0.029 A 
ATOM     25  C   UNL     1       9.144   8.067   8.287  0.00  0.00    +0.029 A 
ATOM     27  C   UNL     1      11.149   6.321   7.443  0.00  0.00    +0.005 A 
ATOM     28  C   UNL     1       8.994   6.693   8.471  0.00  0.00    +0.005 A 
ATOM     29  C   UNL     1       9.996   5.820   8.049  0.00  0.00    -0.050 A 
ATOM     32  C   UNL     1       9.836   4.350   8.246  0.00  0.00    +0.044 C 
ENDBRANCH   1  21
ENDBRANCH   5   1
ENDBRANCH  15   5
ENDBRANCH   9  15
BRANCH  11  16
ATOM     16  C   UNL     1      10.819   6.585   3.816  0.00  0.00    +0.103 C 
BRANCH  16  20
ATOM      2  O   UNL     1      10.708   4.194   3.678  0.00  0.00    -0.276 OA
ATOM      6  N   UNL     1      12.302   5.246   2.363  0.00  0.00    -0.300 N 
ATOM     20  C   UNL     1      11.256   5.229   3.292  0.00  0.00    +0.216 C 
ATOM     23  C   UNL     1      12.935   6.483   1.921  0.00  0.00    +0.132 C 
BRANCH   6  22
ATOM     22  C   UNL     1      12.839   4.026   1.764  0.00  0.00    +0.144 C 
BRANCH  22  26
ATOM      7  N   UNL     1      10.596   3.890  -1.278  0.00  0.00    -0.263 NA
ATOM     26  C   UNL     1      12.391   3.854   0.341  0.00  0.00    -0.012 A 
ATOM     30  C   UNL     1      13.295   3.512  -0.659  0.00  0.00    +0.008 A 
ATOM     31  C   UNL     1      11.064   4.031  -0.017  0.00  0.00    +0.115 A 
ATOM     33  C   UNL     1      12.851   3.358  -1.967  0.00  0.00    +0.020 A 
ATOM     34  C   UNL     1      11.503   3.556  -2.222  0.00  0.00    +0.111 A 
ENDBRANCH  22  26
ENDBRANCH   6  22
ENDBRANCH  16  20
ENDBRANCH  11  16
TORSDOF 9
ENDMDL
MODEL 3
REMARK VINA RESULT:      -6.2      2.721      4.304
REMARK  Name = 38029128
REMARK  14 active torsions:
REMARK  status: ('A' for Active; 'I' for Inactive)
REMARK    1  A    between atoms: S_1  and  N_5
REMARK    2  A    between atoms: S_1  and  C_21
REMARK    3  A    between atoms: N_5  and  C_15
REMARK    4  A    between atoms: N_6  and  C_22
REMARK    5  A    between atoms: N_6  and  C_23
REMARK    6  A    between atoms: C_8  and  C_12
REMARK    7  A    between atoms: C_9  and  C_15
REMARK    8  A    between atoms: C_11  and  C_16
REMARK    9  A    between atoms: C_12  and  C_17
REMARK   10  A    between atoms: C_12  and  C_18
REMARK   11  A    between atoms: C_13  and  C_19
REMARK   12  A    between atoms: C_16  and  C_20
REMARK   13  A    between atoms: C_22  and  C_26
REMARK   14  A    between atoms: C_29  and  C_32
REMARK                            x       y       z     vdW  Elec       q    Type
REMARK                         _______ _______ _______ _____ _____    ______ ____
ROOT
ATOM      8  C   UNL     1      -7.789 -10.292  16.189  0.00  0.00    +0.000 C 
ATOM      9  C   UNL     1      -6.978  -9.941  14.916  0.00  0.00    +0.030 C 
ATOM     10  C   UNL     1      -7.043  -9.820  17.446  0.00  0.00    +0.012 C 
ATOM     11  C   UNL     1      -5.644 -10.455  17.568  0.00  0.00    +0.023 C 
ATOM     13  C   UNL     1      -4.880 -10.386  16.261  0.00  0.00    -0.073 C 
ATOM     14  C   UNL     1      -5.490 -10.142  15.089  0.00  0.00    -0.023 C 
ATOM     19  C   UNL     1      -3.388 -10.558  16.340  0.00  0.00    +0.039 C 
ENDROOT
BRANCH   8  12
ATOM     12  C   UNL     1      -9.191  -9.678  16.156  0.00  0.00    -0.013 C 
ATOM     17  C   UNL     1      -9.294  -8.532  17.156  0.00  0.00    +0.007 C 
ATOM     18  C   UNL     1     -10.244 -10.744  16.444  0.00  0.00    +0.007 C 
ENDBRANCH   8  12
BRANCH   9  15
ATOM     15  C   UNL     1      -7.466 -10.750  13.709  0.00  0.00    +0.113 C 
BRANCH  15   5
ATOM      5  N   UNL     1      -6.678 -10.368  12.525  0.00  0.00    -0.189 NA
ATOM     35  H   UNL     1      -6.990  -9.535  12.010  0.00  0.00    +0.148 HD
BRANCH   5   1
ATOM      1  S   UNL     1      -5.796 -11.546  11.667  0.00  0.00    +0.058 S 
ATOM      3  O   UNL     1      -6.362 -11.694  10.339  0.00  0.00    -0.153 OA
ATOM      4  O   UNL     1      -5.608 -12.709  12.513  0.00  0.00    -0.153 OA
BRANCH   1  21
ATOM     21  C   UNL     1      -4.219 -10.766  11.504  0.00  0.00    +0.105 A 
ATOM     24  C   UNL     1      -4.008  -9.819  10.502  0.00  0.00    +0.029 A 
ATOM     25  C   UNL     1      -3.183 -11.098  12.379  0.00  0.00    +0.029 A 
ATOM     27  C   UNL     1      -2.763  -9.204  10.374  0.00  0.00    +0.005 A 
ATOM     28  C   UNL     1      -1.938 -10.483  12.251  0.00  0.00    +0.005 A 
ATOM     29  C   UNL     1      -1.728  -9.535  11.249  0.00  0.00    -0.050 A 
ATOM     32  C   UNL     1      -0.397  -8.877  11.113  0.00  0.00    +0.044 C 
ENDBRANCH   1  21
ENDBRANCH   5   1
ENDBRANCH  15   5
ENDBRANCH   9  15
BRANCH  11  16
ATOM     16  C   UNL     1      -5.736 -11.899  18.074  0.00  0.00    +0.103 C 
BRANCH  16  20
ATOM      2  O   UNL     1      -6.397 -11.428  20.329  0.00  0.00    -0.276 OA
ATOM      6  N   UNL     1      -7.762 -12.856  19.114  0.00  0.00    -0.300 N 
ATOM     20  C   UNL     1      -6.647 -12.027  19.281  0.00  0.00    +0.216 C 
ATOM     23  C   UNL     1      -8.037 -13.554  17.865  0.00  0.00    +0.132 C 
BRANCH   6  22
ATOM     22  C   UNL     1      -8.735 -13.085  20.180  0.00  0.00    +0.144 C 
BRANCH  22  26
ATOM      7  N   UNL     1     -11.014 -10.076  19.951  0.00  0.00    -0.263 NA
ATOM     26  C   UNL     1      -9.975 -12.258  19.996  0.00  0.00    -0.012 A 
ATOM     30  C   UNL     1     -11.199 -12.854  19.712  0.00  0.00    +0.008 A 
ATOM     31  C   UNL     1      -9.936 -10.877  20.104  0.00  0.00    +0.115 A 
ATOM     33  C   UNL     1     -12.330 -12.063  19.548  0.00  0.00    +0.020 A 
ATOM     34  C   UNL     1     -12.186 -10.691  19.677  0.00  0.00    +0.111 A 
ENDBRANCH  22  26
ENDBRANCH   6  22
ENDBRANCH  16  20
ENDBRANCH  11  16
TORSDOF 9
ENDMDL
MODEL 4
REMARK VINA RESULT:      -6.2     19.613     23.365
REMARK  Name = 38029128
REMARK  14 active torsions:
REMARK  status: ('A' for Active; 'I' for Inactive)
REMARK    1  A    between atoms: S_1  and  N_5
REMARK    2  A    between atoms: S_1  and  C_21
REMARK    3  A    between atoms: N_5  and  C_15
REMARK    4  A    between atoms: N_6  and  C_22
REMARK    5  A    between atoms: N_6  and  C_23
REMARK    6  A    between atoms: C_8  and  C_12
REMARK    7  A    between atoms: C_9  and  C_15
REMARK    8  A    between atoms: C_11  and  C_16
REMARK    9  A    between atoms: C_12  and  C_17
REMARK   10  A    between atoms: C_12  and  C_18
REMARK   11  A    between atoms: C_13  and  C_19
REMARK   12  A    between atoms: C_16  and  C_20
REMARK   13  A    between atoms: C_22  and  C_26
REMARK   14  A    between atoms: C_29  and  C_32
REMARK                            x       y       z     vdW  Elec       q    Type
REMARK                         _______ _______ _______ _____ _____    ______ ____
ROOT
ATOM      8  C   UNL     1     -13.880   7.222  21.306  0.00  0.00    +0.000 C 
ATOM      9  C   UNL     1     -13.837   8.564  22.080  0.00  0.00    +0.030 C 
ATOM     10  C   UNL     1     -12.477   6.850  20.801  0.00  0.00    +0.012 C 
ATOM     11  C   UNL     1     -11.884   7.930  19.876  0.00  0.00    +0.023 C 
ATOM     13  C   UNL     1     -12.047   9.320  20.457  0.00  0.00    -0.073 C 
ATOM     14  C   UNL     1     -12.915   9.581  21.450  0.00  0.00    -0.023 C 
ATOM     19  C   UNL     1     -11.156  10.395  19.900  0.00  0.00    +0.039 C 
ENDROOT
BRANCH   8  12
ATOM     12  C   UNL     1     -14.441   6.087  22.167  0.00  0.00    -0.013 C 
ATOM     17  C   UNL     1     -13.372   5.027  22.412  0.00  0.00    +0.007 C 
ATOM     18  C   UNL     1     -15.669   5.473  21.501  0.00  0.00    +0.007 C 
ENDBRANCH   8  12
BRANCH   9  15
ATOM     15  C   UNL     1     -15.240   9.165  22.224  0.00  0.00    +0.113 C 
BRANCH  15   5
ATOM      5  N   UNL     1     -15.499   9.445  23.645  0.00  0.00    -0.189 NA
ATOM     35  H   UNL     1     -16.205   8.862  24.112  0.00  0.00    +0.148 HD
BRANCH   5   1
ATOM      1  S   UNL     1     -15.215  11.001  24.277  0.00  0.00    +0.058 S 
ATOM      3  O   UNL     1     -16.202  11.290  25.300  0.00  0.00    -0.153 OA
ATOM      4  O   UNL     1     -15.008  11.929  23.181  0.00  0.00    -0.153 OA
BRANCH   1  21
ATOM     21  C   UNL     1     -13.652  10.786  25.073  0.00  0.00    +0.105 A 
ATOM     24  C   UNL     1     -13.587  10.207  26.340  0.00  0.00    +0.029 A 
ATOM     25  C   UNL     1     -12.481  11.196  24.434  0.00  0.00    +0.029 A 
ATOM     27  C   UNL     1     -12.353  10.037  26.968  0.00  0.00    +0.005 A 
ATOM     28  C   UNL     1     -11.247  11.026  25.061  0.00  0.00    +0.005 A 
ATOM     29  C   UNL     1     -11.183  10.447  26.328  0.00  0.00    -0.050 A 
ATOM     32  C   UNL     1      -9.864  10.265  26.999  0.00  0.00    +0.044 C 
ENDBRANCH   1  21
ENDBRANCH   5   1
ENDBRANCH  15   5
ENDBRANCH   9  15
BRANCH  11  16
ATOM     16  C   UNL     1     -12.491   7.847  18.472  0.00  0.00    +0.103 C 
BRANCH  16  20
ATOM      2  O   UNL     1     -10.395   7.756  17.312  0.00  0.00    -0.276 OA
ATOM      6  N   UNL     1     -11.959   9.281  16.532  0.00  0.00    -0.300 N 
ATOM     20  C   UNL     1     -11.511   8.276  17.396  0.00  0.00    +0.216 C 
ATOM     23  C   UNL     1     -13.282   9.881  16.650  0.00  0.00    +0.132 C 
BRANCH   6  22
ATOM     22  C   UNL     1     -11.135   9.805  15.444  0.00  0.00    +0.144 C 
BRANCH  22  26
ATOM      7  N   UNL     1     -10.608  13.544  15.236  0.00  0.00    -0.263 NA
ATOM     26  C   UNL     1     -10.615  11.181  15.746  0.00  0.00    -0.012 A 
ATOM     30  C   UNL     1      -9.693  11.391  16.766  0.00  0.00    +0.008 A 
ATOM     31  C   UNL     1     -11.038  12.281  15.017  0.00  0.00    +0.115 A 
ATOM     33  C   UNL     1      -9.228  12.676  17.021  0.00  0.00    +0.020 A 
ATOM     34  C   UNL     1      -9.712  13.709  16.235  0.00  0.00    +0.111 A 
ENDBRANCH  22  26
ENDBRANCH   6  22
ENDBRANCH  16  20
ENDBRANCH  11  16
TORSDOF 9
ENDMDL
MODEL 5
REMARK VINA RESULT:      -6.1      2.626      8.335
REMARK  Name = 38029128
REMARK  14 active torsions:
REMARK  status: ('A' for Active; 'I' for Inactive)
REMARK    1  A    between atoms: S_1  and  N_5
REMARK    2  A    between atoms: S_1  and  C_21
REMARK    3  A    between atoms: N_5  and  C_15
REMARK    4  A    between atoms: N_6  and  C_22
REMARK    5  A    between atoms: N_6  and  C_23
REMARK    6  A    between atoms: C_8  and  C_12
REMARK    7  A    between atoms: C_9  and  C_15
REMARK    8  A    between atoms: C_11  and  C_16
REMARK    9  A    between atoms: C_12  and  C_17
REMARK   10  A    between atoms: C_12  and  C_18
REMARK   11  A    between atoms: C_13  and  C_19
REMARK   12  A    between atoms: C_16  and  C_20
REMARK   13  A    between atoms: C_22  and  C_26
REMARK   14  A    between atoms: C_29  and  C_32
REMARK                            x       y       z     vdW  Elec       q    Type
REMARK                         _______ _______ _______ _____ _____    ______ ____
ROOT
ATOM      8  C   UNL     1      -5.447 -11.738  17.627  0.00  0.00    +0.000 C 
ATOM      9  C   UNL     1      -6.912 -11.394  17.259  0.00  0.00    +0.030 C 
ATOM     10  C   UNL     1      -4.496 -10.646  17.114  0.00  0.00    +0.012 C 
ATOM     11  C   UNL     1      -4.586 -10.463  15.587  0.00  0.00    +0.023 C 
ATOM     13  C   UNL     1      -6.024 -10.386  15.114  0.00  0.00    -0.073 C 
ATOM     14  C   UNL     1      -7.051 -10.793  15.880  0.00  0.00    -0.023 C 
ATOM     19  C   UNL     1      -6.258  -9.784  13.756  0.00  0.00    +0.039 C 
ENDROOT
BRANCH   8  12
ATOM     12  C   UNL     1      -5.267 -11.916  19.138  0.00  0.00    -0.013 C 
ATOM     17  C   UNL     1      -5.870 -10.734  19.888  0.00  0.00    +0.007 C 
ATOM     18  C   UNL     1      -3.790 -12.078  19.481  0.00  0.00    +0.007 C 
ENDBRANCH   8  12
BRANCH   9  15
ATOM     15  C   UNL     1      -7.816 -12.628  17.372  0.00  0.00    +0.113 C 
BRANCH  15   5
ATOM      5  N   UNL     1      -9.208 -12.229  17.111  0.00  0.00    -0.189 NA
ATOM     35  H   UNL     1      -9.442 -11.965  16.146  0.00  0.00    +0.148 HD
BRANCH   5   1
ATOM      1  S   UNL     1     -10.162 -11.578  18.363  0.00  0.00    +0.058 S 
ATOM      3  O   UNL     1      -9.344 -11.410  19.549  0.00  0.00    -0.153 OA
ATOM      4  O   UNL     1     -11.413 -12.309  18.437  0.00  0.00    -0.153 OA
BRANCH   1  21
ATOM     21  C   UNL     1     -10.539  -9.972  17.730  0.00  0.00    +0.105 A 
ATOM     24  C   UNL     1      -9.555  -8.985  17.698  0.00  0.00    +0.029 A 
ATOM     25  C   UNL     1     -11.824  -9.691  17.261  0.00  0.00    +0.029 A 
ATOM     27  C   UNL     1      -9.853  -7.718  17.198  0.00  0.00    +0.005 A 
ATOM     28  C   UNL     1     -12.122  -8.424  16.761  0.00  0.00    +0.005 A 
ATOM     29  C   UNL     1     -11.136  -7.437  16.729  0.00  0.00    -0.050 A 
ATOM     32  C   UNL     1     -11.455  -6.082  16.193  0.00  0.00    +0.044 C 
ENDBRANCH   1  21
ENDBRANCH   5   1
ENDBRANCH  15   5
ENDBRANCH   9  15
BRANCH  11  16
ATOM     16  C   UNL     1      -3.827 -11.574  14.853  0.00  0.00    +0.103 C 
BRANCH  16  20
ATOM      2  O   UNL     1      -2.259 -10.166  13.710  0.00  0.00    -0.276 OA
ATOM      6  N   UNL     1      -3.468 -11.658  12.410  0.00  0.00    -0.300 N 
ATOM     20  C   UNL     1      -3.106 -11.058  13.621  0.00  0.00    +0.216 C 
ATOM     23  C   UNL     1      -4.472 -12.712  12.329  0.00  0.00    +0.132 C 
BRANCH   6  22
ATOM     22  C   UNL     1      -2.867 -11.274  11.134  0.00  0.00    +0.144 C 
BRANCH  22  26
ATOM      7  N   UNL     1      -5.165 -10.321   8.286  0.00  0.00    -0.263 NA
ATOM     26  C   UNL     1      -3.815 -10.476  10.285  0.00  0.00    -0.012 A 
ATOM     30  C   UNL     1      -4.219  -9.202  10.666  0.00  0.00    +0.008 A 
ATOM     31  C   UNL     1      -4.312 -10.987   9.096  0.00  0.00    +0.115 A 
ATOM     33  C   UNL     1      -5.096  -8.486   9.858  0.00  0.00    +0.020 A 
ATOM     34  C   UNL     1      -5.536  -9.085   8.688  0.00  0.00    +0.111 A 
ENDBRANCH  22  26
ENDBRANCH   6  22
ENDBRANCH  16  20
ENDBRANCH  11  16
TORSDOF 9
ENDMDL
MODEL 6
REMARK VINA RESULT:      -6.0      1.717      3.138
REMARK  Name = 38029128
REMARK  14 active torsions:
REMARK  status: ('A' for Active; 'I' for Inactive)
REMARK    1  A    between atoms: S_1  and  N_5
REMARK    2  A    between atoms: S_1  and  C_21
REMARK    3  A    between atoms: N_5  and  C_15
REMARK    4  A    between atoms: N_6  and  C_22
REMARK    5  A    between atoms: N_6  and  C_23
REMARK    6  A    between atoms: C_8  and  C_12
REMARK    7  A    between atoms: C_9  and  C_15
REMARK    8  A    between atoms: C_11  and  C_16
REMARK    9  A    between atoms: C_12  and  C_17
REMARK   10  A    between atoms: C_12  and  C_18
REMARK   11  A    between atoms: C_13  and  C_19
REMARK   12  A    between atoms: C_16  and  C_20
REMARK   13  A    between atoms: C_22  and  C_26
REMARK   14  A    between atoms: C_29  and  C_32
REMARK                            x       y       z     vdW  Elec       q    Type
REMARK                         _______ _______ _______ _____ _____    ______ ____
ROOT
ATOM      8  C   UNL     1      -5.403 -11.391  17.362  0.00  0.00    +0.000 C 
ATOM      9  C   UNL     1      -4.246 -12.048  16.567  0.00  0.00    +0.030 C 
ATOM     10  C   UNL     1      -6.637 -12.306  17.365  0.00  0.00    +0.012 C 
ATOM     11  C   UNL     1      -7.137 -12.617  15.941  0.00  0.00    +0.023 C 
ATOM     13  C   UNL     1      -6.002 -13.016  15.021  0.00  0.00    -0.073 C 
ATOM     14  C   UNL     1      -4.716 -12.766  15.323  0.00  0.00    -0.023 C 
ATOM     19  C   UNL     1      -6.376 -13.752  13.764  0.00  0.00    +0.039 C 
ENDROOT
BRANCH   8  12
ATOM     12  C   UNL     1      -4.992 -11.068  18.801  0.00  0.00    -0.013 C 
ATOM     17  C   UNL     1      -4.151 -12.199  19.381  0.00  0.00    +0.007 C 
ATOM     18  C   UNL     1      -6.226 -10.814  19.661  0.00  0.00    +0.007 C 
ENDBRANCH   8  12
BRANCH   9  15
ATOM     15  C   UNL     1      -3.179 -11.015  16.188  0.00  0.00    +0.113 C 
BRANCH  15   5
ATOM      5  N   UNL     1      -3.423 -10.554  14.812  0.00  0.00    -0.189 NA
ATOM     35  H   UNL     1      -4.398 -10.558  14.488  0.00  0.00    +0.148 HD
BRANCH   5   1
ATOM      1  S   UNL     1      -2.198 -10.678  13.636  0.00  0.00    +0.058 S 
ATOM      3  O   UNL     1      -1.733 -12.050  13.573  0.00  0.00    -0.153 OA
ATOM      4  O   UNL     1      -1.250  -9.595  13.820  0.00  0.00    -0.153 OA
BRANCH   1  21
ATOM     21  C   UNL     1      -3.089 -10.336  12.149  0.00  0.00    +0.105 A 
ATOM     24  C   UNL     1      -4.397 -10.796  11.997  0.00  0.00    +0.029 A 
ATOM     25  C   UNL     1      -2.484  -9.605  11.125  0.00  0.00    +0.029 A 
ATOM     27  C   UNL     1      -5.100 -10.525  10.824  0.00  0.00    +0.005 A 
ATOM     28  C   UNL     1      -3.188  -9.334   9.952  0.00  0.00    +0.005 A 
ATOM     29  C   UNL     1      -4.496  -9.794   9.801  0.00  0.00    -0.050 A 
ATOM     32  C   UNL     1      -5.248  -9.504   8.546  0.00  0.00    +0.044 C 
ENDBRANCH   1  21
ENDBRANCH   5   1
ENDBRANCH  15   5
ENDBRANCH   9  15
BRANCH  11  16
ATOM     16  C   UNL     1      -7.923 -11.436  15.362  0.00  0.00    +0.103 C 
BRANCH  16  20
ATOM      2  O   UNL     1     -10.100 -11.865  16.270  0.00  0.00    -0.276 OA
ATOM      6  N   UNL     1      -9.094  -9.862  16.864  0.00  0.00    -0.300 N 
ATOM     20  C   UNL     1      -9.142 -11.091  16.199  0.00  0.00    +0.216 C 
ATOM     23  C   UNL     1      -7.951  -8.963  16.765  0.00  0.00    +0.132 C 
BRANCH   6  22
ATOM     22  C   UNL     1     -10.187  -9.384  17.709  0.00  0.00    +0.144 C 
BRANCH  22  26
ATOM      7  N   UNL     1     -13.075  -8.026  15.679  0.00  0.00    -0.263 NA
ATOM     26  C   UNL     1     -11.076  -8.416  16.982  0.00  0.00    -0.012 A 
ATOM     30  C   UNL     1     -10.764  -7.062  16.922  0.00  0.00    +0.008 A 
ATOM     31  C   UNL     1     -12.233  -8.844  16.351  0.00  0.00    +0.115 A 
ATOM     33  C   UNL     1     -11.606  -6.190  16.241  0.00  0.00    +0.020 A 
ATOM     34  C   UNL     1     -12.739  -6.718  15.642  0.00  0.00    +0.111 A 
ENDBRANCH  22  26
ENDBRANCH   6  22
ENDBRANCH  16  20
ENDBRANCH  11  16
TORSDOF 9
ENDMDL
MODEL 7
REMARK VINA RESULT:      -6.0     24.520     28.249
REMARK  Name = 38029128
REMARK  14 active torsions:
REMARK  status: ('A' for Active; 'I' for Inactive)
REMARK    1  A    between atoms: S_1  and  N_5
REMARK    2  A    between atoms: S_1  and  C_21
REMARK    3  A    between atoms: N_5  and  C_15
REMARK    4  A    between atoms: N_6  and  C_22
REMARK    5  A    between atoms: N_6  and  C_23
REMARK    6  A    between atoms: C_8  and  C_12
REMARK    7  A    between atoms: C_9  and  C_15
REMARK    8  A    between atoms: C_11  and  C_16
REMARK    9  A    between atoms: C_12  and  C_17
REMARK   10  A    between atoms: C_12  and  C_18
REMARK   11  A    between atoms: C_13  and  C_19
REMARK   12  A    between atoms: C_16  and  C_20
REMARK   13  A    between atoms: C_22  and  C_26
REMARK   14  A    between atoms: C_29  and  C_32
REMARK                            x       y       z     vdW  Elec       q    Type
REMARK                         _______ _______ _______ _____ _____    ______ ____
ROOT
ATOM      8  C   UNL     1       8.665  10.356   2.861  0.00  0.00    +0.000 C 
ATOM      9  C   UNL     1       7.951  10.368   4.236  0.00  0.00    +0.030 C 
ATOM     10  C   UNL     1       8.263   9.107   2.060  0.00  0.00    +0.012 C 
ATOM     11  C   UNL     1       8.609   7.802   2.802  0.00  0.00    +0.023 C 
ATOM     13  C   UNL     1       8.172   7.846   4.252  0.00  0.00    -0.073 C 
ATOM     14  C   UNL     1       7.868   9.000   4.872  0.00  0.00    -0.023 C 
ATOM     19  C   UNL     1       8.045   6.526   4.961  0.00  0.00    +0.039 C 
ENDROOT
BRANCH   8  12
ATOM     12  C   UNL     1       8.354  11.616   2.049  0.00  0.00    -0.013 C 
ATOM     17  C   UNL     1       6.849  11.850   1.983  0.00  0.00    +0.007 C 
ATOM     18  C   UNL     1       8.946  11.504   0.647  0.00  0.00    +0.007 C 
ENDBRANCH   8  12
BRANCH   9  15
ATOM     15  C   UNL     1       8.633  11.341   5.205  0.00  0.00    +0.113 C 
BRANCH  15   5
ATOM      5  N   UNL     1       8.934  10.636   6.462  0.00  0.00    -0.189 NA
ATOM     35  H   UNL     1       8.299  10.805   7.252  0.00  0.00    +0.148 HD
BRANCH   5   1
ATOM      1  S   UNL     1      10.531  10.163   6.817  0.00  0.00    +0.058 S 
ATOM      3  O   UNL     1      11.005  10.906   7.969  0.00  0.00    -0.153 OA
ATOM      4  O   UNL     1      11.306  10.146   5.590  0.00  0.00    -0.153 OA
BRANCH   1  21
ATOM     21  C   UNL     1      10.307   8.480   7.309  0.00  0.00    +0.105 A 
ATOM     24  C   UNL     1       9.190   8.115   8.060  0.00  0.00    +0.029 A 
ATOM     25  C   UNL     1      11.248   7.516   6.945  0.00  0.00    +0.029 A 
ATOM     27  C   UNL     1       9.013   6.787   8.447  0.00  0.00    +0.005 A 
ATOM     28  C   UNL     1      11.071   6.188   7.332  0.00  0.00    +0.005 A 
ATOM     29  C   UNL     1       9.954   5.823   8.083  0.00  0.00    -0.050 A 
ATOM     32  C   UNL     1       9.764   4.403   8.497  0.00  0.00    +0.044 C 
ENDBRANCH   1  21
ENDBRANCH   5   1
ENDBRANCH  15   5
ENDBRANCH   9  15
BRANCH  11  16
ATOM     16  C   UNL     1      10.104   7.484   2.690  0.00  0.00    +0.103 C 
BRANCH  16  20
ATOM      2  O   UNL     1      10.188   6.619   0.456  0.00  0.00    -0.276 OA
ATOM      6  N   UNL     1      10.876   5.199   2.155  0.00  0.00    -0.300 N 
ATOM     20  C   UNL     1      10.387   6.410   1.655  0.00  0.00    +0.216 C 
ATOM     23  C   UNL     1      11.103   4.974   3.577  0.00  0.00    +0.132 C 
BRANCH   6  22
ATOM     22  C   UNL     1      11.197   4.066   1.289  0.00  0.00    +0.144 C 
BRANCH  22  26
ATOM      7  N   UNL     1      14.884   3.251   1.492  0.00  0.00    -0.263 NA
ATOM     26  C   UNL     1      12.658   4.018   0.944  0.00  0.00    -0.012 A 
ATOM     30  C   UNL     1      13.149   4.662  -0.186  0.00  0.00    +0.008 A 
ATOM     31  C   UNL     1      13.558   3.331   1.744  0.00  0.00    +0.115 A 
ATOM     33  C   UNL     1      14.507   4.601  -0.478  0.00  0.00    +0.020 A 
ATOM     34  C   UNL     1      15.325   3.889   0.385  0.00  0.00    +0.111 A 
ENDBRANCH  22  26
ENDBRANCH   6  22
ENDBRANCH  16  20
ENDBRANCH  11  16
TORSDOF 9
ENDMDL
MODEL 8
REMARK VINA RESULT:      -5.8     24.885     28.255
REMARK  Name = 38029128
REMARK  14 active torsions:
REMARK  status: ('A' for Active; 'I' for Inactive)
REMARK    1  A    between atoms: S_1  and  N_5
REMARK    2  A    between atoms: S_1  and  C_21
REMARK    3  A    between atoms: N_5  and  C_15
REMARK    4  A    between atoms: N_6  and  C_22
REMARK    5  A    between atoms: N_6  and  C_23
REMARK    6  A    between atoms: C_8  and  C_12
REMARK    7  A    between atoms: C_9  and  C_15
REMARK    8  A    between atoms: C_11  and  C_16
REMARK    9  A    between atoms: C_12  and  C_17
REMARK   10  A    between atoms: C_12  and  C_18
REMARK   11  A    between atoms: C_13  and  C_19
REMARK   12  A    between atoms: C_16  and  C_20
REMARK   13  A    between atoms: C_22  and  C_26
REMARK   14  A    between atoms: C_29  and  C_32
REMARK                            x       y       z     vdW  Elec       q    Type
REMARK                         _______ _______ _______ _____ _____    ______ ____
ROOT
ATOM      8  C   UNL     1       8.629   8.844   4.498  0.00  0.00    +0.000 C 
ATOM      9  C   UNL     1       8.361   9.228   5.975  0.00  0.00    +0.030 C 
ATOM     10  C   UNL     1       8.244   7.378   4.248  0.00  0.00    +0.012 C 
ATOM     11  C   UNL     1       9.024   6.407   5.156  0.00  0.00    +0.023 C 
ATOM     13  C   UNL     1       9.031   6.868   6.599  0.00  0.00    -0.073 C 
ATOM     14  C   UNL     1       8.718   8.129   6.947  0.00  0.00    -0.023 C 
ATOM     19  C   UNL     1       9.360   5.834   7.639  0.00  0.00    +0.039 C 
ENDROOT
BRANCH   8  12
ATOM     12  C   UNL     1       7.870   9.753   3.527  0.00  0.00    -0.013 C 
ATOM     17  C   UNL     1       6.425   9.928   3.981  0.00  0.00    +0.007 C 
ATOM     18  C   UNL     1       7.928   9.185   2.113  0.00  0.00    +0.007 C 
ENDBRANCH   8  12
BRANCH   9  15
ATOM     15  C   UNL     1       9.108  10.512   6.357  0.00  0.00    +0.113 C 
BRANCH  15   5
ATOM      5  N   UNL     1       9.651  10.364   7.717  0.00  0.00    -0.189 NA
ATOM     35  H   UNL     1       8.980  10.141   8.463  0.00  0.00    +0.148 HD
BRANCH   5   1
ATOM      1  S   UNL     1      11.086  11.168   8.159  0.00  0.00    +0.058 S 
ATOM      3  O   UNL     1      11.262  11.078   9.595  0.00  0.00    -0.153 OA
ATOM      4  O   UNL     1      11.130  12.459   7.497  0.00  0.00    -0.153 OA
BRANCH   1  21
ATOM     21  C   UNL     1      12.316  10.155   7.394  0.00  0.00    +0.105 A 
ATOM     24  C   UNL     1      13.458  10.738   6.846  0.00  0.00    +0.029 A 
ATOM     25  C   UNL     1      12.144   8.771   7.339  0.00  0.00    +0.029 A 
ATOM     27  C   UNL     1      14.429   9.938   6.243  0.00  0.00    +0.005 A 
ATOM     28  C   UNL     1      13.115   7.971   6.736  0.00  0.00    +0.005 A 
ATOM     29  C   UNL     1      14.257   8.555   6.188  0.00  0.00    -0.050 A 
ATOM     32  C   UNL     1      15.295   7.699   5.544  0.00  0.00    +0.044 C 
ENDBRANCH   1  21
ENDBRANCH   5   1
ENDBRANCH  15   5
ENDBRANCH   9  15
BRANCH  11  16
ATOM     16  C   UNL     1      10.452   6.197   4.641  0.00  0.00    +0.103 C 
BRANCH  16  20
ATOM      2  O   UNL     1      10.543   3.822   4.329  0.00  0.00    -0.276 OA
ATOM      6  N   UNL     1      10.742   5.136   2.429  0.00  0.00    -0.300 N 
ATOM     20  C   UNL     1      10.581   4.937   3.804  0.00  0.00    +0.216 C 
ATOM     23  C   UNL     1      10.784   6.464   1.830  0.00  0.00    +0.132 C 
BRANCH   6  22
ATOM     22  C   UNL     1      10.881   4.026   1.487  0.00  0.00    +0.144 C 
BRANCH  22  26
ATOM      7  N   UNL     1      13.712   4.118  -1.019  0.00  0.00    -0.263 NA
ATOM     26  C   UNL     1      12.266   3.948   0.911  0.00  0.00    -0.012 A 
ATOM     30  C   UNL     1      13.360   3.646   1.714  0.00  0.00    +0.008 A 
ATOM     31  C   UNL     1      12.493   4.174  -0.437  0.00  0.00    +0.115 A 
ATOM     33  C   UNL     1      14.630   3.579   1.152  0.00  0.00    +0.020 A 
ATOM     34  C   UNL     1      14.751   3.821  -0.207  0.00  0.00    +0.111 A 
ENDBRANCH  22  26
ENDBRANCH   6  22
ENDBRANCH  16  20
ENDBRANCH  11  16
TORSDOF 9
ENDMDL
MODEL 9
REMARK VINA RESULT:      -5.8     24.297     28.274
REMARK  Name = 38029128
REMARK  14 active torsions:
REMARK  status: ('A' for Active; 'I' for Inactive)
REMARK    1  A    between atoms: S_1  and  N_5
REMARK    2  A    between atoms: S_1  and  C_21
REMARK    3  A    between atoms: N_5  and  C_15
REMARK    4  A    between atoms: N_6  and  C_22
REMARK    5  A    between atoms: N_6  and  C_23
REMARK    6  A    between atoms: C_8  and  C_12
REMARK    7  A    between atoms: C_9  and  C_15
REMARK    8  A    between atoms: C_11  and  C_16
REMARK    9  A    between atoms: C_12  and  C_17
REMARK   10  A    between atoms: C_12  and  C_18
REMARK   11  A    between atoms: C_13  and  C_19
REMARK   12  A    between atoms: C_16  and  C_20
REMARK   13  A    between atoms: C_22  and  C_26
REMARK   14  A    between atoms: C_29  and  C_32
REMARK                            x       y       z     vdW  Elec       q    Type
REMARK                         _______ _______ _______ _____ _____    ______ ____
ROOT
ATOM      8  C   UNL     1      13.519   7.757   2.065  0.00  0.00    +0.000 C 
ATOM      9  C   UNL     1      15.013   7.986   1.725  0.00  0.00    +0.030 C 
ATOM     10  C   UNL     1      13.076   8.702   3.192  0.00  0.00    +0.012 C 
ATOM     11  C   UNL     1      13.905   8.509   4.476  0.00  0.00    +0.023 C 
ATOM     13  C   UNL     1      15.391   8.454   4.184  0.00  0.00    -0.073 C 
ATOM     14  C   UNL     1      15.867   8.233   2.946  0.00  0.00    -0.023 C 
ATOM     19  C   UNL     1      16.318   8.706   5.340  0.00  0.00    +0.039 C 
ENDROOT
BRANCH   8  12
ATOM     12  C   UNL     1      12.621   7.952   0.840  0.00  0.00    -0.013 C 
ATOM     17  C   UNL     1      13.081   9.158   0.029  0.00  0.00    +0.007 C 
ATOM     18  C   UNL     1      11.166   8.112   1.269  0.00  0.00    +0.007 C 
ENDBRANCH   8  12
BRANCH   9  15
ATOM     15  C   UNL     1      15.587   6.806   0.931  0.00  0.00    +0.113 C 
BRANCH  15   5
ATOM      5  N   UNL     1      15.388   5.567   1.700  0.00  0.00    -0.189 NA
ATOM     35  H   UNL     1      15.854   5.510   2.614  0.00  0.00    +0.148 HD
BRANCH   5   1
ATOM      1  S   UNL     1      15.037   4.107   0.897  0.00  0.00    +0.058 S 
ATOM      3  O   UNL     1      14.904   3.043   1.874  0.00  0.00    -0.153 OA
ATOM      4  O   UNL     1      15.940   3.954  -0.229  0.00  0.00    -0.153 OA
BRANCH   1  21
ATOM     21  C   UNL     1      13.434   4.439   0.231  0.00  0.00    +0.105 A 
ATOM     24  C   UNL     1      13.302   4.879  -1.086  0.00  0.00    +0.029 A 
ATOM     25  C   UNL     1      12.299   4.260   1.023  0.00  0.00    +0.029 A 
ATOM     27  C   UNL     1      12.037   5.140  -1.611  0.00  0.00    +0.005 A 
ATOM     28  C   UNL     1      11.034   4.521   0.498  0.00  0.00    +0.005 A 
ATOM     29  C   UNL     1      10.903   4.961  -0.819  0.00  0.00    -0.050 A 
ATOM     32  C   UNL     1       9.550   5.240  -1.381  0.00  0.00    +0.044 C 
ENDBRANCH   1  21
ENDBRANCH   5   1
ENDBRANCH  15   5
ENDBRANCH   9  15
BRANCH  11  16
ATOM     16  C   UNL     1      13.450   7.262   5.243  0.00  0.00    +0.103 C 
BRANCH  16  20
ATOM      2  O   UNL     1      11.996   8.237   6.880  0.00  0.00    -0.276 OA
ATOM      6  N   UNL     1      11.044   6.726   5.401  0.00  0.00    -0.300 N 
ATOM     20  C   UNL     1      12.110   7.465   5.925  0.00  0.00    +0.216 C 
ATOM     23  C   UNL     1      11.203   5.819   4.271  0.00  0.00    +0.132 C 
BRANCH   6  22
ATOM     22  C   UNL     1       9.690   6.809   5.945  0.00  0.00    +0.144 C 
BRANCH  22  26
ATOM      7  N   UNL     1       8.897   5.893   9.527  0.00  0.00    -0.263 NA
ATOM     26  C   UNL     1       9.538   5.996   7.199  0.00  0.00    -0.012 A 
ATOM     30  C   UNL     1       9.879   4.648   7.225  0.00  0.00    +0.008 A 
ATOM     31  C   UNL     1       9.056   6.567   8.366  0.00  0.00    +0.115 A 
ATOM     33  C   UNL     1       9.729   3.922   8.401  0.00  0.00    +0.020 A 
ATOM     34  C   UNL     1       9.239   4.585   9.515  0.00  0.00    +0.111 A 
ENDBRANCH  22  26
ENDBRANCH   6  22
ENDBRANCH  16  20
ENDBRANCH  11  16
TORSDOF 9
ENDMDL
MODEL 10
REMARK VINA RESULT:      -5.7      4.002      6.779
REMARK  Name = 38029128
REMARK  14 active torsions:
REMARK  status: ('A' for Active; 'I' for Inactive)
REMARK    1  A    between atoms: S_1  and  N_5
REMARK    2  A    between atoms: S_1  and  C_21
REMARK    3  A    between atoms: N_5  and  C_15
REMARK    4  A    between atoms: N_6  and  C_22
REMARK    5  A    between atoms: N_6  and  C_23
REMARK    6  A    between atoms: C_8  and  C_12
REMARK    7  A    between atoms: C_9  and  C_15
REMARK    8  A    between atoms: C_11  and  C_16
REMARK    9  A    between atoms: C_12  and  C_17
REMARK   10  A    between atoms: C_12  and  C_18
REMARK   11  A    between atoms: C_13  and  C_19
REMARK   12  A    between atoms: C_16  and  C_20
REMARK   13  A    between atoms: C_22  and  C_26
REMARK   14  A    between atoms: C_29  and  C_32
REMARK                            x       y       z     vdW  Elec       q    Type
REMARK                         _______ _______ _______ _____ _____    ______ ____
ROOT
ATOM      8  C   UNL     1      -3.903 -11.937  12.439  0.00  0.00    +0.000 C 
ATOM      9  C   UNL     1      -2.584 -11.806  13.242  0.00  0.00    +0.030 C 
ATOM     10  C   UNL     1      -3.641 -11.726  10.940  0.00  0.00    +0.012 C 
ATOM     11  C   UNL     1      -3.023 -10.346  10.644  0.00  0.00    +0.023 C 
ATOM     13  C   UNL     1      -1.877 -10.030  11.583  0.00  0.00    -0.073 C 
ATOM     14  C   UNL     1      -1.688 -10.702  12.732  0.00  0.00    -0.023 C 
ATOM     19  C   UNL     1      -0.922  -8.952  11.147  0.00  0.00    +0.039 C 
ENDROOT
BRANCH   8  12
ATOM     12  C   UNL     1      -4.572 -13.296  12.663  0.00  0.00    -0.013 C 
ATOM     17  C   UNL     1      -3.544 -14.417  12.573  0.00  0.00    +0.007 C 
ATOM     18  C   UNL     1      -5.695 -13.508  11.652  0.00  0.00    +0.007 C 
ENDBRANCH   8  12
BRANCH   9  15
ATOM     15  C   UNL     1      -2.864 -11.590  14.734  0.00  0.00    +0.113 C 
BRANCH  15   5
ATOM      5  N   UNL     1      -3.834 -10.494  14.887  0.00  0.00    -0.189 NA
ATOM     35  H   UNL     1      -3.564  -9.579  14.506  0.00  0.00    +0.148 HD
BRANCH   5   1
ATOM      1  S   UNL     1      -4.960 -10.519  16.165  0.00  0.00    +0.058 S 
ATOM      3  O   UNL     1      -5.704  -9.274  16.171  0.00  0.00    -0.153 OA
ATOM      4  O   UNL     1      -4.299 -10.980  17.371  0.00  0.00    -0.153 OA
BRANCH   1  21
ATOM     21  C   UNL     1      -6.057 -11.807  15.653  0.00  0.00    +0.105 A 
ATOM     24  C   UNL     1      -5.885 -13.103  16.137  0.00  0.00    +0.029 A 
ATOM     25  C   UNL     1      -7.096 -11.526  14.765  0.00  0.00    +0.029 A 
ATOM     27  C   UNL     1      -6.751 -14.119  15.734  0.00  0.00    +0.005 A 
ATOM     28  C   UNL     1      -7.962 -12.542  14.361  0.00  0.00    +0.005 A 
ATOM     29  C   UNL     1      -7.789 -13.839  14.846  0.00  0.00    -0.050 A 
ATOM     32  C   UNL     1      -8.716 -14.925  14.415  0.00  0.00    +0.044 C 
ENDBRANCH   1  21
ENDBRANCH   5   1
ENDBRANCH  15   5
ENDBRANCH   9  15
BRANCH  11  16
ATOM     16  C   UNL     1      -4.088  -9.245  10.688  0.00  0.00    +0.103 C 
BRANCH  16  20
ATOM      2  O   UNL     1      -4.824  -9.541   8.426  0.00  0.00    -0.276 OA
ATOM      6  N   UNL     1      -6.468  -9.443  10.058  0.00  0.00    -0.300 N 
ATOM     20  C   UNL     1      -5.143  -9.423   9.612  0.00  0.00    +0.216 C 
ATOM     23  C   UNL     1      -6.821  -9.302  11.465  0.00  0.00    +0.132 C 
BRANCH   6  22
ATOM     22  C   UNL     1      -7.600  -9.606   9.148  0.00  0.00    +0.144 C 
BRANCH  22  26
ATOM      7  N   UNL     1     -10.391  -7.057   9.271  0.00  0.00    -0.263 NA
ATOM     26  C   UNL     1      -8.356  -8.322   8.955  0.00  0.00    -0.012 A 
ATOM     30  C   UNL     1      -7.773  -7.238   8.310  0.00  0.00    +0.008 A 
ATOM     31  C   UNL     1      -9.656  -8.183   9.414  0.00  0.00    +0.115 A 
ATOM     33  C   UNL     1      -8.497  -6.063   8.144  0.00  0.00    +0.020 A 
ATOM     34  C   UNL     1      -9.792  -6.024   8.638  0.00  0.00    +0.111 A 
ENDBRANCH  22  26
ENDBRANCH   6  22
ENDBRANCH  16  20
ENDBRANCH  11  16
TORSDOF 9
ENDMDL
