MODEL 1
REMARK VINA RESULT:      -6.8      0.000      0.000
REMARK  Name = 51137800
REMARK  5 active torsions:
REMARK  status: ('A' for Active; 'I' for Inactive)
REMARK    1  A    between atoms: O_3  and  C_21
REMARK    2  A    between atoms: O_3  and  C_26
REMARK    3  A    between atoms: C_7  and  C_14
REMARK    4  A    between atoms: C_8  and  C_18
REMARK    5  A    between atoms: C_19  and  C_20
REMARK                            x       y       z     vdW  Elec       q    Type
REMARK                         _______ _______ _______ _____ _____    ______ ____
ROOT
ATOM      1  O   UNL     1      -2.412  -9.191  10.326  0.00  0.00    -0.275 OA
ATOM      4  N   UNL     1      -3.021 -10.990  11.642  0.00  0.00    -0.300 N 
ATOM      8  C   UNL     1      -1.907 -12.201  13.358  0.00  0.00    +0.095 C 
ATOM      9  C   UNL     1      -1.690 -11.239  12.183  0.00  0.00    +0.120 C 
ATOM     12  C   UNL     1      -3.155 -12.978  12.907  0.00  0.00    +0.033 C 
ATOM     13  C   UNL     1      -3.993 -11.937  12.175  0.00  0.00    +0.108 C 
ATOM     14  C   UNL     1      -3.272  -9.966  10.747  0.00  0.00    +0.219 C 
ENDROOT
BRANCH  14   7
ATOM      7  C   UNL     1      -4.694  -9.840  10.292  0.00  0.00    +0.075 C 
ATOM     10  C   UNL     1      -5.101  -8.368  10.257  0.00  0.00    +0.013 C 
ATOM     11  C   UNL     1      -4.844 -10.498   8.918  0.00  0.00    +0.013 C 
ATOM     15  C   UNL     1      -6.512  -8.189   9.699  0.00  0.00    +0.001 C 
ATOM     16  C   UNL     1      -6.252 -10.315   8.361  0.00  0.00    +0.001 C 
ATOM     17  C   UNL     1      -6.660  -8.845   8.329  0.00  0.00    +0.000 C 
ENDBRANCH  14   7
BRANCH   8  18
ATOM      2  O   UNL     1      -3.320 -11.748  15.314  0.00  0.00    -0.420 OA
ATOM      5  N   UNL     1      -1.269 -10.865  15.449  0.00  0.00    -0.112 NA
ATOM      6  N   UNL     1      -1.953 -10.537  16.605  0.00  0.00    -0.107 NA
ATOM     18  C   UNL     1      -2.105 -11.572  14.725  0.00  0.00    +0.222 A 
ATOM     19  C   UNL     1      -3.144 -11.073  16.482  0.00  0.00    +0.252 A 
BRANCH  19  20
ATOM     20  C   UNL     1      -4.268 -11.057  17.373  0.00  0.00    +0.080 A 
ATOM     21  C   UNL     1      -5.429 -10.357  17.047  0.00  0.00    +0.132 A 
ATOM     22  C   UNL     1      -4.188 -11.752  18.580  0.00  0.00    +0.017 A 
ATOM     23  C   UNL     1      -6.511 -10.352  17.928  0.00  0.00    +0.046 A 
ATOM     24  C   UNL     1      -5.270 -11.747  19.460  0.00  0.00    +0.001 A 
ATOM     25  C   UNL     1      -6.432 -11.047  19.134  0.00  0.00    +0.004 A 
BRANCH  21   3
ATOM      3  O   UNL     1      -5.536  -9.667  15.875  0.00  0.00    -0.494 OA
ATOM     26  C   UNL     1      -6.650  -9.976  15.041  0.00  0.00    +0.277 C 
ENDBRANCH  21   3
ENDBRANCH  19  20
ENDBRANCH   8  18
TORSDOF 4
ENDMDL
MODEL 2
REMARK VINA RESULT:      -6.7      1.549      6.985
REMARK  Name = 51137800
REMARK  5 active torsions:
REMARK  status: ('A' for Active; 'I' for Inactive)
REMARK    1  A    between atoms: O_3  and  C_21
REMARK    2  A    between atoms: O_3  and  C_26
REMARK    3  A    between atoms: C_7  and  C_14
REMARK    4  A    between atoms: C_8  and  C_18
REMARK    5  A    between atoms: C_19  and  C_20
REMARK                            x       y       z     vdW  Elec       q    Type
REMARK                         _______ _______ _______ _____ _____    ______ ____
ROOT
ATOM      1  O   UNL     1      -5.668 -13.007  15.359  0.00  0.00    -0.275 OA
ATOM      4  N   UNL     1      -3.643 -11.912  15.167  0.00  0.00    -0.300 N 
ATOM      8  C   UNL     1      -1.929 -11.937  13.519  0.00  0.00    +0.095 C 
ATOM      9  C   UNL     1      -3.147 -12.705  14.048  0.00  0.00    +0.120 C 
ATOM     12  C   UNL     1      -1.408 -11.249  14.791  0.00  0.00    +0.033 C 
ATOM     13  C   UNL     1      -2.674 -10.897  15.565  0.00  0.00    +0.108 C 
ATOM     14  C   UNL     1      -4.885 -12.133  15.733  0.00  0.00    +0.219 C 
ENDROOT
BRANCH  14   7
ATOM      7  C   UNL     1      -5.247 -11.227  16.869  0.00  0.00    +0.075 C 
ATOM     10  C   UNL     1      -6.687 -10.740  16.709  0.00  0.00    +0.013 C 
ATOM     11  C   UNL     1      -5.050 -11.973  18.191  0.00  0.00    +0.013 C 
ATOM     15  C   UNL     1      -7.129  -9.896  17.902  0.00  0.00    +0.001 C 
ATOM     16  C   UNL     1      -5.496 -11.129  19.382  0.00  0.00    +0.001 C 
ATOM     17  C   UNL     1      -6.933 -10.641  19.220  0.00  0.00    +0.000 C 
ENDBRANCH  14   7
BRANCH   8  18
ATOM      2  O   UNL     1      -3.409 -10.980  11.810  0.00  0.00    -0.420 OA
ATOM      5  N   UNL     1      -1.399 -10.006  11.920  0.00  0.00    -0.112 NA
ATOM      6  N   UNL     1      -2.124  -9.377  10.925  0.00  0.00    -0.107 NA
ATOM     18  C   UNL     1      -2.187 -10.935  12.408  0.00  0.00    +0.222 A 
ATOM     19  C   UNL     1      -3.290  -9.979  10.897  0.00  0.00    +0.252 A 
BRANCH  19  20
ATOM     20  C   UNL     1      -4.437  -9.746  10.068  0.00  0.00    +0.080 A 
ATOM     21  C   UNL     1      -5.581  -9.138  10.583  0.00  0.00    +0.132 A 
ATOM     22  C   UNL     1      -4.399 -10.140   8.730  0.00  0.00    +0.017 A 
ATOM     23  C   UNL     1      -6.687  -8.923   9.760  0.00  0.00    +0.046 A 
ATOM     24  C   UNL     1      -5.505  -9.925   7.907  0.00  0.00    +0.001 A 
ATOM     25  C   UNL     1      -6.649  -9.316   8.423  0.00  0.00    +0.004 A 
BRANCH  21   3
ATOM      3  O   UNL     1      -5.648  -8.744  11.887  0.00  0.00    -0.494 OA
ATOM     26  C   UNL     1      -6.518  -9.480  12.742  0.00  0.00    +0.277 C 
ENDBRANCH  21   3
ENDBRANCH  19  20
ENDBRANCH   8  18
TORSDOF 4
ENDMDL
MODEL 3
REMARK VINA RESULT:      -6.3      5.818      7.964
REMARK  Name = 51137800
REMARK  5 active torsions:
REMARK  status: ('A' for Active; 'I' for Inactive)
REMARK    1  A    between atoms: O_3  and  C_21
REMARK    2  A    between atoms: O_3  and  C_26
REMARK    3  A    between atoms: C_7  and  C_14
REMARK    4  A    between atoms: C_8  and  C_18
REMARK    5  A    between atoms: C_19  and  C_20
REMARK                            x       y       z     vdW  Elec       q    Type
REMARK                         _______ _______ _______ _____ _____    ______ ____
ROOT
ATOM      1  O   UNL     1     -13.857  -7.323  13.256  0.00  0.00    -0.275 OA
ATOM      4  N   UNL     1     -12.244  -6.882  14.850  0.00  0.00    -0.300 N 
ATOM      8  C   UNL     1     -11.624  -7.956  16.879  0.00  0.00    +0.095 C 
ATOM      9  C   UNL     1     -12.745  -7.829  15.840  0.00  0.00    +0.120 C 
ATOM     12  C   UNL     1     -10.968  -6.568  16.811  0.00  0.00    +0.033 C 
ATOM     13  C   UNL     1     -11.057  -6.189  15.337  0.00  0.00    +0.108 C 
ATOM     14  C   UNL     1     -12.852  -6.711  13.620  0.00  0.00    +0.219 C 
ENDROOT
BRANCH  14   7
ATOM      7  C   UNL     1     -12.210  -5.704  12.717  0.00  0.00    +0.075 C 
ATOM     10  C   UNL     1     -12.319  -6.164  11.263  0.00  0.00    +0.013 C 
ATOM     11  C   UNL     1     -12.874  -4.342  12.926  0.00  0.00    +0.013 C 
ATOM     15  C   UNL     1     -11.767  -5.115  10.300  0.00  0.00    +0.001 C 
ATOM     16  C   UNL     1     -12.324  -3.296  11.961  0.00  0.00    +0.001 C 
ATOM     17  C   UNL     1     -12.430  -3.757  10.510  0.00  0.00    +0.000 C 
ENDBRANCH  14   7
BRANCH   8  18
ATOM      2  O   UNL     1      -9.564  -9.126  17.522  0.00  0.00    -0.420 OA
ATOM      5  N   UNL     1     -10.583  -9.997  15.731  0.00  0.00    -0.112 NA
ATOM      6  N   UNL     1      -9.447 -10.744  15.981  0.00  0.00    -0.107 NA
ATOM     18  C   UNL     1     -10.611  -9.064  16.654  0.00  0.00    +0.222 A 
ATOM     19  C   UNL     1      -8.884 -10.199  17.035  0.00  0.00    +0.252 A 
BRANCH  19  20
ATOM     20  C   UNL     1      -7.686 -10.556  17.738  0.00  0.00    +0.080 A 
ATOM     21  C   UNL     1      -6.432 -10.207  17.239  0.00  0.00    +0.132 A 
ATOM     22  C   UNL     1      -7.787 -11.263  18.937  0.00  0.00    +0.017 A 
ATOM     23  C   UNL     1      -5.279 -10.564  17.937  0.00  0.00    +0.046 A 
ATOM     24  C   UNL     1      -6.634 -11.621  19.635  0.00  0.00    +0.001 A 
ATOM     25  C   UNL     1      -5.379 -11.271  19.135  0.00  0.00    +0.004 A 
BRANCH  21   3
ATOM      3  O   UNL     1      -6.303  -9.516  16.069  0.00  0.00    -0.494 OA
ATOM     26  C   UNL     1      -5.474 -10.095  15.064  0.00  0.00    +0.277 C 
ENDBRANCH  21   3
ENDBRANCH  19  20
ENDBRANCH   8  18
TORSDOF 4
ENDMDL
MODEL 4
REMARK VINA RESULT:      -6.2     23.668     27.144
REMARK  Name = 51137800
REMARK  5 active torsions:
REMARK  status: ('A' for Active; 'I' for Inactive)
REMARK    1  A    between atoms: O_3  and  C_21
REMARK    2  A    between atoms: O_3  and  C_26
REMARK    3  A    between atoms: C_7  and  C_14
REMARK    4  A    between atoms: C_8  and  C_18
REMARK    5  A    between atoms: C_19  and  C_20
REMARK                            x       y       z     vdW  Elec       q    Type
REMARK                         _______ _______ _______ _____ _____    ______ ____
ROOT
ATOM      1  O   UNL     1     -14.066   2.269  30.981  0.00  0.00    -0.275 OA
ATOM      4  N   UNL     1     -15.692   3.487  32.081  0.00  0.00    -0.300 N 
ATOM      8  C   UNL     1     -15.676   4.812  34.055  0.00  0.00    +0.095 C 
ATOM      9  C   UNL     1     -14.912   3.724  33.290  0.00  0.00    +0.120 C 
ATOM     12  C   UNL     1     -17.128   4.542  33.630  0.00  0.00    +0.033 C 
ATOM     13  C   UNL     1     -17.011   4.102  32.175  0.00  0.00    +0.108 C 
ATOM     14  C   UNL     1     -15.191   2.771  31.009  0.00  0.00    +0.219 C 
ENDROOT
BRANCH  14   7
ATOM      7  C   UNL     1     -16.116   2.623  29.842  0.00  0.00    +0.075 C 
ATOM     10  C   UNL     1     -15.691   3.568  28.718  0.00  0.00    +0.013 C 
ATOM     11  C   UNL     1     -16.116   1.165  29.379  0.00  0.00    +0.013 C 
ATOM     15  C   UNL     1     -16.548   3.375  27.469  0.00  0.00    +0.001 C 
ATOM     16  C   UNL     1     -16.970   0.974  28.128  0.00  0.00    +0.001 C 
ATOM     17  C   UNL     1     -16.547   1.920  27.008  0.00  0.00    +0.000 C 
ENDBRANCH  14   7
BRANCH   8  18
ATOM      2  O   UNL     1     -13.938   6.522  33.761  0.00  0.00    -0.420 OA
ATOM      5  N   UNL     1     -16.023   7.299  33.543  0.00  0.00    -0.112 NA
ATOM      6  N   UNL     1     -15.152   8.356  33.356  0.00  0.00    -0.107 NA
ATOM     18  C   UNL     1     -15.271   6.249  33.777  0.00  0.00    +0.222 A 
ATOM     19  C   UNL     1     -13.946   7.855  33.493  0.00  0.00    +0.252 A 
BRANCH  19  20
ATOM     20  C   UNL     1     -12.661   8.486  33.403  0.00  0.00    +0.080 A 
ATOM     21  C   UNL     1     -12.052   9.032  34.533  0.00  0.00    +0.132 A 
ATOM     22  C   UNL     1     -12.022   8.552  32.165  0.00  0.00    +0.017 A 
ATOM     23  C   UNL     1     -10.803   9.642  34.425  0.00  0.00    +0.046 A 
ATOM     24  C   UNL     1     -10.772   9.162  32.058  0.00  0.00    +0.001 A 
ATOM     25  C   UNL     1     -10.163   9.708  33.187  0.00  0.00    +0.004 A 
BRANCH  21   3
ATOM      3  O   UNL     1     -12.654   8.983  35.756  0.00  0.00    -0.494 OA
ATOM     26  C   UNL     1     -12.156   8.024  36.685  0.00  0.00    +0.277 C 
ENDBRANCH  21   3
ENDBRANCH  19  20
ENDBRANCH   8  18
TORSDOF 4
ENDMDL
MODEL 5
REMARK VINA RESULT:      -6.2      6.763      9.978
REMARK  Name = 51137800
REMARK  5 active torsions:
REMARK  status: ('A' for Active; 'I' for Inactive)
REMARK    1  A    between atoms: O_3  and  C_21
REMARK    2  A    between atoms: O_3  and  C_26
REMARK    3  A    between atoms: C_7  and  C_14
REMARK    4  A    between atoms: C_8  and  C_18
REMARK    5  A    between atoms: C_19  and  C_20
REMARK                            x       y       z     vdW  Elec       q    Type
REMARK                         _______ _______ _______ _____ _____    ______ ____
ROOT
ATOM      1  O   UNL     1      -8.523  -9.591  10.378  0.00  0.00    -0.275 OA
ATOM      4  N   UNL     1      -8.757  -8.002   8.717  0.00  0.00    -0.300 N 
ATOM      8  C   UNL     1     -10.620  -6.783   7.881  0.00  0.00    +0.095 C 
ATOM      9  C   UNL     1     -10.215  -8.020   8.694  0.00  0.00    +0.120 C 
ATOM     12  C   UNL     1      -9.433  -6.635   6.915  0.00  0.00    +0.033 C 
ATOM     13  C   UNL     1      -8.226  -7.051   7.747  0.00  0.00    +0.108 C 
ATOM     14  C   UNL     1      -8.024  -8.800   9.575  0.00  0.00    +0.219 C 
ENDROOT
BRANCH  14   7
ATOM      7  C   UNL     1      -6.536  -8.658   9.477  0.00  0.00    +0.075 C 
ATOM     10  C   UNL     1      -5.908  -8.796  10.864  0.00  0.00    +0.013 C 
ATOM     11  C   UNL     1      -5.992  -9.708   8.507  0.00  0.00    +0.013 C 
ATOM     15  C   UNL     1      -4.382  -8.759  10.794  0.00  0.00    +0.001 C 
ATOM     16  C   UNL     1      -4.467  -9.674   8.441  0.00  0.00    +0.001 C 
ATOM     17  C   UNL     1      -3.840  -9.807   9.826  0.00  0.00    +0.000 C 
ENDBRANCH  14   7
BRANCH   8  18
ATOM      2  O   UNL     1     -12.024  -5.434   9.376  0.00  0.00    -0.420 OA
ATOM      5  N   UNL     1     -10.121  -4.430   8.765  0.00  0.00    -0.112 NA
ATOM      6  N   UNL     1     -10.810  -3.568   9.597  0.00  0.00    -0.107 NA
ATOM     18  C   UNL     1     -10.866  -5.506   8.663  0.00  0.00    +0.222 A 
ATOM     19  C   UNL     1     -11.914  -4.196   9.929  0.00  0.00    +0.252 A 
BRANCH  19  20
ATOM     20  C   UNL     1     -13.000  -3.786  10.771  0.00  0.00    +0.080 A 
ATOM     21  C   UNL     1     -12.976  -4.032  12.143  0.00  0.00    +0.132 A 
ATOM     22  C   UNL     1     -14.094  -3.135  10.199  0.00  0.00    +0.017 A 
ATOM     23  C   UNL     1     -14.043  -3.627  12.944  0.00  0.00    +0.046 A 
ATOM     24  C   UNL     1     -15.161  -2.729  11.000  0.00  0.00    +0.001 A 
ATOM     25  C   UNL     1     -15.136  -2.976  12.372  0.00  0.00    +0.004 A 
BRANCH  21   3
ATOM      3  O   UNL     1     -11.921  -4.668  12.729  0.00  0.00    -0.494 OA
ATOM     26  C   UNL     1     -12.163  -5.302  13.983  0.00  0.00    +0.277 C 
ENDBRANCH  21   3
ENDBRANCH  19  20
ENDBRANCH   8  18
TORSDOF 4
ENDMDL
MODEL 6
REMARK VINA RESULT:      -6.2      2.396      6.820
REMARK  Name = 51137800
REMARK  5 active torsions:
REMARK  status: ('A' for Active; 'I' for Inactive)
REMARK    1  A    between atoms: O_3  and  C_21
REMARK    2  A    between atoms: O_3  and  C_26
REMARK    3  A    between atoms: C_7  and  C_14
REMARK    4  A    between atoms: C_8  and  C_18
REMARK    5  A    between atoms: C_19  and  C_20
REMARK                            x       y       z     vdW  Elec       q    Type
REMARK                         _______ _______ _______ _____ _____    ______ ____
ROOT
ATOM      1  O   UNL     1      -8.087 -11.877  15.112  0.00  0.00    -0.275 OA
ATOM      4  N   UNL     1      -6.137 -10.874  15.840  0.00  0.00    -0.300 N 
ATOM      8  C   UNL     1      -3.842 -11.477  15.688  0.00  0.00    +0.095 C 
ATOM      9  C   UNL     1      -5.273 -12.021  15.586  0.00  0.00    +0.120 C 
ATOM     12  C   UNL     1      -4.007 -10.334  16.702  0.00  0.00    +0.033 C 
ATOM     13  C   UNL     1      -5.380  -9.753  16.383  0.00  0.00    +0.108 C 
ATOM     14  C   UNL     1      -7.493 -10.900  15.572  0.00  0.00    +0.219 C 
ENDROOT
BRANCH  14   7
ATOM      7  C   UNL     1      -8.237  -9.638  15.883  0.00  0.00    +0.075 C 
ATOM     10  C   UNL     1      -9.304  -9.387  14.817  0.00  0.00    +0.013 C 
ATOM     11  C   UNL     1      -8.854  -9.747  17.279  0.00  0.00    +0.013 C 
ATOM     15  C   UNL     1     -10.154  -8.163  15.153  0.00  0.00    +0.001 C 
ATOM     16  C   UNL     1      -9.706  -8.526  17.612  0.00  0.00    +0.001 C 
ATOM     17  C   UNL     1     -10.769  -8.273  16.546  0.00  0.00    +0.000 C 
ENDBRANCH  14   7
BRANCH   8  18
ATOM      2  O   UNL     1      -4.000 -10.962  13.293  0.00  0.00    -0.420 OA
ATOM      5  N   UNL     1      -1.979 -10.583  14.172  0.00  0.00    -0.112 NA
ATOM      6  N   UNL     1      -1.929 -10.256  12.830  0.00  0.00    -0.107 NA
ATOM     18  C   UNL     1      -3.206 -10.991  14.398  0.00  0.00    +0.222 A 
ATOM     19  C   UNL     1      -3.131 -10.493  12.358  0.00  0.00    +0.252 A 
BRANCH  19  20
ATOM     20  C   UNL     1      -3.658 -10.335  11.033  0.00  0.00    +0.080 A 
ATOM     21  C   UNL     1      -3.820 -11.435  10.192  0.00  0.00    +0.132 A 
ATOM     22  C   UNL     1      -4.007  -9.059  10.588  0.00  0.00    +0.017 A 
ATOM     23  C   UNL     1      -4.333 -11.261   8.907  0.00  0.00    +0.046 A 
ATOM     24  C   UNL     1      -4.519  -8.885   9.303  0.00  0.00    +0.001 A 
ATOM     25  C   UNL     1      -4.682  -9.986   8.462  0.00  0.00    +0.004 A 
BRANCH  21   3
ATOM      3  O   UNL     1      -3.487 -12.693  10.599  0.00  0.00    -0.494 OA
ATOM     26  C   UNL     1      -4.549 -13.635  10.729  0.00  0.00    +0.277 C 
ENDBRANCH  21   3
ENDBRANCH  19  20
ENDBRANCH   8  18
TORSDOF 4
ENDMDL
MODEL 7
REMARK VINA RESULT:      -6.2      2.826      7.106
REMARK  Name = 51137800
REMARK  5 active torsions:
REMARK  status: ('A' for Active; 'I' for Inactive)
REMARK    1  A    between atoms: O_3  and  C_21
REMARK    2  A    between atoms: O_3  and  C_26
REMARK    3  A    between atoms: C_7  and  C_14
REMARK    4  A    between atoms: C_8  and  C_18
REMARK    5  A    between atoms: C_19  and  C_20
REMARK                            x       y       z     vdW  Elec       q    Type
REMARK                         _______ _______ _______ _____ _____    ______ ____
ROOT
ATOM      1  O   UNL     1      -9.162 -12.194  16.531  0.00  0.00    -0.275 OA
ATOM      4  N   UNL     1      -7.417 -11.575  17.913  0.00  0.00    -0.300 N 
ATOM      8  C   UNL     1      -5.201 -12.388  18.199  0.00  0.00    +0.095 C 
ATOM      9  C   UNL     1      -6.584 -12.740  17.636  0.00  0.00    +0.120 C 
ATOM     12  C   UNL     1      -5.560 -11.453  19.365  0.00  0.00    +0.033 C 
ATOM     13  C   UNL     1      -6.766 -10.672  18.855  0.00  0.00    +0.108 C 
ATOM     14  C   UNL     1      -8.655 -11.397  17.323  0.00  0.00    +0.219 C 
ENDROOT
BRANCH  14   7
ATOM      7  C   UNL     1      -9.381 -10.146  17.709  0.00  0.00    +0.075 C 
ATOM     10  C   UNL     1      -9.119  -9.052  16.674  0.00  0.00    +0.013 C 
ATOM     11  C   UNL     1     -10.875 -10.449  17.840  0.00  0.00    +0.013 C 
ATOM     15  C   UNL     1      -9.924  -7.790  16.976  0.00  0.00    +0.001 C 
ATOM     16  C   UNL     1     -11.679  -9.187  18.137  0.00  0.00    +0.001 C 
ATOM     17  C   UNL     1     -11.414  -8.093  17.106  0.00  0.00    +0.000 C 
ENDBRANCH  14   7
BRANCH   8  18
ATOM      2  O   UNL     1      -4.501 -11.835  15.912  0.00  0.00    -0.420 OA
ATOM      5  N   UNL     1      -3.121 -11.068  17.495  0.00  0.00    -0.112 NA
ATOM      6  N   UNL     1      -2.613 -10.690  16.266  0.00  0.00    -0.107 NA
ATOM     18  C   UNL     1      -4.223 -11.734  17.240  0.00  0.00    +0.222 A 
ATOM     19  C   UNL     1      -3.451 -11.159  15.372  0.00  0.00    +0.252 A 
BRANCH  19  20
ATOM     20  C   UNL     1      -3.431 -11.070  13.941  0.00  0.00    +0.080 A 
ATOM     21  C   UNL     1      -2.460 -11.739  13.196  0.00  0.00    +0.132 A 
ATOM     22  C   UNL     1      -4.397 -10.299  13.294  0.00  0.00    +0.017 A 
ATOM     23  C   UNL     1      -2.456 -11.639  11.804  0.00  0.00    +0.046 A 
ATOM     24  C   UNL     1      -4.393 -10.199  11.903  0.00  0.00    +0.001 A 
ATOM     25  C   UNL     1      -3.423 -10.868  11.158  0.00  0.00    +0.004 A 
BRANCH  21   3
ATOM      3  O   UNL     1      -1.503 -12.499  13.800  0.00  0.00    -0.494 OA
ATOM     26  C   UNL     1      -1.610 -13.913  13.654  0.00  0.00    +0.277 C 
ENDBRANCH  21   3
ENDBRANCH  19  20
ENDBRANCH   8  18
TORSDOF 4
ENDMDL
MODEL 8
REMARK VINA RESULT:      -6.2     24.423     27.230
REMARK  Name = 51137800
REMARK  5 active torsions:
REMARK  status: ('A' for Active; 'I' for Inactive)
REMARK    1  A    between atoms: O_3  and  C_21
REMARK    2  A    between atoms: O_3  and  C_26
REMARK    3  A    between atoms: C_7  and  C_14
REMARK    4  A    between atoms: C_8  and  C_18
REMARK    5  A    between atoms: C_19  and  C_20
REMARK                            x       y       z     vdW  Elec       q    Type
REMARK                         _______ _______ _______ _____ _____    ______ ____
ROOT
ATOM      1  O   UNL     1      16.732  -6.154  31.537  0.00  0.00    -0.275 OA
ATOM      4  N   UNL     1      16.834  -3.989  30.735  0.00  0.00    -0.300 N 
ATOM      8  C   UNL     1      18.626  -2.606  30.010  0.00  0.00    +0.095 C 
ATOM      9  C   UNL     1      18.285  -3.867  30.814  0.00  0.00    +0.120 C 
ATOM     12  C   UNL     1      17.364  -1.750  30.208  0.00  0.00    +0.033 C 
ATOM     13  C   UNL     1      16.228  -2.767  30.221  0.00  0.00    +0.108 C 
ATOM     14  C   UNL     1      16.171  -5.145  31.107  0.00  0.00    +0.219 C 
ENDROOT
BRANCH  14   7
ATOM      7  C   UNL     1      14.681  -5.110  30.959  0.00  0.00    +0.075 C 
ATOM     10  C   UNL     1      14.179  -6.454  30.433  0.00  0.00    +0.013 C 
ATOM     11  C   UNL     1      14.049  -4.764  32.309  0.00  0.00    +0.013 C 
ATOM     15  C   UNL     1      12.653  -6.495  30.366  0.00  0.00    +0.001 C 
ATOM     16  C   UNL     1      12.525  -4.810  32.242  0.00  0.00    +0.001 C 
ATOM     17  C   UNL     1      12.024  -6.150  31.713  0.00  0.00    +0.000 C 
ENDBRANCH  14   7
BRANCH   8  18
ATOM      2  O   UNL     1      17.985  -2.424  27.647  0.00  0.00    -0.420 OA
ATOM      5  N   UNL     1      20.021  -3.292  27.972  0.00  0.00    -0.112 NA
ATOM      6  N   UNL     1      19.789  -3.247  26.610  0.00  0.00    -0.107 NA
ATOM     18  C   UNL     1      18.942  -2.802  28.538  0.00  0.00    +0.222 A 
ATOM     19  C   UNL     1      18.589  -2.734  26.468  0.00  0.00    +0.252 A 
BRANCH  19  20
ATOM     20  C   UNL     1      17.832  -2.454  25.282  0.00  0.00    +0.080 A 
ATOM     21  C   UNL     1      16.971  -3.409  24.741  0.00  0.00    +0.132 A 
ATOM     22  C   UNL     1      17.968  -1.209  24.668  0.00  0.00    +0.017 A 
ATOM     23  C   UNL     1      16.244  -3.118  23.586  0.00  0.00    +0.046 A 
ATOM     24  C   UNL     1      17.241  -0.919  23.513  0.00  0.00    +0.001 A 
ATOM     25  C   UNL     1      16.379  -1.873  22.972  0.00  0.00    +0.004 A 
BRANCH  21   3
ATOM      3  O   UNL     1      16.819  -4.635  25.320  0.00  0.00    -0.494 OA
ATOM     26  C   UNL     1      17.363  -5.752  24.621  0.00  0.00    +0.277 C 
ENDBRANCH  21   3
ENDBRANCH  19  20
ENDBRANCH   8  18
TORSDOF 4
ENDMDL
MODEL 9
REMARK VINA RESULT:      -6.1     24.036     27.583
REMARK  Name = 51137800
REMARK  5 active torsions:
REMARK  status: ('A' for Active; 'I' for Inactive)
REMARK    1  A    between atoms: O_3  and  C_21
REMARK    2  A    between atoms: O_3  and  C_26
REMARK    3  A    between atoms: C_7  and  C_14
REMARK    4  A    between atoms: C_8  and  C_18
REMARK    5  A    between atoms: C_19  and  C_20
REMARK                            x       y       z     vdW  Elec       q    Type
REMARK                         _______ _______ _______ _____ _____    ______ ____
ROOT
ATOM      1  O   UNL     1     -13.956   3.949  34.305  0.00  0.00    -0.275 OA
ATOM      4  N   UNL     1     -14.735   5.532  32.813  0.00  0.00    -0.300 N 
ATOM      8  C   UNL     1     -14.688   7.909  32.792  0.00  0.00    +0.095 C 
ATOM      9  C   UNL     1     -14.544   6.678  33.696  0.00  0.00    +0.120 C 
ATOM     12  C   UNL     1     -15.667   7.405  31.719  0.00  0.00    +0.033 C 
ATOM     13  C   UNL     1     -15.280   5.943  31.525  0.00  0.00    +0.108 C 
ATOM     14  C   UNL     1     -14.415   4.244  33.200  0.00  0.00    +0.219 C 
ENDROOT
BRANCH  14   7
ATOM      7  C   UNL     1     -14.665   3.181  32.175  0.00  0.00    +0.075 C 
ATOM     10  C   UNL     1     -13.530   3.167  31.151  0.00  0.00    +0.013 C 
ATOM     11  C   UNL     1     -14.806   1.828  32.875  0.00  0.00    +0.013 C 
ATOM     15  C   UNL     1     -13.695   2.029  30.146  0.00  0.00    +0.001 C 
ATOM     16  C   UNL     1     -14.966   0.691  31.870  0.00  0.00    +0.001 C 
ATOM     17  C   UNL     1     -13.835   0.680  30.846  0.00  0.00    +0.000 C 
ENDBRANCH  14   7
BRANCH   8  18
ATOM      2  O   UNL     1     -13.553   9.328  31.141  0.00  0.00    -0.420 OA
ATOM      5  N   UNL     1     -12.161   8.203  32.483  0.00  0.00    -0.112 NA
ATOM      6  N   UNL     1     -11.398   8.955  31.610  0.00  0.00    -0.107 NA
ATOM     18  C   UNL     1     -13.412   8.452  32.173  0.00  0.00    +0.222 A 
ATOM     19  C   UNL     1     -12.252   9.595  30.846  0.00  0.00    +0.252 A 
BRANCH  19  20
ATOM     20  C   UNL     1     -12.029  10.515  29.769  0.00  0.00    +0.080 A 
ATOM     21  C   UNL     1     -12.164  11.890  29.962  0.00  0.00    +0.132 A 
ATOM     22  C   UNL     1     -11.676  10.019  28.513  0.00  0.00    +0.017 A 
ATOM     23  C   UNL     1     -11.944  12.769  28.902  0.00  0.00    +0.046 A 
ATOM     24  C   UNL     1     -11.457  10.898  27.453  0.00  0.00    +0.001 A 
ATOM     25  C   UNL     1     -11.591  12.273  27.647  0.00  0.00    +0.004 A 
BRANCH  21   3
ATOM      3  O   UNL     1     -12.508  12.403  31.178  0.00  0.00    -0.494 OA
ATOM     26  C   UNL     1     -11.498  13.113  31.891  0.00  0.00    +0.277 C 
ENDBRANCH  21   3
ENDBRANCH  19  20
ENDBRANCH   8  18
TORSDOF 4
ENDMDL
MODEL 10
REMARK VINA RESULT:      -6.0     26.300     28.832
REMARK  Name = 51137800
REMARK  5 active torsions:
REMARK  status: ('A' for Active; 'I' for Inactive)
REMARK    1  A    between atoms: O_3  and  C_21
REMARK    2  A    between atoms: O_3  and  C_26
REMARK    3  A    between atoms: C_7  and  C_14
REMARK    4  A    between atoms: C_8  and  C_18
REMARK    5  A    between atoms: C_19  and  C_20
REMARK                            x       y       z     vdW  Elec       q    Type
REMARK                         _______ _______ _______ _____ _____    ______ ____
ROOT
ATOM      1  O   UNL     1      17.750  10.708   5.029  0.00  0.00    -0.275 OA
ATOM      4  N   UNL     1      16.138   9.201   5.716  0.00  0.00    -0.300 N 
ATOM      8  C   UNL     1      13.766   9.173   5.561  0.00  0.00    +0.095 C 
ATOM      9  C   UNL     1      14.999  10.082   5.485  0.00  0.00    +0.120 C 
ATOM     12  C   UNL     1      14.229   8.088   6.547  0.00  0.00    +0.033 C 
ATOM     13  C   UNL     1      15.708   7.904   6.224  0.00  0.00    +0.108 C 
ATOM     14  C   UNL     1      17.438   9.596   5.459  0.00  0.00    +0.219 C 
ENDROOT
BRANCH  14   7
ATOM      7  C   UNL     1      18.492   8.571   5.744  0.00  0.00    +0.075 C 
ATOM     10  C   UNL     1      19.185   8.162   4.444  0.00  0.00    +0.013 C 
ATOM     11  C   UNL     1      19.489   9.140   6.756  0.00  0.00    +0.013 C 
ATOM     15  C   UNL     1      20.337   7.194   4.704  0.00  0.00    +0.001 C 
ATOM     16  C   UNL     1      20.642   8.174   7.011  0.00  0.00    +0.001 C 
ATOM     17  C   UNL     1      21.331   7.763   5.713  0.00  0.00    +0.000 C 
ENDBRANCH  14   7
BRANCH   8  18
ATOM      2  O   UNL     1      13.394   7.219   4.121  0.00  0.00    -0.420 OA
ATOM      5  N   UNL     1      12.765   9.158   3.202  0.00  0.00    -0.112 NA
ATOM      6  N   UNL     1      12.503   8.150   2.293  0.00  0.00    -0.107 NA
ATOM     18  C   UNL     1      13.284   8.569   4.254  0.00  0.00    +0.222 A 
ATOM     19  C   UNL     1      12.886   7.037   2.872  0.00  0.00    +0.252 A 
BRANCH  19  20
ATOM     20  C   UNL     1      12.852   5.683   2.401  0.00  0.00    +0.080 A 
ATOM     21  C   UNL     1      11.723   4.886   2.592  0.00  0.00    +0.132 A 
ATOM     22  C   UNL     1      13.968   5.163   1.745  0.00  0.00    +0.017 A 
ATOM     23  C   UNL     1      11.710   3.571   2.128  0.00  0.00    +0.046 A 
ATOM     24  C   UNL     1      13.955   3.848   1.280  0.00  0.00    +0.001 A 
ATOM     25  C   UNL     1      12.826   3.052   1.472  0.00  0.00    +0.004 A 
BRANCH  21   3
ATOM      3  O   UNL     1      10.618   5.367   3.231  0.00  0.00    -0.494 OA
ATOM     26  C   UNL     1      10.353   4.860   4.537  0.00  0.00    +0.277 C 
ENDBRANCH  21   3
ENDBRANCH  19  20
ENDBRANCH   8  18
TORSDOF 4
ENDMDL
