MODEL 1
REMARK VINA RESULT:      -6.6      0.000      0.000
REMARK  Name = 75537006
REMARK  4 active torsions:
REMARK  status: ('A' for Active; 'I' for Inactive)
REMARK    1  A    between atoms: O_3  and  C_19
REMARK    2  A    between atoms: O_3  and  C_22
REMARK    3  A    between atoms: N_6  and  C_14
REMARK    4  A    between atoms: N_7  and  C_16
REMARK                            x       y       z     vdW  Elec       q    Type
REMARK                         _______ _______ _______ _____ _____    ______ ____
ROOT
ATOM      1  O   UNL     1       8.561   7.512   8.793  0.00  0.00    -0.252 OA
ATOM      2  O   UNL     1      11.124   7.115   2.386  0.00  0.00    -0.252 OA
ATOM      4  N   UNL     1       9.696   6.638   6.931  0.00  0.00    -0.278 N 
ATOM      5  N   UNL     1      10.226   6.096   4.256  0.00  0.00    -0.282 N 
ATOM      6  N   UNL     1       9.363   5.296   8.703  0.00  0.00    -0.287 N 
ATOM      7  N   UNL     1      11.806   4.964   2.924  0.00  0.00    -0.269 N 
ATOM      8  C   UNL     1      10.405   5.412   6.602  0.00  0.00    +0.112 C 
ATOM      9  C   UNL     1      10.047   4.964   5.189  0.00  0.00    +0.133 C 
ATOM     10  C   UNL     1       9.986   4.443   7.705  0.00  0.00    +0.133 C 
ATOM     11  C   UNL     1       9.716   7.758   6.005  0.00  0.00    +0.128 C 
ATOM     12  C   UNL     1       9.409   7.275   4.587  0.00  0.00    +0.128 C 
ATOM     13  C   UNL     1       9.137   6.599   8.216  0.00  0.00    +0.305 C 
ATOM     14  C   UNL     1       8.917   4.782   9.978  0.00  0.00    +0.133 C 
ATOM     15  C   UNL     1      11.059   6.124   3.120  0.00  0.00    +0.307 C 
ATOM     23  H   UNL     1      12.059   4.415   3.739  0.00  0.00    +0.156 HD
ENDROOT
BRANCH   7  16
ATOM     16  C   UNL     1      12.245   4.421   1.690  0.00  0.00    +0.038 A 
ATOM     17  C   UNL     1      11.321   4.150   0.680  0.00  0.00    +0.069 A 
ATOM     18  C   UNL     1      13.599   4.157   1.486  0.00  0.00    +0.023 A 
ATOM     19  C   UNL     1      11.752   3.616  -0.534  0.00  0.00    +0.122 A 
ATOM     20  C   UNL     1      14.030   3.621   0.272  0.00  0.00    +0.005 A 
ATOM     21  C   UNL     1      13.106   3.352  -0.738  0.00  0.00    +0.046 A 
BRANCH  19   3
ATOM      3  O   UNL     1      10.851   3.351  -1.519  0.00  0.00    -0.495 OA
ATOM     22  C   UNL     1      11.263   2.460  -2.554  0.00  0.00    +0.277 C 
ENDBRANCH  19   3
ENDBRANCH   7  16
TORSDOF 2
ENDMDL
MODEL 2
REMARK VINA RESULT:      -6.0     22.331     25.215
REMARK  Name = 75537006
REMARK  4 active torsions:
REMARK  status: ('A' for Active; 'I' for Inactive)
REMARK    1  A    between atoms: O_3  and  C_19
REMARK    2  A    between atoms: O_3  and  C_22
REMARK    3  A    between atoms: N_6  and  C_14
REMARK    4  A    between atoms: N_7  and  C_16
REMARK                            x       y       z     vdW  Elec       q    Type
REMARK                         _______ _______ _______ _____ _____    ______ ____
ROOT
ATOM      1  O   UNL     1      -6.694 -11.575  20.375  0.00  0.00    -0.252 OA
ATOM      2  O   UNL     1      -3.048 -10.845  14.549  0.00  0.00    -0.252 OA
ATOM      4  N   UNL     1      -6.240 -11.230  18.096  0.00  0.00    -0.278 N 
ATOM      5  N   UNL     1      -4.885 -10.317  15.847  0.00  0.00    -0.282 N 
ATOM      6  N   UNL     1      -8.340 -10.905  18.826  0.00  0.00    -0.287 N 
ATOM      7  N   UNL     1      -5.057 -10.359  13.497  0.00  0.00    -0.269 N 
ATOM      8  C   UNL     1      -7.008 -10.951  16.893  0.00  0.00    +0.112 C 
ATOM      9  C   UNL     1      -6.291  -9.906  16.046  0.00  0.00    +0.133 C 
ATOM     10  C   UNL     1      -8.371 -10.518  17.425  0.00  0.00    +0.133 C 
ATOM     11  C   UNL     1      -4.819 -11.519  17.998  0.00  0.00    +0.128 C 
ATOM     12  C   UNL     1      -4.133 -10.490  17.100  0.00  0.00    +0.128 C 
ATOM     13  C   UNL     1      -7.046 -11.278  19.241  0.00  0.00    +0.305 C 
ATOM     14  C   UNL     1      -9.497 -10.768  19.683  0.00  0.00    +0.133 C 
ATOM     15  C   UNL     1      -4.237 -10.523  14.612  0.00  0.00    +0.307 C 
ATOM     23  H   UNL     1      -6.049 -10.549  13.600  0.00  0.00    +0.156 HD
ENDROOT
BRANCH   7  16
ATOM     16  C   UNL     1      -4.674  -9.919  12.204  0.00  0.00    +0.038 A 
ATOM     17  C   UNL     1      -5.556  -9.160  11.436  0.00  0.00    +0.069 A 
ATOM     18  C   UNL     1      -3.415 -10.248  11.702  0.00  0.00    +0.023 A 
ATOM     19  C   UNL     1      -5.179  -8.727  10.165  0.00  0.00    +0.122 A 
ATOM     20  C   UNL     1      -3.039  -9.816  10.429  0.00  0.00    +0.005 A 
ATOM     21  C   UNL     1      -3.920  -9.055   9.661  0.00  0.00    +0.046 A 
BRANCH  19   3
ATOM      3  O   UNL     1      -6.041  -7.987   9.415  0.00  0.00    -0.495 OA
ATOM     22  C   UNL     1      -7.392  -8.438   9.342  0.00  0.00    +0.277 C 
ENDBRANCH  19   3
ENDBRANCH   7  16
TORSDOF 2
ENDMDL
MODEL 3
REMARK VINA RESULT:      -6.0     22.327     25.768
REMARK  Name = 75537006
REMARK  4 active torsions:
REMARK  status: ('A' for Active; 'I' for Inactive)
REMARK    1  A    between atoms: O_3  and  C_19
REMARK    2  A    between atoms: O_3  and  C_22
REMARK    3  A    between atoms: N_6  and  C_14
REMARK    4  A    between atoms: N_7  and  C_16
REMARK                            x       y       z     vdW  Elec       q    Type
REMARK                         _______ _______ _______ _____ _____    ______ ____
ROOT
ATOM      1  O   UNL     1      -4.425  -9.204   8.552  0.00  0.00    -0.252 OA
ATOM      2  O   UNL     1      -2.687 -10.977  15.002  0.00  0.00    -0.252 OA
ATOM      4  N   UNL     1      -4.599  -9.472  10.879  0.00  0.00    -0.278 N 
ATOM      5  N   UNL     1      -4.290 -10.678  13.365  0.00  0.00    -0.282 N 
ATOM      6  N   UNL     1      -6.420  -8.805   9.744  0.00  0.00    -0.287 N 
ATOM      7  N   UNL     1      -4.813 -10.297  15.631  0.00  0.00    -0.269 N 
ATOM      8  C   UNL     1      -5.594  -9.204  11.905  0.00  0.00    +0.112 C 
ATOM      9  C   UNL     1      -5.655 -10.366  12.891  0.00  0.00    +0.133 C 
ATOM     10  C   UNL     1      -6.877  -8.970  11.113  0.00  0.00    +0.133 C 
ATOM     11  C   UNL     1      -3.266  -9.908  11.259  0.00  0.00    +0.128 C 
ATOM     12  C   UNL     1      -3.353 -11.035  12.288  0.00  0.00    +0.128 C 
ATOM     13  C   UNL     1      -5.065  -9.163   9.594  0.00  0.00    +0.305 C 
ATOM     14  C   UNL     1      -7.324  -8.452   8.672  0.00  0.00    +0.133 C 
ATOM     15  C   UNL     1      -3.846 -10.680  14.703  0.00  0.00    +0.307 C 
ATOM     23  H   UNL     1      -5.541  -9.659  15.328  0.00  0.00    +0.156 HD
ENDROOT
BRANCH   7  16
ATOM     16  C   UNL     1      -4.927 -10.723  16.979  0.00  0.00    +0.038 A 
ATOM     17  C   UNL     1      -6.088 -10.445  17.701  0.00  0.00    +0.069 A 
ATOM     18  C   UNL     1      -3.879 -11.416  17.582  0.00  0.00    +0.023 A 
ATOM     19  C   UNL     1      -6.201 -10.864  19.027  0.00  0.00    +0.122 A 
ATOM     20  C   UNL     1      -3.991 -11.834  18.909  0.00  0.00    +0.005 A 
ATOM     21  C   UNL     1      -5.153 -11.558  19.631  0.00  0.00    +0.046 A 
BRANCH  19   3
ATOM      3  O   UNL     1      -7.333 -10.593  19.733  0.00  0.00    -0.495 OA
ATOM     22  C   UNL     1      -8.554 -11.141  19.238  0.00  0.00    +0.277 C 
ENDBRANCH  19   3
ENDBRANCH   7  16
TORSDOF 2
ENDMDL
MODEL 4
REMARK VINA RESULT:      -5.9     16.798     19.454
REMARK  Name = 75537006
REMARK  4 active torsions:
REMARK  status: ('A' for Active; 'I' for Inactive)
REMARK    1  A    between atoms: O_3  and  C_19
REMARK    2  A    between atoms: O_3  and  C_22
REMARK    3  A    between atoms: N_6  and  C_14
REMARK    4  A    between atoms: N_7  and  C_16
REMARK                            x       y       z     vdW  Elec       q    Type
REMARK                         _______ _______ _______ _____ _____    ______ ____
ROOT
ATOM      1  O   UNL     1      10.836   8.287  20.092  0.00  0.00    -0.252 OA
ATOM      2  O   UNL     1      17.518   6.612  19.529  0.00  0.00    -0.252 OA
ATOM      4  N   UNL     1      13.150   8.315  20.498  0.00  0.00    -0.278 N 
ATOM      5  N   UNL     1      15.725   7.314  20.806  0.00  0.00    -0.282 N 
ATOM      6  N   UNL     1      11.812   9.482  21.875  0.00  0.00    -0.287 N 
ATOM      7  N   UNL     1      17.905   8.064  21.295  0.00  0.00    -0.269 N 
ATOM      8  C   UNL     1      14.061   9.015  21.389  0.00  0.00    +0.112 C 
ATOM      9  C   UNL     1      15.109   8.048  21.931  0.00  0.00    +0.133 C 
ATOM     10  C   UNL     1      13.141   9.619  22.446  0.00  0.00    +0.133 C 
ATOM     11  C   UNL     1      13.678   7.467  19.441  0.00  0.00    +0.128 C 
ATOM     12  C   UNL     1      14.764   6.546  19.998  0.00  0.00    +0.128 C 
ATOM     13  C   UNL     1      11.811   8.651  20.737  0.00  0.00    +0.305 C 
ATOM     14  C   UNL     1      10.641  10.035  22.519  0.00  0.00    +0.133 C 
ATOM     15  C   UNL     1      17.096   7.276  20.479  0.00  0.00    +0.307 C 
ATOM     23  H   UNL     1      17.496   8.889  21.721  0.00  0.00    +0.156 HD
ENDROOT
BRANCH   7  16
ATOM     16  C   UNL     1      19.261   7.833  21.642  0.00  0.00    +0.038 A 
ATOM     17  C   UNL     1      19.637   6.618  22.215  0.00  0.00    +0.069 A 
ATOM     18  C   UNL     1      20.217   8.822  21.412  0.00  0.00    +0.023 A 
ATOM     19  C   UNL     1      20.970   6.392  22.557  0.00  0.00    +0.122 A 
ATOM     20  C   UNL     1      21.550   8.596  21.755  0.00  0.00    +0.005 A 
ATOM     21  C   UNL     1      21.927   7.380  22.326  0.00  0.00    +0.046 A 
BRANCH  19   3
ATOM      3  O   UNL     1      21.337   5.206  23.116  0.00  0.00    -0.495 OA
ATOM     22  C   UNL     1      22.657   5.122  23.652  0.00  0.00    +0.277 C 
ENDBRANCH  19   3
ENDBRANCH   7  16
TORSDOF 2
ENDMDL
MODEL 5
REMARK VINA RESULT:      -5.9     13.306     15.030
REMARK  Name = 75537006
REMARK  4 active torsions:
REMARK  status: ('A' for Active; 'I' for Inactive)
REMARK    1  A    between atoms: O_3  and  C_19
REMARK    2  A    between atoms: O_3  and  C_22
REMARK    3  A    between atoms: N_6  and  C_14
REMARK    4  A    between atoms: N_7  and  C_16
REMARK                            x       y       z     vdW  Elec       q    Type
REMARK                         _______ _______ _______ _____ _____    ______ ____
ROOT
ATOM      1  O   UNL     1      11.411   6.341  21.085  0.00  0.00    -0.252 OA
ATOM      2  O   UNL     1      14.016   8.675  15.123  0.00  0.00    -0.252 OA
ATOM      4  N   UNL     1      12.049   7.862  19.412  0.00  0.00    -0.278 N 
ATOM      5  N   UNL     1      13.596   8.957  17.378  0.00  0.00    -0.282 N 
ATOM      6  N   UNL     1      11.363   8.678  21.390  0.00  0.00    -0.287 N 
ATOM      7  N   UNL     1      13.614  10.814  15.926  0.00  0.00    -0.269 N 
ATOM      8  C   UNL     1      12.024   9.304  19.225  0.00  0.00    +0.112 C 
ATOM      9  C   UNL     1      13.326   9.770  18.582  0.00  0.00    +0.133 C 
ATOM     10  C   UNL     1      11.774   9.847  20.630  0.00  0.00    +0.133 C 
ATOM     11  C   UNL     1      12.430   6.995  18.309  0.00  0.00    +0.128 C 
ATOM     12  C   UNL     1      13.706   7.514  17.647  0.00  0.00    +0.128 C 
ATOM     13  C   UNL     1      11.583   7.482  20.678  0.00  0.00    +0.305 C 
ATOM     14  C   UNL     1      10.922   8.775  22.763  0.00  0.00    +0.133 C 
ATOM     15  C   UNL     1      13.770   9.435  16.064  0.00  0.00    +0.307 C 
ATOM     23  H   UNL     1      12.998  11.292  16.575  0.00  0.00    +0.156 HD
ENDROOT
BRANCH   7  16
ATOM     16  C   UNL     1      14.251  11.662  14.986  0.00  0.00    +0.038 A 
ATOM     17  C   UNL     1      15.616  11.930  15.101  0.00  0.00    +0.069 A 
ATOM     18  C   UNL     1      13.514  12.230  13.948  0.00  0.00    +0.023 A 
ATOM     19  C   UNL     1      16.243  12.764  14.176  0.00  0.00    +0.122 A 
ATOM     20  C   UNL     1      14.141  13.066  13.023  0.00  0.00    +0.005 A 
ATOM     21  C   UNL     1      15.505  13.332  13.137  0.00  0.00    +0.046 A 
BRANCH  19   3
ATOM      3  O   UNL     1      17.574  13.026  14.288  0.00  0.00    -0.495 OA
ATOM     22  C   UNL     1      18.444  11.909  14.457  0.00  0.00    +0.277 C 
ENDBRANCH  19   3
ENDBRANCH   7  16
TORSDOF 2
ENDMDL
MODEL 6
REMARK VINA RESULT:      -5.7     13.359     14.937
REMARK  Name = 75537006
REMARK  4 active torsions:
REMARK  status: ('A' for Active; 'I' for Inactive)
REMARK    1  A    between atoms: O_3  and  C_19
REMARK    2  A    between atoms: O_3  and  C_22
REMARK    3  A    between atoms: N_6  and  C_14
REMARK    4  A    between atoms: N_7  and  C_16
REMARK                            x       y       z     vdW  Elec       q    Type
REMARK                         _______ _______ _______ _____ _____    ______ ____
ROOT
ATOM      1  O   UNL     1      11.482   6.205  20.920  0.00  0.00    -0.252 OA
ATOM      2  O   UNL     1      14.196   9.006  15.213  0.00  0.00    -0.252 OA
ATOM      4  N   UNL     1      12.110   7.850  19.364  0.00  0.00    -0.278 N 
ATOM      5  N   UNL     1      13.678   9.134  17.462  0.00  0.00    -0.282 N 
ATOM      6  N   UNL     1      11.310   8.516  21.356  0.00  0.00    -0.287 N 
ATOM      7  N   UNL     1      13.662  11.073  16.121  0.00  0.00    -0.269 N 
ATOM      8  C   UNL     1      12.023   9.298  19.260  0.00  0.00    +0.112 C 
ATOM      9  C   UNL     1      13.324   9.861  18.699  0.00  0.00    +0.133 C 
ATOM     10  C   UNL     1      11.693   9.745  20.682  0.00  0.00    +0.133 C 
ATOM     11  C   UNL     1      12.574   7.069  18.230  0.00  0.00    +0.128 C 
ATOM     12  C   UNL     1      13.848   7.685  17.651  0.00  0.00    +0.128 C 
ATOM     13  C   UNL     1      11.615   7.375  20.586  0.00  0.00    +0.305 C 
ATOM     14  C   UNL     1      10.813   8.511  22.714  0.00  0.00    +0.133 C 
ATOM     15  C   UNL     1      13.879   9.697  16.185  0.00  0.00    +0.307 C 
ATOM     23  H   UNL     1      12.999  11.483  16.771  0.00  0.00    +0.156 HD
ENDROOT
BRANCH   7  16
ATOM     16  C   UNL     1      14.293  12.004  15.257  0.00  0.00    +0.038 A 
ATOM     17  C   UNL     1      13.692  12.349  14.047  0.00  0.00    +0.069 A 
ATOM     18  C   UNL     1      15.514  12.571  15.618  0.00  0.00    +0.023 A 
ATOM     19  C   UNL     1      14.313  13.264  13.196  0.00  0.00    +0.122 A 
ATOM     20  C   UNL     1      16.136  13.486  14.766  0.00  0.00    +0.005 A 
ATOM     21  C   UNL     1      15.535  13.833  13.557  0.00  0.00    +0.046 A 
BRANCH  19   3
ATOM      3  O   UNL     1      13.728  13.600  12.014  0.00  0.00    -0.495 OA
ATOM     22  C   UNL     1      12.806  14.689  12.032  0.00  0.00    +0.277 C 
ENDBRANCH  19   3
ENDBRANCH   7  16
TORSDOF 2
ENDMDL
MODEL 7
REMARK VINA RESULT:      -5.6     23.745     27.040
REMARK  Name = 75537006
REMARK  4 active torsions:
REMARK  status: ('A' for Active; 'I' for Inactive)
REMARK    1  A    between atoms: O_3  and  C_19
REMARK    2  A    between atoms: O_3  and  C_22
REMARK    3  A    between atoms: N_6  and  C_14
REMARK    4  A    between atoms: N_7  and  C_16
REMARK                            x       y       z     vdW  Elec       q    Type
REMARK                         _______ _______ _______ _____ _____    ______ ____
ROOT
ATOM      1  O   UNL     1     -10.821 -11.692  20.479  0.00  0.00    -0.252 OA
ATOM      2  O   UNL     1      -4.463 -12.576  17.917  0.00  0.00    -0.252 OA
ATOM      4  N   UNL     1      -8.997 -11.496  19.012  0.00  0.00    -0.278 N 
ATOM      5  N   UNL     1      -6.343 -11.266  18.215  0.00  0.00    -0.282 N 
ATOM      6  N   UNL     1     -10.795 -10.196  18.656  0.00  0.00    -0.287 N 
ATOM      7  N   UNL     1      -5.061 -11.083  16.246  0.00  0.00    -0.269 N 
ATOM      8  C   UNL     1      -8.707 -10.800  17.769  0.00  0.00    +0.112 C 
ATOM      9  C   UNL     1      -7.300 -10.213  17.814  0.00  0.00    +0.133 C 
ATOM     10  C   UNL     1      -9.826  -9.768  17.661  0.00  0.00    +0.133 C 
ATOM     11  C   UNL     1      -8.045 -12.457  19.543  0.00  0.00    +0.128 C 
ATOM     12  C   UNL     1      -6.635 -11.866  19.527  0.00  0.00    +0.128 C 
ATOM     13  C   UNL     1     -10.274 -11.195  19.504  0.00  0.00    +0.305 C 
ATOM     14  C   UNL     1     -12.076  -9.543  18.808  0.00  0.00    +0.133 C 
ATOM     15  C   UNL     1      -5.218 -11.701  17.485  0.00  0.00    +0.307 C 
ATOM     23  H   UNL     1      -5.892 -10.751  15.768  0.00  0.00    +0.156 HD
ENDROOT
BRANCH   7  16
ATOM     16  C   UNL     1      -3.846 -10.824  15.562  0.00  0.00    +0.038 A 
ATOM     17  C   UNL     1      -3.798 -10.910  14.170  0.00  0.00    +0.069 A 
ATOM     18  C   UNL     1      -2.700 -10.487  16.281  0.00  0.00    +0.023 A 
ATOM     19  C   UNL     1      -2.602 -10.657  13.498  0.00  0.00    +0.122 A 
ATOM     20  C   UNL     1      -1.504 -10.235  15.608  0.00  0.00    +0.005 A 
ATOM     21  C   UNL     1      -1.455 -10.319  14.216  0.00  0.00    +0.046 A 
BRANCH  19   3
ATOM      3  O   UNL     1      -2.554 -10.741  12.140  0.00  0.00    -0.495 OA
ATOM     22  C   UNL     1      -3.465  -9.924  11.406  0.00  0.00    +0.277 C 
ENDBRANCH  19   3
ENDBRANCH   7  16
TORSDOF 2
ENDMDL
MODEL 8
REMARK VINA RESULT:      -5.6     22.802     24.431
REMARK  Name = 75537006
REMARK  4 active torsions:
REMARK  status: ('A' for Active; 'I' for Inactive)
REMARK    1  A    between atoms: O_3  and  C_19
REMARK    2  A    between atoms: O_3  and  C_22
REMARK    3  A    between atoms: N_6  and  C_14
REMARK    4  A    between atoms: N_7  and  C_16
REMARK                            x       y       z     vdW  Elec       q    Type
REMARK                         _______ _______ _______ _____ _____    ______ ____
ROOT
ATOM      1  O   UNL     1      -6.561  -9.956   6.115  0.00  0.00    -0.252 OA
ATOM      2  O   UNL     1      -2.733 -12.089  11.460  0.00  0.00    -0.252 OA
ATOM      4  N   UNL     1      -5.578  -9.965   8.248  0.00  0.00    -0.278 N 
ATOM      5  N   UNL     1      -4.601 -11.009  10.632  0.00  0.00    -0.282 N 
ATOM      6  N   UNL     1      -7.165  -8.435   7.812  0.00  0.00    -0.287 N 
ATOM      7  N   UNL     1      -3.598 -10.290  12.640  0.00  0.00    -0.269 N 
ATOM      8  C   UNL     1      -5.619  -9.129   9.437  0.00  0.00    +0.112 C 
ATOM      9  C   UNL     1      -5.679 -10.000  10.688  0.00  0.00    +0.133 C 
ATOM     10  C   UNL     1      -6.843  -8.244   9.216  0.00  0.00    +0.133 C 
ATOM     11  C   UNL     1      -4.630 -11.063   8.168  0.00  0.00    +0.128 C 
ATOM     12  C   UNL     1      -4.669 -11.889   9.454  0.00  0.00    +0.128 C 
ATOM     13  C   UNL     1      -6.445  -9.508   7.247  0.00  0.00    +0.305 C 
ATOM     14  C   UNL     1      -8.212  -7.682   7.157  0.00  0.00    +0.133 C 
ATOM     15  C   UNL     1      -3.579 -11.200  11.584  0.00  0.00    +0.307 C 
ATOM     23  H   UNL     1      -3.982  -9.366  12.468  0.00  0.00    +0.156 HD
ENDROOT
BRANCH   7  16
ATOM     16  C   UNL     1      -3.164 -10.509  13.972  0.00  0.00    +0.038 A 
ATOM     17  C   UNL     1      -4.073 -10.938  14.939  0.00  0.00    +0.069 A 
ATOM     18  C   UNL     1      -1.830 -10.292  14.315  0.00  0.00    +0.023 A 
ATOM     19  C   UNL     1      -3.646 -11.153  16.250  0.00  0.00    +0.122 A 
ATOM     20  C   UNL     1      -1.404 -10.506  15.626  0.00  0.00    +0.005 A 
ATOM     21  C   UNL     1      -2.311 -10.937  16.593  0.00  0.00    +0.046 A 
BRANCH  19   3
ATOM      3  O   UNL     1      -4.533 -11.571  17.194  0.00  0.00    -0.495 OA
ATOM     22  C   UNL     1      -4.034 -11.755  18.518  0.00  0.00    +0.277 C 
ENDBRANCH  19   3
ENDBRANCH   7  16
TORSDOF 2
ENDMDL
MODEL 9
REMARK VINA RESULT:      -5.5      5.019      8.187
REMARK  Name = 75537006
REMARK  4 active torsions:
REMARK  status: ('A' for Active; 'I' for Inactive)
REMARK    1  A    between atoms: O_3  and  C_19
REMARK    2  A    between atoms: O_3  and  C_22
REMARK    3  A    between atoms: N_6  and  C_14
REMARK    4  A    between atoms: N_7  and  C_16
REMARK                            x       y       z     vdW  Elec       q    Type
REMARK                         _______ _______ _______ _____ _____    ______ ____
ROOT
ATOM      1  O   UNL     1       5.212  14.043   3.045  0.00  0.00    -0.252 OA
ATOM      2  O   UNL     1       9.303   9.806   6.662  0.00  0.00    -0.252 OA
ATOM      4  N   UNL     1       6.007  12.059   4.019  0.00  0.00    -0.278 N 
ATOM      5  N   UNL     1       7.859  10.180   4.897  0.00  0.00    -0.282 N 
ATOM      6  N   UNL     1       4.294  11.923   2.571  0.00  0.00    -0.287 N 
ATOM      7  N   UNL     1       7.930   8.075   5.954  0.00  0.00    -0.269 N 
ATOM      8  C   UNL     1       5.612  10.660   4.047  0.00  0.00    +0.112 C 
ATOM      9  C   UNL     1       6.840   9.766   3.910  0.00  0.00    +0.133 C 
ATOM     10  C   UNL     1       4.606  10.544   2.906  0.00  0.00    +0.133 C 
ATOM     11  C   UNL     1       7.091  12.523   4.868  0.00  0.00    +0.128 C 
ATOM     12  C   UNL     1       8.290  11.581   4.755  0.00  0.00    +0.128 C 
ATOM     13  C   UNL     1       5.174  12.829   3.196  0.00  0.00    +0.305 C 
ATOM     14  C   UNL     1       3.283  12.265   1.595  0.00  0.00    +0.133 C 
ATOM     15  C   UNL     1       8.438   9.372   5.896  0.00  0.00    +0.307 C 
ATOM     23  H   UNL     1       6.974   7.922   5.652  0.00  0.00    +0.156 HD
ENDROOT
BRANCH   7  16
ATOM     16  C   UNL     1       8.613   6.902   6.364  0.00  0.00    +0.038 A 
ATOM     17  C   UNL     1       8.922   6.711   7.711  0.00  0.00    +0.069 A 
ATOM     18  C   UNL     1       8.978   5.942   5.421  0.00  0.00    +0.023 A 
ATOM     19  C   UNL     1       9.595   5.558   8.115  0.00  0.00    +0.122 A 
ATOM     20  C   UNL     1       9.652   4.789   5.825  0.00  0.00    +0.005 A 
ATOM     21  C   UNL     1       9.959   4.596   7.172  0.00  0.00    +0.046 A 
BRANCH  19   3
ATOM      3  O   UNL     1       9.897   5.371   9.429  0.00  0.00    -0.495 OA
ATOM     22  C   UNL     1       8.996   4.576  10.197  0.00  0.00    +0.277 C 
ENDBRANCH  19   3
ENDBRANCH   7  16
TORSDOF 2
ENDMDL
MODEL 10
REMARK VINA RESULT:      -5.5     22.540     24.305
REMARK  Name = 75537006
REMARK  4 active torsions:
REMARK  status: ('A' for Active; 'I' for Inactive)
REMARK    1  A    between atoms: O_3  and  C_19
REMARK    2  A    between atoms: O_3  and  C_22
REMARK    3  A    between atoms: N_6  and  C_14
REMARK    4  A    between atoms: N_7  and  C_16
REMARK                            x       y       z     vdW  Elec       q    Type
REMARK                         _______ _______ _______ _____ _____    ______ ____
ROOT
ATOM      1  O   UNL     1      -6.808  -9.652   5.432  0.00  0.00    -0.252 OA
ATOM      2  O   UNL     1      -5.701  -8.805  12.202  0.00  0.00    -0.252 OA
ATOM      4  N   UNL     1      -5.998 -10.077   7.596  0.00  0.00    -0.278 N 
ATOM      5  N   UNL     1      -4.985  -9.521  10.124  0.00  0.00    -0.282 N 
ATOM      6  N   UNL     1      -5.214 -11.325   5.899  0.00  0.00    -0.287 N 
ATOM      7  N   UNL     1      -4.293 -10.644  12.077  0.00  0.00    -0.269 N 
ATOM      8  C   UNL     1      -5.146 -11.069   8.232  0.00  0.00    +0.112 C 
ATOM      9  C   UNL     1      -4.204 -10.392   9.222  0.00  0.00    +0.133 C 
ATOM     10  C   UNL     1      -4.455 -11.760   7.060  0.00  0.00    +0.133 C 
ATOM     11  C   UNL     1      -6.703  -9.099   8.407  0.00  0.00    +0.128 C 
ATOM     12  C   UNL     1      -5.750  -8.475   9.427  0.00  0.00    +0.128 C 
ATOM     13  C   UNL     1      -6.099 -10.274   6.212  0.00  0.00    +0.305 C 
ATOM     14  C   UNL     1      -4.950 -11.843   4.575  0.00  0.00    +0.133 C 
ATOM     15  C   UNL     1      -5.033  -9.596  11.531  0.00  0.00    +0.307 C 
ATOM     23  H   UNL     1      -4.161 -11.480  11.517  0.00  0.00    +0.156 HD
ENDROOT
BRANCH   7  16
ATOM     16  C   UNL     1      -3.655 -10.678  13.343  0.00  0.00    +0.038 A 
ATOM     17  C   UNL     1      -4.385 -11.021  14.482  0.00  0.00    +0.069 A 
ATOM     18  C   UNL     1      -2.300 -10.366  13.450  0.00  0.00    +0.023 A 
ATOM     19  C   UNL     1      -3.758 -11.053  15.727  0.00  0.00    +0.122 A 
ATOM     20  C   UNL     1      -1.674 -10.397  14.696  0.00  0.00    +0.005 A 
ATOM     21  C   UNL     1      -2.402 -10.742  15.835  0.00  0.00    +0.046 A 
BRANCH  19   3
ATOM      3  O   UNL     1      -4.469 -11.387  16.839  0.00  0.00    -0.495 OA
ATOM     22  C   UNL     1      -5.338 -10.392  17.378  0.00  0.00    +0.277 C 
ENDBRANCH  19   3
ENDBRANCH   7  16
TORSDOF 2
ENDMDL
