MODEL 1
REMARK VINA RESULT:      -7.2      0.000      0.000
REMARK  Name = 40779521
REMARK  10 active torsions:
REMARK  status: ('A' for Active; 'I' for Inactive)
REMARK    1  A    between atoms: O_2  and  C_27
REMARK    2  A    between atoms: O_2  and  C_30
REMARK    3  A    between atoms: O_3  and  C_29
REMARK    4  A    between atoms: O_3  and  C_31
REMARK    5  A    between atoms: N_5  and  C_15
REMARK    6  A    between atoms: N_6  and  C_23
REMARK    7  A    between atoms: C_9  and  C_16
REMARK    8  A    between atoms: C_10  and  C_15
REMARK    9  A    between atoms: C_17  and  C_21
REMARK   10  A    between atoms: C_22  and  C_24
REMARK                            x       y       z     vdW  Elec       q    Type
REMARK                         _______ _______ _______ _____ _____    ______ ____
ROOT
ATOM      4  N   UNL     1      13.001   7.061  21.310  0.00  0.00    -0.297 NA
ATOM      8  C   UNL     1      11.373   8.834  20.317  0.00  0.00    +0.002 C 
ATOM      9  C   UNL     1      12.137   8.102  19.180  0.00  0.00    +0.055 C 
ATOM     10  C   UNL     1      13.193   8.366  21.994  0.00  0.00    +0.074 C 
ATOM     11  C   UNL     1      12.389   9.477  21.284  0.00  0.00    +0.024 C 
ATOM     12  C   UNL     1      10.612   7.751  21.112  0.00  0.00    +0.019 C 
ATOM     13  C   UNL     1      13.224   7.213  19.851  0.00  0.00    +0.094 C 
ATOM     14  C   UNL     1      11.596   6.640  21.521  0.00  0.00    +0.085 C 
ENDROOT
BRANCH   9  16
ATOM      6  N   UNL     1      12.023   9.150  16.871  0.00  0.00    -0.270 N 
ATOM      7  N   UNL     1      12.691   9.913  15.990  0.00  0.00    -0.171 NA
ATOM     16  C   UNL     1      12.698   8.937  18.037  0.00  0.00    +0.044 A 
ATOM     20  C   UNL     1      13.890   9.606  17.909  0.00  0.00    +0.053 A 
ATOM     22  C   UNL     1      13.831  10.189  16.629  0.00  0.00    +0.093 A 
ATOM     23  C   UNL     1      10.715   8.646  16.521  0.00  0.00    +0.172 C 
BRANCH  22  24
ATOM     24  C   UNL     1      14.841  11.003  16.005  0.00  0.00    +0.006 A 
ATOM     25  C   UNL     1      15.005  10.971  14.620  0.00  0.00    +0.059 A 
ATOM     26  C   UNL     1      15.657  11.823  16.785  0.00  0.00    +0.014 A 
ATOM     27  C   UNL     1      15.984  11.758  14.015  0.00  0.00    +0.162 A 
ATOM     28  C   UNL     1      16.636  12.610  16.179  0.00  0.00    +0.050 A 
ATOM     29  C   UNL     1      16.800  12.578  14.795  0.00  0.00    +0.162 A 
BRANCH  27   2
ATOM      2  O   UNL     1      16.134  11.719  12.661  0.00  0.00    -0.491 OA
ATOM     30  C   UNL     1      15.187  12.448  11.883  0.00  0.00    +0.277 C 
ENDBRANCH  27   2
BRANCH  29   3
ATOM      3  O   UNL     1      17.759  13.353  14.215  0.00  0.00    -0.491 OA
ATOM     31  C   UNL     1      19.104  12.885  14.294  0.00  0.00    +0.277 C 
ENDBRANCH  29   3
ENDBRANCH  22  24
ENDBRANCH   9  16
BRANCH  10  15
ATOM     15  C   UNL     1      14.671   8.735  22.139  0.00  0.00    +0.123 C 
BRANCH  15   5
ATOM      1  O   UNL     1      17.160   8.720  20.635  0.00  0.00    -0.276 OA
ATOM      5  N   UNL     1      15.509   7.611  21.850  0.00  0.00    -0.314 N 
ATOM     21  C   UNL     1      16.688   7.699  21.120  0.00  0.00    +0.216 C 
ATOM     32  H   UNL     1      15.200   6.698  22.169  0.00  0.00    +0.149 HD
BRANCH  21  17
ATOM     17  C   UNL     1      17.403   6.401  20.941  0.00  0.00    +0.075 C 
ATOM     18  C   UNL     1      17.864   6.005  19.568  0.00  0.00    +0.013 C 
ATOM     19  C   UNL     1      18.867   6.414  20.608  0.00  0.00    +0.013 C 
ENDBRANCH  21  17
ENDBRANCH  15   5
ENDBRANCH  10  15
TORSDOF 7
ENDMDL
MODEL 2
REMARK VINA RESULT:      -6.8      4.628      7.547
REMARK  Name = 40779521
REMARK  10 active torsions:
REMARK  status: ('A' for Active; 'I' for Inactive)
REMARK    1  A    between atoms: O_2  and  C_27
REMARK    2  A    between atoms: O_2  and  C_30
REMARK    3  A    between atoms: O_3  and  C_29
REMARK    4  A    between atoms: O_3  and  C_31
REMARK    5  A    between atoms: N_5  and  C_15
REMARK    6  A    between atoms: N_6  and  C_23
REMARK    7  A    between atoms: C_9  and  C_16
REMARK    8  A    between atoms: C_10  and  C_15
REMARK    9  A    between atoms: C_17  and  C_21
REMARK   10  A    between atoms: C_22  and  C_24
REMARK                            x       y       z     vdW  Elec       q    Type
REMARK                         _______ _______ _______ _____ _____    ______ ____
ROOT
ATOM      4  N   UNL     1      11.862   8.670  22.125  0.00  0.00    -0.297 NA
ATOM      8  C   UNL     1      12.549   8.630  19.614  0.00  0.00    +0.002 C 
ATOM      9  C   UNL     1      13.164   7.417  20.364  0.00  0.00    +0.055 C 
ATOM     10  C   UNL     1      12.394   9.998  21.723  0.00  0.00    +0.074 C 
ATOM     11  C   UNL     1      12.997   9.936  20.302  0.00  0.00    +0.024 C 
ATOM     12  C   UNL     1      11.018   8.529  19.782  0.00  0.00    +0.019 C 
ATOM     13  C   UNL     1      12.881   7.619  21.881  0.00  0.00    +0.094 C 
ATOM     14  C   UNL     1      10.683   8.378  21.277  0.00  0.00    +0.085 C 
ENDROOT
BRANCH   9  16
ATOM      6  N   UNL     1      15.133   6.953  18.832  0.00  0.00    -0.270 N 
ATOM      7  N   UNL     1      16.438   6.632  18.806  0.00  0.00    -0.171 NA
ATOM     16  C   UNL     1      14.619   7.063  20.090  0.00  0.00    +0.044 A 
ATOM     20  C   UNL     1      15.659   6.797  20.946  0.00  0.00    +0.053 A 
ATOM     22  C   UNL     1      16.754   6.539  20.100  0.00  0.00    +0.093 A 
ATOM     23  C   UNL     1      14.426   7.139  17.586  0.00  0.00    +0.172 C 
BRANCH  22  24
ATOM     24  C   UNL     1      18.095   6.203  20.503  0.00  0.00    +0.006 A 
ATOM     25  C   UNL     1      18.671   6.839  21.603  0.00  0.00    +0.059 A 
ATOM     26  C   UNL     1      18.817   5.243  19.794  0.00  0.00    +0.014 A 
ATOM     27  C   UNL     1      19.970   6.515  21.993  0.00  0.00    +0.162 A 
ATOM     28  C   UNL     1      20.116   4.920  20.185  0.00  0.00    +0.050 A 
ATOM     29  C   UNL     1      20.693   5.555  21.284  0.00  0.00    +0.162 A 
BRANCH  27   2
ATOM      2  O   UNL     1      20.523   7.142  23.070  0.00  0.00    -0.491 OA
ATOM     30  C   UNL     1      20.090   8.474  23.336  0.00  0.00    +0.277 C 
ENDBRANCH  27   2
BRANCH  29   3
ATOM      3  O   UNL     1      21.963   5.229  21.657  0.00  0.00    -0.491 OA
ATOM     31  C   UNL     1      22.397   3.899  21.382  0.00  0.00    +0.277 C 
ENDBRANCH  29   3
ENDBRANCH  22  24
ENDBRANCH   9  16
BRANCH  10  15
ATOM     15  C   UNL     1      13.390  10.560  22.740  0.00  0.00    +0.123 C 
BRANCH  15   5
ATOM      1  O   UNL     1      11.965  13.081  23.004  0.00  0.00    -0.276 OA
ATOM      5  N   UNL     1      12.710  11.062  23.896  0.00  0.00    -0.314 N 
ATOM     21  C   UNL     1      12.052  12.284  23.931  0.00  0.00    +0.216 C 
ATOM     32  H   UNL     1      12.746  10.503  24.744  0.00  0.00    +0.149 HD
BRANCH  21  17
ATOM     17  C   UNL     1      11.411  12.606  25.240  0.00  0.00    +0.075 C 
ATOM     18  C   UNL     1      11.839  13.840  25.979  0.00  0.00    +0.013 C 
ATOM     19  C   UNL     1      10.486  13.784  25.330  0.00  0.00    +0.013 C 
ENDBRANCH  21  17
ENDBRANCH  15   5
ENDBRANCH  10  15
TORSDOF 7
ENDMDL
MODEL 3
REMARK VINA RESULT:      -6.8      4.219      7.936
REMARK  Name = 40779521
REMARK  10 active torsions:
REMARK  status: ('A' for Active; 'I' for Inactive)
REMARK    1  A    between atoms: O_2  and  C_27
REMARK    2  A    between atoms: O_2  and  C_30
REMARK    3  A    between atoms: O_3  and  C_29
REMARK    4  A    between atoms: O_3  and  C_31
REMARK    5  A    between atoms: N_5  and  C_15
REMARK    6  A    between atoms: N_6  and  C_23
REMARK    7  A    between atoms: C_9  and  C_16
REMARK    8  A    between atoms: C_10  and  C_15
REMARK    9  A    between atoms: C_17  and  C_21
REMARK   10  A    between atoms: C_22  and  C_24
REMARK                            x       y       z     vdW  Elec       q    Type
REMARK                         _______ _______ _______ _____ _____    ______ ____
ROOT
ATOM      4  N   UNL     1      20.828   5.983  22.690  0.00  0.00    -0.297 NA
ATOM      8  C   UNL     1      20.763   8.384  21.685  0.00  0.00    +0.002 C 
ATOM      9  C   UNL     1      19.405   8.040  22.357  0.00  0.00    +0.055 C 
ATOM     10  C   UNL     1      21.306   5.957  21.283  0.00  0.00    +0.074 C 
ATOM     11  C   UNL     1      21.081   7.327  20.606  0.00  0.00    +0.024 C 
ATOM     12  C   UNL     1      21.846   8.258  22.778  0.00  0.00    +0.019 C 
ATOM     13  C   UNL     1      19.451   6.534  22.749  0.00  0.00    +0.094 C 
ATOM     14  C   UNL     1      21.721   6.882  23.457  0.00  0.00    +0.085 C 
ENDROOT
BRANCH   9  16
ATOM      6  N   UNL     1      17.654   9.683  21.534  0.00  0.00    -0.270 N 
ATOM      7  N   UNL     1      16.509   9.794  20.841  0.00  0.00    -0.171 NA
ATOM     16  C   UNL     1      18.124   8.405  21.619  0.00  0.00    +0.044 A 
ATOM     20  C   UNL     1      17.224   7.627  20.934  0.00  0.00    +0.053 A 
ATOM     22  C   UNL     1      16.251   8.535  20.476  0.00  0.00    +0.093 A 
ATOM     23  C   UNL     1      18.253  10.868  22.103  0.00  0.00    +0.172 C 
BRANCH  22  24
ATOM     24  C   UNL     1      15.080   8.224  19.699  0.00  0.00    +0.006 A 
ATOM     25  C   UNL     1      14.108   7.366  20.216  0.00  0.00    +0.059 A 
ATOM     26  C   UNL     1      14.917   8.778  18.429  0.00  0.00    +0.014 A 
ATOM     27  C   UNL     1      12.974   7.064  19.463  0.00  0.00    +0.162 A 
ATOM     28  C   UNL     1      13.782   8.475  17.677  0.00  0.00    +0.050 A 
ATOM     29  C   UNL     1      12.811   7.618  18.193  0.00  0.00    +0.162 A 
BRANCH  27   2
ATOM      2  O   UNL     1      12.031   6.225  19.978  0.00  0.00    -0.491 OA
ATOM     30  C   UNL     1      11.435   6.604  21.217  0.00  0.00    +0.277 C 
ENDBRANCH  27   2
BRANCH  29   3
ATOM      3  O   UNL     1      11.706   7.331  17.449  0.00  0.00    -0.491 OA
ATOM     31  C   UNL     1      10.896   8.431  17.041  0.00  0.00    +0.277 C 
ENDBRANCH  29   3
ENDBRANCH  22  24
ENDBRANCH   9  16
BRANCH  10  15
ATOM     15  C   UNL     1      20.685   4.814  20.477  0.00  0.00    +0.123 C 
BRANCH  15   5
ATOM      1  O   UNL     1      23.540   4.475  20.914  0.00  0.00    -0.276 OA
ATOM      5  N   UNL     1      21.395   3.591  20.695  0.00  0.00    -0.314 N 
ATOM     21  C   UNL     1      22.768   3.523  20.897  0.00  0.00    +0.216 C 
ATOM     32  H   UNL     1      20.864   2.725  20.665  0.00  0.00    +0.149 HD
BRANCH  21  17
ATOM     17  C   UNL     1      23.296   2.143  21.107  0.00  0.00    +0.075 C 
ATOM     18  C   UNL     1      24.761   1.884  20.907  0.00  0.00    +0.013 C 
ATOM     19  C   UNL     1      24.179   1.871  22.290  0.00  0.00    +0.013 C 
ENDBRANCH  21  17
ENDBRANCH  15   5
ENDBRANCH  10  15
TORSDOF 7
ENDMDL
MODEL 4
REMARK VINA RESULT:      -6.8     26.854     29.297
REMARK  Name = 40779521
REMARK  10 active torsions:
REMARK  status: ('A' for Active; 'I' for Inactive)
REMARK    1  A    between atoms: O_2  and  C_27
REMARK    2  A    between atoms: O_2  and  C_30
REMARK    3  A    between atoms: O_3  and  C_29
REMARK    4  A    between atoms: O_3  and  C_31
REMARK    5  A    between atoms: N_5  and  C_15
REMARK    6  A    between atoms: N_6  and  C_23
REMARK    7  A    between atoms: C_9  and  C_16
REMARK    8  A    between atoms: C_10  and  C_15
REMARK    9  A    between atoms: C_17  and  C_21
REMARK   10  A    between atoms: C_22  and  C_24
REMARK                            x       y       z     vdW  Elec       q    Type
REMARK                         _______ _______ _______ _____ _____    ______ ____
ROOT
ATOM      4  N   UNL     1      -6.433 -10.780  18.365  0.00  0.00    -0.297 NA
ATOM      8  C   UNL     1      -4.548 -12.318  17.438  0.00  0.00    +0.002 C 
ATOM      9  C   UNL     1      -4.381 -10.870  16.900  0.00  0.00    +0.055 C 
ATOM     10  C   UNL     1      -7.023 -12.019  17.795  0.00  0.00    +0.074 C 
ATOM     11  C   UNL     1      -5.947 -12.846  17.058  0.00  0.00    +0.024 C 
ATOM     12  C   UNL     1      -4.499 -12.230  18.978  0.00  0.00    +0.019 C 
ATOM     13  C   UNL     1      -5.644 -10.069  17.329  0.00  0.00    +0.094 C 
ATOM     14  C   UNL     1      -5.513 -11.175  19.457  0.00  0.00    +0.085 C 
ENDROOT
BRANCH   9  16
ATOM      6  N   UNL     1      -2.777 -10.696  14.941  0.00  0.00    -0.270 N 
ATOM      7  N   UNL     1      -2.700 -10.513  13.612  0.00  0.00    -0.171 NA
ATOM     16  C   UNL     1      -4.052 -10.684  15.425  0.00  0.00    +0.044 A 
ATOM     20  C   UNL     1      -4.865 -10.479  14.338  0.00  0.00    +0.053 A 
ATOM     22  C   UNL     1      -3.978 -10.382  13.249  0.00  0.00    +0.093 A 
ATOM     23  C   UNL     1      -1.561 -10.876  15.701  0.00  0.00    +0.172 C 
BRANCH  22  24
ATOM     24  C   UNL     1      -4.329 -10.165  11.870  0.00  0.00    +0.006 A 
ATOM     25  C   UNL     1      -5.664 -10.229  11.471  0.00  0.00    +0.059 A 
ATOM     26  C   UNL     1      -3.333  -9.890  10.932  0.00  0.00    +0.014 A 
ATOM     27  C   UNL     1      -6.004 -10.020  10.135  0.00  0.00    +0.162 A 
ATOM     28  C   UNL     1      -3.674  -9.680   9.595  0.00  0.00    +0.050 A 
ATOM     29  C   UNL     1      -5.009  -9.745   9.197  0.00  0.00    +0.162 A 
BRANCH  27   2
ATOM      2  O   UNL     1      -7.312 -10.085   9.757  0.00  0.00    -0.491 OA
ATOM     30  C   UNL     1      -8.107  -8.921   9.974  0.00  0.00    +0.277 C 
ENDBRANCH  27   2
BRANCH  29   3
ATOM      3  O   UNL     1      -5.328  -9.537   7.889  0.00  0.00    -0.491 OA
ATOM     31  C   UNL     1      -5.176 -10.643   7.001  0.00  0.00    +0.277 C 
ENDBRANCH  29   3
ENDBRANCH  22  24
ENDBRANCH   9  16
BRANCH  10  15
ATOM     15  C   UNL     1      -8.232 -11.732  16.902  0.00  0.00    +0.123 C 
BRANCH  15   5
ATOM      1  O   UNL     1      -8.944  -9.190  15.681  0.00  0.00    -0.276 OA
ATOM      5  N   UNL     1      -9.043 -10.692  17.460  0.00  0.00    -0.314 N 
ATOM     21  C   UNL     1      -9.333  -9.504  16.799  0.00  0.00    +0.216 C 
ATOM     32  H   UNL     1      -9.393 -10.822  18.405  0.00  0.00    +0.149 HD
BRANCH  21  17
ATOM     17  C   UNL     1     -10.198  -8.563  17.569  0.00  0.00    +0.075 C 
ATOM     18  C   UNL     1     -10.696  -7.316  16.899  0.00  0.00    +0.013 C 
ATOM     19  C   UNL     1     -11.648  -8.437  17.200  0.00  0.00    +0.013 C 
ENDBRANCH  21  17
ENDBRANCH  15   5
ENDBRANCH  10  15
TORSDOF 7
ENDMDL
MODEL 5
REMARK VINA RESULT:      -6.8     26.744     29.743
REMARK  Name = 40779521
REMARK  10 active torsions:
REMARK  status: ('A' for Active; 'I' for Inactive)
REMARK    1  A    between atoms: O_2  and  C_27
REMARK    2  A    between atoms: O_2  and  C_30
REMARK    3  A    between atoms: O_3  and  C_29
REMARK    4  A    between atoms: O_3  and  C_31
REMARK    5  A    between atoms: N_5  and  C_15
REMARK    6  A    between atoms: N_6  and  C_23
REMARK    7  A    between atoms: C_9  and  C_16
REMARK    8  A    between atoms: C_10  and  C_15
REMARK    9  A    between atoms: C_17  and  C_21
REMARK   10  A    between atoms: C_22  and  C_24
REMARK                            x       y       z     vdW  Elec       q    Type
REMARK                         _______ _______ _______ _____ _____    ______ ____
ROOT
ATOM      4  N   UNL     1     -12.012  -9.490  16.895  0.00  0.00    -0.297 NA
ATOM      8  C   UNL     1     -10.455  -7.643  15.923  0.00  0.00    +0.002 C 
ATOM      9  C   UNL     1     -10.369  -8.933  15.063  0.00  0.00    +0.055 C 
ATOM     10  C   UNL     1     -11.162  -8.923  17.974  0.00  0.00    +0.074 C 
ATOM     11  C   UNL     1     -10.092  -7.978  17.384  0.00  0.00    +0.024 C 
ATOM     12  C   UNL     1     -11.934  -7.198  15.913  0.00  0.00    +0.019 C 
ATOM     13  C   UNL     1     -11.160 -10.044  15.814  0.00  0.00    +0.094 C 
ATOM     14  C   UNL     1     -12.822  -8.386  16.327  0.00  0.00    +0.085 C 
ENDROOT
BRANCH   9  16
ATOM      6  N   UNL     1      -8.719  -9.780  13.330  0.00  0.00    -0.270 N 
ATOM      7  N   UNL     1      -7.447 -10.167  13.139  0.00  0.00    -0.171 NA
ATOM     16  C   UNL     1      -8.994  -9.407  14.613  0.00  0.00    +0.044 A 
ATOM     20  C   UNL     1      -7.821  -9.562  15.309  0.00  0.00    +0.053 A 
ATOM     22  C   UNL     1      -6.903 -10.031  14.351  0.00  0.00    +0.093 A 
ATOM     23  C   UNL     1      -9.637  -9.796  12.215  0.00  0.00    +0.172 C 
BRANCH  22  24
ATOM     24  C   UNL     1      -5.517 -10.354  14.571  0.00  0.00    +0.006 A 
ATOM     25  C   UNL     1      -4.702 -10.700  13.493  0.00  0.00    +0.059 A 
ATOM     26  C   UNL     1      -4.989 -10.322  15.862  0.00  0.00    +0.014 A 
ATOM     27  C   UNL     1      -3.360 -11.014  13.706  0.00  0.00    +0.162 A 
ATOM     28  C   UNL     1      -3.647 -10.635  16.075  0.00  0.00    +0.050 A 
ATOM     29  C   UNL     1      -2.832 -10.981  14.997  0.00  0.00    +0.162 A 
BRANCH  27   2
ATOM      2  O   UNL     1      -2.573 -11.350  12.645  0.00  0.00    -0.491 OA
ATOM     30  C   UNL     1      -2.527 -10.431  11.556  0.00  0.00    +0.277 C 
ENDBRANCH  27   2
BRANCH  29   3
ATOM      3  O   UNL     1      -1.522 -11.285  15.217  0.00  0.00    -0.491 OA
ATOM     31  C   UNL     1      -0.722 -10.283  15.842  0.00  0.00    +0.277 C 
ENDBRANCH  29   3
ENDBRANCH  22  24
ENDBRANCH   9  16
BRANCH  10  15
ATOM     15  C   UNL     1     -10.540 -10.007  18.857  0.00  0.00    +0.123 C 
BRANCH  15   5
ATOM      1  O   UNL     1      -8.668 -11.875  20.067  0.00  0.00    -0.276 OA
ATOM      5  N   UNL     1      -9.121 -10.063  18.674  0.00  0.00    -0.314 N 
ATOM     21  C   UNL     1      -8.301 -10.996  19.296  0.00  0.00    +0.216 C 
ATOM     32  H   UNL     1      -8.694  -9.356  18.083  0.00  0.00    +0.149 HD
BRANCH  21  17
ATOM     17  C   UNL     1      -6.853 -10.870  18.960  0.00  0.00    +0.075 C 
ATOM     18  C   UNL     1      -5.829 -11.176  20.015  0.00  0.00    +0.013 C 
ATOM     19  C   UNL     1      -6.017 -12.112  18.856  0.00  0.00    +0.013 C 
ENDBRANCH  21  17
ENDBRANCH  15   5
ENDBRANCH  10  15
TORSDOF 7
ENDMDL
MODEL 6
REMARK VINA RESULT:      -6.6     27.276     30.215
REMARK  Name = 40779521
REMARK  10 active torsions:
REMARK  status: ('A' for Active; 'I' for Inactive)
REMARK    1  A    between atoms: O_2  and  C_27
REMARK    2  A    between atoms: O_2  and  C_30
REMARK    3  A    between atoms: O_3  and  C_29
REMARK    4  A    between atoms: O_3  and  C_31
REMARK    5  A    between atoms: N_5  and  C_15
REMARK    6  A    between atoms: N_6  and  C_23
REMARK    7  A    between atoms: C_9  and  C_16
REMARK    8  A    between atoms: C_10  and  C_15
REMARK    9  A    between atoms: C_17  and  C_21
REMARK   10  A    between atoms: C_22  and  C_24
REMARK                            x       y       z     vdW  Elec       q    Type
REMARK                         _______ _______ _______ _____ _____    ______ ____
ROOT
ATOM      4  N   UNL     1      -5.801 -10.746   9.265  0.00  0.00    -0.297 NA
ATOM      8  C   UNL     1      -4.627  -8.842  10.598  0.00  0.00    +0.002 C 
ATOM      9  C   UNL     1      -4.311 -10.224  11.233  0.00  0.00    +0.055 C 
ATOM     10  C   UNL     1      -6.778  -9.674   9.586  0.00  0.00    +0.074 C 
ATOM     11  C   UNL     1      -6.155  -8.639  10.549  0.00  0.00    +0.024 C 
ATOM     12  C   UNL     1      -4.129  -8.899   9.137  0.00  0.00    +0.019 C 
ATOM     13  C   UNL     1      -5.201 -11.279  10.514  0.00  0.00    +0.094 C 
ATOM     14  C   UNL     1      -4.718 -10.145   8.451  0.00  0.00    +0.085 C 
ENDROOT
BRANCH   9  16
ATOM      6  N   UNL     1      -3.274 -10.540  13.528  0.00  0.00    -0.270 N 
ATOM      7  N   UNL     1      -3.546 -10.627  14.841  0.00  0.00    -0.171 NA
ATOM     16  C   UNL     1      -4.377 -10.350  12.749  0.00  0.00    +0.044 A 
ATOM     20  C   UNL     1      -5.444 -10.310  13.612  0.00  0.00    +0.053 A 
ATOM     22  C   UNL     1      -4.873 -10.486  14.887  0.00  0.00    +0.093 A 
ATOM     23  C   UNL     1      -1.905 -10.653  13.081  0.00  0.00    +0.172 C 
BRANCH  22  24
ATOM     24  C   UNL     1      -5.569 -10.522  16.146  0.00  0.00    +0.006 A 
ATOM     25  C   UNL     1      -4.948 -11.065  17.271  0.00  0.00    +0.059 A 
ATOM     26  C   UNL     1      -6.866 -10.016  16.241  0.00  0.00    +0.014 A 
ATOM     27  C   UNL     1      -5.623 -11.101  18.491  0.00  0.00    +0.162 A 
ATOM     28  C   UNL     1      -7.540 -10.052  17.462  0.00  0.00    +0.050 A 
ATOM     29  C   UNL     1      -6.919 -10.594  18.586  0.00  0.00    +0.162 A 
BRANCH  27   2
ATOM      2  O   UNL     1      -5.006 -11.632  19.584  0.00  0.00    -0.491 OA
ATOM     30  C   UNL     1      -3.711 -12.197  19.386  0.00  0.00    +0.277 C 
ENDBRANCH  27   2
BRANCH  29   3
ATOM      3  O   UNL     1      -7.588 -10.623  19.773  0.00  0.00    -0.491 OA
ATOM     31  C   UNL     1      -8.915 -11.145  19.756  0.00  0.00    +0.277 C 
ENDBRANCH  29   3
ENDBRANCH  22  24
ENDBRANCH   9  16
BRANCH  10  15
ATOM     15  C   UNL     1      -8.098 -10.231  10.123  0.00  0.00    +0.123 C 
BRANCH  15   5
ATOM      1  O   UNL     1     -10.112 -11.183  11.993  0.00  0.00    -0.276 OA
ATOM      5  N   UNL     1      -8.348  -9.760  11.452  0.00  0.00    -0.314 N 
ATOM     21  C   UNL     1      -9.337 -10.278  12.279  0.00  0.00    +0.216 C 
ATOM     32  H   UNL     1      -7.790  -8.980  11.789  0.00  0.00    +0.149 HD
BRANCH  21  17
ATOM     17  C   UNL     1      -9.418  -9.637  13.624  0.00  0.00    +0.075 C 
ATOM     18  C   UNL     1     -10.711  -9.009  14.057  0.00  0.00    +0.013 C 
ATOM     19  C   UNL     1     -10.247 -10.287  14.694  0.00  0.00    +0.013 C 
ENDBRANCH  21  17
ENDBRANCH  15   5
ENDBRANCH  10  15
TORSDOF 7
ENDMDL
MODEL 7
REMARK VINA RESULT:      -6.6     27.288     30.451
REMARK  Name = 40779521
REMARK  10 active torsions:
REMARK  status: ('A' for Active; 'I' for Inactive)
REMARK    1  A    between atoms: O_2  and  C_27
REMARK    2  A    between atoms: O_2  and  C_30
REMARK    3  A    between atoms: O_3  and  C_29
REMARK    4  A    between atoms: O_3  and  C_31
REMARK    5  A    between atoms: N_5  and  C_15
REMARK    6  A    between atoms: N_6  and  C_23
REMARK    7  A    between atoms: C_9  and  C_16
REMARK    8  A    between atoms: C_10  and  C_15
REMARK    9  A    between atoms: C_17  and  C_21
REMARK   10  A    between atoms: C_22  and  C_24
REMARK                            x       y       z     vdW  Elec       q    Type
REMARK                         _______ _______ _______ _____ _____    ______ ____
ROOT
ATOM      4  N   UNL     1      -5.567 -12.882  17.186  0.00  0.00    -0.297 NA
ATOM      8  C   UNL     1      -5.707 -10.568  18.372  0.00  0.00    +0.002 C 
ATOM      9  C   UNL     1      -7.074 -11.302  18.450  0.00  0.00    +0.055 C 
ATOM     10  C   UNL     1      -5.025 -11.822  16.297  0.00  0.00    +0.074 C 
ATOM     11  C   UNL     1      -5.289 -10.423  16.895  0.00  0.00    +0.024 C 
ATOM     12  C   UNL     1      -4.669 -11.489  19.050  0.00  0.00    +0.019 C 
ATOM     13  C   UNL     1      -6.970 -12.570  17.554  0.00  0.00    +0.094 C 
ATOM     14  C   UNL     1      -4.755 -12.893  18.426  0.00  0.00    +0.085 C 
ENDROOT
BRANCH   9  16
ATOM      6  N   UNL     1      -9.493 -10.662  18.877  0.00  0.00    -0.270 N 
ATOM      7  N   UNL     1     -10.492  -9.859  18.474  0.00  0.00    -0.171 NA
ATOM     16  C   UNL     1      -8.337 -10.500  18.170  0.00  0.00    +0.044 A 
ATOM     20  C   UNL     1      -8.599  -9.524  17.240  0.00  0.00    +0.053 A 
ATOM     22  C   UNL     1      -9.941  -9.166  17.474  0.00  0.00    +0.093 A 
ATOM     23  C   UNL     1      -9.721 -11.581  19.968  0.00  0.00    +0.172 C 
BRANCH  22  24
ATOM     24  C   UNL     1     -10.706  -8.177  16.761  0.00  0.00    +0.006 A 
ATOM     25  C   UNL     1     -12.095  -8.289  16.689  0.00  0.00    +0.059 A 
ATOM     26  C   UNL     1     -10.059  -7.108  16.141  0.00  0.00    +0.014 A 
ATOM     27  C   UNL     1     -12.836  -7.331  15.997  0.00  0.00    +0.162 A 
ATOM     28  C   UNL     1     -10.801  -6.151  15.449  0.00  0.00    +0.050 A 
ATOM     29  C   UNL     1     -12.189  -6.262  15.377  0.00  0.00    +0.162 A 
BRANCH  27   2
ATOM      2  O   UNL     1     -14.192  -7.449  15.934  0.00  0.00    -0.491 OA
ATOM     30  C   UNL     1     -14.720  -8.317  14.933  0.00  0.00    +0.277 C 
ENDBRANCH  27   2
BRANCH  29   3
ATOM      3  O   UNL     1     -12.903  -5.319  14.699  0.00  0.00    -0.491 OA
ATOM     31  C   UNL     1     -12.454  -4.987  13.387  0.00  0.00    +0.277 C 
ENDBRANCH  29   3
ENDBRANCH  22  24
ENDBRANCH   9  16
BRANCH  10  15
ATOM     15  C   UNL     1      -5.552 -11.938  14.865  0.00  0.00    +0.123 C 
BRANCH  15   5
ATOM      1  O   UNL     1      -5.438  -9.784  12.914  0.00  0.00    -0.276 OA
ATOM      5  N   UNL     1      -4.513 -11.674  13.916  0.00  0.00    -0.314 N 
ATOM     21  C   UNL     1      -4.543 -10.615  13.017  0.00  0.00    +0.216 C 
ATOM     32  H   UNL     1      -3.731 -12.322  13.880  0.00  0.00    +0.149 HD
BRANCH  21  17
ATOM     17  C   UNL     1      -3.353 -10.529  12.121  0.00  0.00    +0.075 C 
ATOM     18  C   UNL     1      -1.991 -10.358  12.729  0.00  0.00    +0.013 C 
ATOM     19  C   UNL     1      -2.373 -11.666  12.098  0.00  0.00    +0.013 C 
ENDBRANCH  21  17
ENDBRANCH  15   5
ENDBRANCH  10  15
TORSDOF 7
ENDMDL
MODEL 8
REMARK VINA RESULT:      -6.6     12.200     15.915
REMARK  Name = 40779521
REMARK  10 active torsions:
REMARK  status: ('A' for Active; 'I' for Inactive)
REMARK    1  A    between atoms: O_2  and  C_27
REMARK    2  A    between atoms: O_2  and  C_30
REMARK    3  A    between atoms: O_3  and  C_29
REMARK    4  A    between atoms: O_3  and  C_31
REMARK    5  A    between atoms: N_5  and  C_15
REMARK    6  A    between atoms: N_6  and  C_23
REMARK    7  A    between atoms: C_9  and  C_16
REMARK    8  A    between atoms: C_10  and  C_15
REMARK    9  A    between atoms: C_17  and  C_21
REMARK   10  A    between atoms: C_22  and  C_24
REMARK                            x       y       z     vdW  Elec       q    Type
REMARK                         _______ _______ _______ _____ _____    ______ ____
ROOT
ATOM      4  N   UNL     1      10.545   5.810   7.781  0.00  0.00    -0.297 NA
ATOM      8  C   UNL     1       9.474   7.646   6.276  0.00  0.00    +0.002 C 
ATOM      9  C   UNL     1       9.374   6.255   5.591  0.00  0.00    +0.055 C 
ATOM     10  C   UNL     1      11.480   6.956   7.634  0.00  0.00    +0.074 C 
ATOM     11  C   UNL     1      10.953   7.958   6.584  0.00  0.00    +0.024 C 
ATOM     12  C   UNL     1       8.743   7.529   7.631  0.00  0.00    +0.019 C 
ATOM     13  C   UNL     1      10.206   5.257   6.446  0.00  0.00    +0.094 C 
ATOM     14  C   UNL     1       9.299   6.318   8.402  0.00  0.00    +0.085 C 
ENDROOT
BRANCH   9  16
ATOM      6  N   UNL     1       9.187   7.010   3.175  0.00  0.00    -0.270 N 
ATOM      7  N   UNL     1       9.601   6.756   1.922  0.00  0.00    -0.171 NA
ATOM     16  C   UNL     1       9.703   6.159   4.108  0.00  0.00    +0.044 A 
ATOM     20  C   UNL     1      10.510   5.289   3.417  0.00  0.00    +0.053 A 
ATOM     22  C   UNL     1      10.409   5.704   2.076  0.00  0.00    +0.093 A 
ATOM     23  C   UNL     1       8.275   8.105   3.409  0.00  0.00    +0.172 C 
BRANCH  22  24
ATOM     24  C   UNL     1      11.068   5.115   0.940  0.00  0.00    +0.006 A 
ATOM     25  C   UNL     1      12.381   4.658   1.055  0.00  0.00    +0.059 A 
ATOM     26  C   UNL     1      10.394   5.002  -0.276  0.00  0.00    +0.014 A 
ATOM     27  C   UNL     1      13.020   4.088  -0.046  0.00  0.00    +0.162 A 
ATOM     28  C   UNL     1      11.034   4.431  -1.377  0.00  0.00    +0.050 A 
ATOM     29  C   UNL     1      12.346   3.974  -1.262  0.00  0.00    +0.162 A 
BRANCH  27   2
ATOM      2  O   UNL     1      14.302   3.644   0.079  0.00  0.00    -0.491 OA
ATOM     30  C   UNL     1      14.833   3.558   1.400  0.00  0.00    +0.277 C 
ENDBRANCH  27   2
BRANCH  29   3
ATOM      3  O   UNL     1      12.960   3.418  -2.344  0.00  0.00    -0.491 OA
ATOM     31  C   UNL     1      12.260   2.376  -3.021  0.00  0.00    +0.277 C 
ENDBRANCH  29   3
ENDBRANCH  22  24
ENDBRANCH   9  16
BRANCH  10  15
ATOM     15  C   UNL     1      12.910   6.506   7.325  0.00  0.00    +0.123 C 
BRANCH  15   5
ATOM      1  O   UNL     1      15.436   7.695   6.513  0.00  0.00    -0.276 OA
ATOM      5  N   UNL     1      13.300   6.912   6.009  0.00  0.00    -0.314 N 
ATOM     21  C   UNL     1      14.536   7.473   5.712  0.00  0.00    +0.216 C 
ATOM     32  H   UNL     1      12.618   6.813   5.263  0.00  0.00    +0.149 HD
BRANCH  21  17
ATOM     17  C   UNL     1      14.729   7.820   4.274  0.00  0.00    +0.075 C 
ATOM     18  C   UNL     1      14.675   6.728   3.246  0.00  0.00    +0.013 C 
ATOM     19  C   UNL     1      13.559   7.728   3.337  0.00  0.00    +0.013 C 
ENDBRANCH  21  17
ENDBRANCH  15   5
ENDBRANCH  10  15
TORSDOF 7
ENDMDL
MODEL 9
REMARK VINA RESULT:      -6.5      2.720      7.899
REMARK  Name = 40779521
REMARK  10 active torsions:
REMARK  status: ('A' for Active; 'I' for Inactive)
REMARK    1  A    between atoms: O_2  and  C_27
REMARK    2  A    between atoms: O_2  and  C_30
REMARK    3  A    between atoms: O_3  and  C_29
REMARK    4  A    between atoms: O_3  and  C_31
REMARK    5  A    between atoms: N_5  and  C_15
REMARK    6  A    between atoms: N_6  and  C_23
REMARK    7  A    between atoms: C_9  and  C_16
REMARK    8  A    between atoms: C_10  and  C_15
REMARK    9  A    between atoms: C_17  and  C_21
REMARK   10  A    between atoms: C_22  and  C_24
REMARK                            x       y       z     vdW  Elec       q    Type
REMARK                         _______ _______ _______ _____ _____    ______ ____
ROOT
ATOM      4  N   UNL     1      12.710   9.272  19.513  0.00  0.00    -0.297 NA
ATOM      8  C   UNL     1      13.355   7.530  21.338  0.00  0.00    +0.002 C 
ATOM      9  C   UNL     1      14.361   8.714  21.338  0.00  0.00    +0.055 C 
ATOM     10  C   UNL     1      12.740   7.908  18.924  0.00  0.00    +0.074 C 
ATOM     11  C   UNL     1      13.319   6.892  19.933  0.00  0.00    +0.024 C 
ATOM     12  C   UNL     1      11.958   8.132  21.600  0.00  0.00    +0.019 C 
ATOM     13  C   UNL     1      14.032   9.601  20.102  0.00  0.00    +0.094 C 
ATOM     14  C   UNL     1      11.705   9.276  20.601  0.00  0.00    +0.085 C 
ENDROOT
BRANCH   9  16
ATOM      6  N   UNL     1      16.790   9.340  21.726  0.00  0.00    -0.270 N 
ATOM      7  N   UNL     1      18.042   8.856  21.772  0.00  0.00    -0.171 NA
ATOM     16  C   UNL     1      15.846   8.397  21.443  0.00  0.00    +0.044 A 
ATOM     20  C   UNL     1      16.529   7.215  21.293  0.00  0.00    +0.053 A 
ATOM     22  C   UNL     1      17.877   7.558  21.508  0.00  0.00    +0.093 A 
ATOM     23  C   UNL     1      16.566  10.747  21.965  0.00  0.00    +0.172 C 
BRANCH  22  24
ATOM     24  C   UNL     1      19.009   6.670  21.463  0.00  0.00    +0.006 A 
ATOM     25  C   UNL     1      19.859   6.568  22.565  0.00  0.00    +0.059 A 
ATOM     26  C   UNL     1      19.258   5.912  20.319  0.00  0.00    +0.014 A 
ATOM     27  C   UNL     1      20.957   5.709  22.522  0.00  0.00    +0.162 A 
ATOM     28  C   UNL     1      20.356   5.053  20.277  0.00  0.00    +0.050 A 
ATOM     29  C   UNL     1      21.205   4.951  21.378  0.00  0.00    +0.162 A 
BRANCH  27   2
ATOM      2  O   UNL     1      21.780   5.617  23.605  0.00  0.00    -0.491 OA
ATOM     30  C   UNL     1      22.727   6.667  23.788  0.00  0.00    +0.277 C 
ENDBRANCH  27   2
BRANCH  29   3
ATOM      3  O   UNL     1      22.274   4.107  21.325  0.00  0.00    -0.491 OA
ATOM     31  C   UNL     1      23.384   4.517  20.529  0.00  0.00    +0.277 C 
ENDBRANCH  29   3
ENDBRANCH  22  24
ENDBRANCH   9  16
BRANCH  10  15
ATOM     15  C   UNL     1      13.480   7.867  17.586  0.00  0.00    +0.123 C 
BRANCH  15   5
ATOM      1  O   UNL     1      14.521   8.576  14.964  0.00  0.00    -0.276 OA
ATOM      5  N   UNL     1      13.523   9.166  16.986  0.00  0.00    -0.314 N 
ATOM     21  C   UNL     1      14.041   9.412  15.721  0.00  0.00    +0.216 C 
ATOM     32  H   UNL     1      13.186   9.951  17.536  0.00  0.00    +0.149 HD
BRANCH  21  17
ATOM     17  C   UNL     1      13.983  10.842  15.295  0.00  0.00    +0.075 C 
ATOM     18  C   UNL     1      14.651  11.884  16.144  0.00  0.00    +0.013 C 
ATOM     19  C   UNL     1      15.237  11.511  14.813  0.00  0.00    +0.013 C 
ENDBRANCH  21  17
ENDBRANCH  15   5
ENDBRANCH  10  15
TORSDOF 7
ENDMDL
MODEL 10
REMARK VINA RESULT:      -6.4     26.866     29.452
REMARK  Name = 40779521
REMARK  10 active torsions:
REMARK  status: ('A' for Active; 'I' for Inactive)
REMARK    1  A    between atoms: O_2  and  C_27
REMARK    2  A    between atoms: O_2  and  C_30
REMARK    3  A    between atoms: O_3  and  C_29
REMARK    4  A    between atoms: O_3  and  C_31
REMARK    5  A    between atoms: N_5  and  C_15
REMARK    6  A    between atoms: N_6  and  C_23
REMARK    7  A    between atoms: C_9  and  C_16
REMARK    8  A    between atoms: C_10  and  C_15
REMARK    9  A    between atoms: C_17  and  C_21
REMARK   10  A    between atoms: C_22  and  C_24
REMARK                            x       y       z     vdW  Elec       q    Type
REMARK                         _______ _______ _______ _____ _____    ______ ____
ROOT
ATOM      4  N   UNL     1      -6.494 -10.866  18.356  0.00  0.00    -0.297 NA
ATOM      8  C   UNL     1      -4.475 -12.261  17.485  0.00  0.00    +0.002 C 
ATOM      9  C   UNL     1      -4.423 -10.816  16.915  0.00  0.00    +0.055 C 
ATOM     10  C   UNL     1      -6.971 -12.163  17.810  0.00  0.00    +0.074 C 
ATOM     11  C   UNL     1      -5.820 -12.912  17.103  0.00  0.00    +0.024 C 
ATOM     12  C   UNL     1      -4.452 -12.134  19.023  0.00  0.00    +0.019 C 
ATOM     13  C   UNL     1      -5.754 -10.114  17.312  0.00  0.00    +0.094 C 
ATOM     14  C   UNL     1      -5.557 -11.158  19.467  0.00  0.00    +0.085 C 
ENDROOT
BRANCH   9  16
ATOM      6  N   UNL     1      -2.819 -10.668  14.954  0.00  0.00    -0.270 N 
ATOM      7  N   UNL     1      -2.741 -10.488  13.625  0.00  0.00    -0.171 NA
ATOM     16  C   UNL     1      -4.093 -10.636  15.440  0.00  0.00    +0.044 A 
ATOM     20  C   UNL     1      -4.904 -10.420  14.354  0.00  0.00    +0.053 A 
ATOM     22  C   UNL     1      -4.017 -10.337  13.263  0.00  0.00    +0.093 A 
ATOM     23  C   UNL     1      -1.605 -10.867  15.713  0.00  0.00    +0.172 C 
BRANCH  22  24
ATOM     24  C   UNL     1      -4.365 -10.116  11.884  0.00  0.00    +0.006 A 
ATOM     25  C   UNL     1      -5.704 -10.133  11.492  0.00  0.00    +0.059 A 
ATOM     26  C   UNL     1      -3.365  -9.885  10.940  0.00  0.00    +0.014 A 
ATOM     27  C   UNL     1      -6.042  -9.919  10.156  0.00  0.00    +0.162 A 
ATOM     28  C   UNL     1      -3.704  -9.671   9.604  0.00  0.00    +0.050 A 
ATOM     29  C   UNL     1      -5.042  -9.688   9.212  0.00  0.00    +0.162 A 
BRANCH  27   2
ATOM      2  O   UNL     1      -7.353  -9.938   9.784  0.00  0.00    -0.491 OA
ATOM     30  C   UNL     1      -8.306  -9.494  10.748  0.00  0.00    +0.277 C 
ENDBRANCH  27   2
BRANCH  29   3
ATOM      3  O   UNL     1      -5.360  -9.477   7.903  0.00  0.00    -0.491 OA
ATOM     31  C   UNL     1      -5.208 -10.581   7.014  0.00  0.00    +0.277 C 
ENDBRANCH  29   3
ENDBRANCH  22  24
ENDBRANCH   9  16
BRANCH  10  15
ATOM     15  C   UNL     1      -8.189 -11.998  16.898  0.00  0.00    +0.123 C 
BRANCH  15   5
ATOM      1  O   UNL     1      -8.571 -10.737  14.305  0.00  0.00    -0.276 OA
ATOM      5  N   UNL     1      -7.940 -12.564  15.607  0.00  0.00    -0.314 N 
ATOM     21  C   UNL     1      -8.152 -11.883  14.414  0.00  0.00    +0.216 C 
ATOM     32  H   UNL     1      -7.625 -13.529  15.568  0.00  0.00    +0.149 HD
BRANCH  21  17
ATOM     17  C   UNL     1      -7.825 -12.667  13.187  0.00  0.00    +0.075 C 
ATOM     18  C   UNL     1      -6.548 -13.455  13.143  0.00  0.00    +0.013 C 
ATOM     19  C   UNL     1      -7.865 -14.167  13.246  0.00  0.00    +0.013 C 
ENDBRANCH  21  17
ENDBRANCH  15   5
ENDBRANCH  10  15
TORSDOF 7
ENDMDL
