MODEL 1
REMARK VINA RESULT:      -7.3      0.000      0.000
REMARK  Name = 75536524
REMARK  13 active torsions:
REMARK  status: ('A' for Active; 'I' for Inactive)
REMARK    1  A    between atoms: O_2  and  C_9
REMARK    2  A    between atoms: O_4  and  C_26
REMARK    3  A    between atoms: N_6  and  C_8
REMARK    4  A    between atoms: N_6  and  C_14
REMARK    5  A    between atoms: N_7  and  C_12
REMARK    6  A    between atoms: C_10  and  C_12
REMARK    7  A    between atoms: C_13  and  C_15
REMARK    8  A    between atoms: C_13  and  C_17
REMARK    9  A    between atoms: C_13  and  C_18
REMARK   10  A    between atoms: C_13  and  C_19
REMARK   11  A    between atoms: C_14  and  C_20
REMARK   12  A    between atoms: C_15  and  C_16
REMARK   13  A    between atoms: C_25  and  C_26
REMARK                            x       y       z     vdW  Elec       q    Type
REMARK                         _______ _______ _______ _____ _____    ______ ____
ROOT
ATOM      1  O   UNL     1      10.686   8.637  20.048  0.00  0.00    -0.371 OA
ATOM      8  C   UNL     1      12.479   7.240  19.358  0.00  0.00    +0.111 C 
ATOM      9  C   UNL     1      12.354   7.174  20.868  0.00  0.00    +0.164 C 
ATOM     10  C   UNL     1      10.921   7.648  21.065  0.00  0.00    +0.165 C 
ATOM     11  C   UNL     1      11.712   8.516  19.047  0.00  0.00    +0.181 C 
ENDROOT
BRANCH   9   2
ATOM      2  O   UNL     1      12.553   5.869  21.376  0.00  0.00    -0.388 OA
ATOM     29  H   UNL     1      13.508   5.727  21.489  0.00  0.00    +0.210 HD
ENDBRANCH   9   2
BRANCH   8   6
ATOM      6  N   UNL     1      13.855   7.279  18.887  0.00  0.00    -0.305 NA
ATOM     27  H   UNL     1      13.872   7.664  17.943  0.00  0.00    +0.123 HD
BRANCH   6  14
ATOM     14  C   UNL     1      14.682   8.112  19.752  0.00  0.00    +0.116 C 
BRANCH  14  20
ATOM     20  C   UNL     1      16.038   7.501  19.988  0.00  0.00    -0.034 A 
ATOM     21  C   UNL     1      16.435   6.383  19.253  0.00  0.00    +0.006 A 
ATOM     22  C   UNL     1      16.895   8.050  20.942  0.00  0.00    +0.006 A 
ATOM     23  C   UNL     1      17.691   5.816  19.472  0.00  0.00    +0.015 A 
ATOM     24  C   UNL     1      18.150   7.483  21.159  0.00  0.00    +0.015 A 
ATOM     25  C   UNL     1      18.548   6.365  20.424  0.00  0.00    +0.059 A 
BRANCH  25  26
ATOM      5  O   UNL     1      20.602   6.028  21.605  0.00  0.00    -0.245 OA
ATOM     26  C   UNL     1      19.857   5.775  20.652  0.00  0.00    +0.337 C 
BRANCH  26   4
ATOM      4  O   UNL     1      20.203   4.883  19.683  0.00  0.00    -0.477 OA
ATOM     30  H   UNL     1      19.884   3.978  19.888  0.00  0.00    +0.295 HD
ENDBRANCH  26   4
ENDBRANCH  25  26
ENDBRANCH  14  20
ENDBRANCH   6  14
ENDBRANCH   8   6
BRANCH  10  12
ATOM     12  C   UNL     1      10.671   8.252  22.436  0.00  0.00    +0.138 C 
BRANCH  12   7
ATOM      3  O   UNL     1      12.707  10.298  22.695  0.00  0.00    -0.276 OA
ATOM      7  N   UNL     1      10.491   9.685  22.357  0.00  0.00    -0.313 N 
ATOM     16  C   UNL     1      11.530  10.589  22.494  0.00  0.00    +0.214 C 
ATOM     28  H   UNL     1       9.551  10.029  22.183  0.00  0.00    +0.149 HD
BRANCH  16  15
ATOM     15  C   UNL     1      11.078  12.036  22.381  0.00  0.00    +0.102 C 
BRANCH  15  13
ATOM     13  C   UNL     1      11.145  12.840  23.701  0.00  0.00    -0.029 C 
ATOM     17  C   UNL     1      10.918  11.936  24.924  0.00  0.00    +0.011 C 
ATOM     18  C   UNL     1      10.031  13.905  23.668  0.00  0.00    +0.011 C 
ATOM     19  C   UNL     1      12.498  13.557  23.845  0.00  0.00    +0.011 C 
ENDBRANCH  15  13
ENDBRANCH  16  15
ENDBRANCH  12   7
ENDBRANCH  10  12
TORSDOF 10
ENDMDL
MODEL 2
REMARK VINA RESULT:      -6.3      1.366      2.062
REMARK  Name = 75536524
REMARK  13 active torsions:
REMARK  status: ('A' for Active; 'I' for Inactive)
REMARK    1  A    between atoms: O_2  and  C_9
REMARK    2  A    between atoms: O_4  and  C_26
REMARK    3  A    between atoms: N_6  and  C_8
REMARK    4  A    between atoms: N_6  and  C_14
REMARK    5  A    between atoms: N_7  and  C_12
REMARK    6  A    between atoms: C_10  and  C_12
REMARK    7  A    between atoms: C_13  and  C_15
REMARK    8  A    between atoms: C_13  and  C_17
REMARK    9  A    between atoms: C_13  and  C_18
REMARK   10  A    between atoms: C_13  and  C_19
REMARK   11  A    between atoms: C_14  and  C_20
REMARK   12  A    between atoms: C_15  and  C_16
REMARK   13  A    between atoms: C_25  and  C_26
REMARK                            x       y       z     vdW  Elec       q    Type
REMARK                         _______ _______ _______ _____ _____    ______ ____
ROOT
ATOM      1  O   UNL     1      12.244   9.529  18.947  0.00  0.00    -0.371 OA
ATOM      8  C   UNL     1      13.511   7.556  18.564  0.00  0.00    +0.111 C 
ATOM      9  C   UNL     1      12.643   7.355  19.792  0.00  0.00    +0.164 C 
ATOM     10  C   UNL     1      11.576   8.420  19.575  0.00  0.00    +0.165 C 
ATOM     11  C   UNL     1      13.509   9.072  18.438  0.00  0.00    +0.181 C 
ENDROOT
BRANCH   9   2
ATOM      2  O   UNL     1      12.086   6.057  19.859  0.00  0.00    -0.388 OA
ATOM     29  H   UNL     1      11.802   5.894  20.775  0.00  0.00    +0.210 HD
ENDBRANCH   9   2
BRANCH   8   6
ATOM      6  N   UNL     1      14.849   7.002  18.698  0.00  0.00    -0.305 NA
ATOM     27  H   UNL     1      15.431   7.349  17.937  0.00  0.00    +0.123 HD
BRANCH   6  14
ATOM     14  C   UNL     1      15.453   7.390  19.968  0.00  0.00    +0.116 C 
BRANCH  14  20
ATOM     20  C   UNL     1      16.847   6.840  20.116  0.00  0.00    -0.034 A 
ATOM     21  C   UNL     1      17.675   7.307  21.137  0.00  0.00    +0.006 A 
ATOM     22  C   UNL     1      17.310   5.865  19.232  0.00  0.00    +0.006 A 
ATOM     23  C   UNL     1      18.967   6.798  21.274  0.00  0.00    +0.015 A 
ATOM     24  C   UNL     1      18.601   5.357  19.370  0.00  0.00    +0.015 A 
ATOM     25  C   UNL     1      19.430   5.823  20.391  0.00  0.00    +0.059 A 
BRANCH  25  26
ATOM      5  O   UNL     1      21.061   4.167  20.960  0.00  0.00    -0.245 OA
ATOM     26  C   UNL     1      20.776   5.292  20.534  0.00  0.00    +0.337 C 
BRANCH  26   4
ATOM      4  O   UNL     1      21.731   6.178  20.141  0.00  0.00    -0.477 OA
ATOM     30  H   UNL     1      22.205   6.568  20.907  0.00  0.00    +0.295 HD
ENDBRANCH  26   4
ENDBRANCH  25  26
ENDBRANCH  14  20
ENDBRANCH   6  14
ENDBRANCH   8   6
BRANCH  10  12
ATOM     12  C   UNL     1      10.917   8.880  20.862  0.00  0.00    +0.138 C 
BRANCH  12   7
ATOM      3  O   UNL     1      11.175  11.678  21.570  0.00  0.00    -0.276 OA
ATOM      7  N   UNL     1      11.878   9.472  21.766  0.00  0.00    -0.313 N 
ATOM     16  C   UNL     1      11.924  10.827  22.044  0.00  0.00    +0.214 C 
ATOM     28  H   UNL     1      12.538   8.848  22.220  0.00  0.00    +0.149 HD
BRANCH  16  15
ATOM     15  C   UNL     1      13.031  11.197  23.018  0.00  0.00    +0.102 C 
BRANCH  15  13
ATOM     13  C   UNL     1      12.555  11.962  24.277  0.00  0.00    -0.029 C 
ATOM     17  C   UNL     1      12.287  13.445  23.967  0.00  0.00    +0.011 C 
ATOM     18  C   UNL     1      13.672  11.879  25.335  0.00  0.00    +0.011 C 
ATOM     19  C   UNL     1      11.282  11.328  24.862  0.00  0.00    +0.011 C 
ENDBRANCH  15  13
ENDBRANCH  16  15
ENDBRANCH  12   7
ENDBRANCH  10  12
TORSDOF 10
ENDMDL
MODEL 3
REMARK VINA RESULT:      -6.3      1.812      2.588
REMARK  Name = 75536524
REMARK  13 active torsions:
REMARK  status: ('A' for Active; 'I' for Inactive)
REMARK    1  A    between atoms: O_2  and  C_9
REMARK    2  A    between atoms: O_4  and  C_26
REMARK    3  A    between atoms: N_6  and  C_8
REMARK    4  A    between atoms: N_6  and  C_14
REMARK    5  A    between atoms: N_7  and  C_12
REMARK    6  A    between atoms: C_10  and  C_12
REMARK    7  A    between atoms: C_13  and  C_15
REMARK    8  A    between atoms: C_13  and  C_17
REMARK    9  A    between atoms: C_13  and  C_18
REMARK   10  A    between atoms: C_13  and  C_19
REMARK   11  A    between atoms: C_14  and  C_20
REMARK   12  A    between atoms: C_15  and  C_16
REMARK   13  A    between atoms: C_25  and  C_26
REMARK                            x       y       z     vdW  Elec       q    Type
REMARK                         _______ _______ _______ _____ _____    ______ ____
ROOT
ATOM      1  O   UNL     1      13.762   7.925  18.494  0.00  0.00    -0.371 OA
ATOM      8  C   UNL     1      14.634   6.582  20.249  0.00  0.00    +0.111 C 
ATOM      9  C   UNL     1      13.233   7.032  20.620  0.00  0.00    +0.164 C 
ATOM     10  C   UNL     1      12.666   7.384  19.252  0.00  0.00    +0.165 C 
ATOM     11  C   UNL     1      14.991   7.577  19.156  0.00  0.00    +0.181 C 
ENDROOT
BRANCH   9   2
ATOM      2  O   UNL     1      12.484   6.016  21.257  0.00  0.00    -0.388 OA
ATOM     29  H   UNL     1      11.841   5.664  20.618  0.00  0.00    +0.210 HD
ENDBRANCH   9   2
BRANCH   8   6
ATOM      6  N   UNL     1      15.569   6.606  21.363  0.00  0.00    -0.305 NA
ATOM     27  H   UNL     1      15.974   5.677  21.476  0.00  0.00    +0.123 HD
BRANCH   6  14
ATOM     14  C   UNL     1      16.644   7.564  21.125  0.00  0.00    +0.116 C 
BRANCH  14  20
ATOM     20  C   UNL     1      17.990   6.892  21.074  0.00  0.00    -0.034 A 
ATOM     21  C   UNL     1      18.243   5.911  20.114  0.00  0.00    +0.006 A 
ATOM     22  C   UNL     1      18.984   7.250  21.985  0.00  0.00    +0.006 A 
ATOM     23  C   UNL     1      19.490   5.288  20.067  0.00  0.00    +0.015 A 
ATOM     24  C   UNL     1      20.231   6.627  21.937  0.00  0.00    +0.015 A 
ATOM     25  C   UNL     1      20.484   5.645  20.977  0.00  0.00    +0.059 A 
BRANCH  25  26
ATOM      5  O   UNL     1      22.451   4.651  21.909  0.00  0.00    -0.245 OA
ATOM     26  C   UNL     1      21.784   4.997  20.927  0.00  0.00    +0.337 C 
BRANCH  26   4
ATOM      4  O   UNL     1      22.219   4.798  19.653  0.00  0.00    -0.477 OA
ATOM     30  H   UNL     1      21.800   4.011  19.242  0.00  0.00    +0.295 HD
ENDBRANCH  26   4
ENDBRANCH  25  26
ENDBRANCH  14  20
ENDBRANCH   6  14
ENDBRANCH   8   6
BRANCH  10  12
ATOM     12  C   UNL     1      11.535   8.396  19.313  0.00  0.00    +0.138 C 
BRANCH  12   7
ATOM      3  O   UNL     1      10.861   9.541  21.887  0.00  0.00    -0.276 OA
ATOM      7  N   UNL     1      11.985   9.658  19.857  0.00  0.00    -0.313 N 
ATOM     16  C   UNL     1      11.607  10.124  21.104  0.00  0.00    +0.214 C 
ATOM     28  H   UNL     1      12.616  10.214  19.288  0.00  0.00    +0.149 HD
BRANCH  16  15
ATOM     15  C   UNL     1      12.207  11.480  21.439  0.00  0.00    +0.102 C 
BRANCH  15  13
ATOM     13  C   UNL     1      13.300  11.451  22.534  0.00  0.00    -0.029 C 
ATOM     17  C   UNL     1      12.691  11.575  23.941  0.00  0.00    +0.011 C 
ATOM     18  C   UNL     1      14.240  12.650  22.302  0.00  0.00    +0.011 C 
ATOM     19  C   UNL     1      14.131  10.159  22.454  0.00  0.00    +0.011 C 
ENDBRANCH  15  13
ENDBRANCH  16  15
ENDBRANCH  12   7
ENDBRANCH  10  12
TORSDOF 10
ENDMDL
MODEL 4
REMARK VINA RESULT:      -6.2     27.623     29.817
REMARK  Name = 75536524
REMARK  13 active torsions:
REMARK  status: ('A' for Active; 'I' for Inactive)
REMARK    1  A    between atoms: O_2  and  C_9
REMARK    2  A    between atoms: O_4  and  C_26
REMARK    3  A    between atoms: N_6  and  C_8
REMARK    4  A    between atoms: N_6  and  C_14
REMARK    5  A    between atoms: N_7  and  C_12
REMARK    6  A    between atoms: C_10  and  C_12
REMARK    7  A    between atoms: C_13  and  C_15
REMARK    8  A    between atoms: C_13  and  C_17
REMARK    9  A    between atoms: C_13  and  C_18
REMARK   10  A    between atoms: C_13  and  C_19
REMARK   11  A    between atoms: C_14  and  C_20
REMARK   12  A    between atoms: C_15  and  C_16
REMARK   13  A    between atoms: C_25  and  C_26
REMARK                            x       y       z     vdW  Elec       q    Type
REMARK                         _______ _______ _______ _____ _____    ______ ____
ROOT
ATOM      1  O   UNL     1     -12.250  -9.088  16.505  0.00  0.00    -0.371 OA
ATOM      8  C   UNL     1     -10.353  -8.032  17.470  0.00  0.00    +0.111 C 
ATOM      9  C   UNL     1     -10.643  -7.395  16.124  0.00  0.00    +0.164 C 
ATOM     10  C   UNL     1     -12.102  -7.781  15.924  0.00  0.00    +0.165 C 
ATOM     11  C   UNL     1     -11.116  -9.342  17.353  0.00  0.00    +0.181 C 
ENDROOT
BRANCH   9   2
ATOM      2  O   UNL     1     -10.465  -5.991  16.136  0.00  0.00    -0.388 OA
ATOM     29  H   UNL     1     -10.963  -5.627  16.887  0.00  0.00    +0.210 HD
ENDBRANCH   9   2
BRANCH   8   6
ATOM      6  N   UNL     1      -8.935  -8.225  17.731  0.00  0.00    -0.305 NA
ATOM     27  H   UNL     1      -8.822  -8.648  18.652  0.00  0.00    +0.123 HD
BRANCH   6  14
ATOM     14  C   UNL     1      -8.332  -9.100  16.732  0.00  0.00    +0.116 C 
BRANCH  14  20
ATOM     20  C   UNL     1      -7.251  -9.965  17.326  0.00  0.00    -0.034 A 
ATOM     21  C   UNL     1      -7.568 -10.890  18.321  0.00  0.00    +0.006 A 
ATOM     22  C   UNL     1      -5.934  -9.840  16.882  0.00  0.00    +0.006 A 
ATOM     23  C   UNL     1      -6.567 -11.691  18.872  0.00  0.00    +0.015 A 
ATOM     24  C   UNL     1      -4.935 -10.641  17.432  0.00  0.00    +0.015 A 
ATOM     25  C   UNL     1      -5.250 -11.566  18.428  0.00  0.00    +0.059 A 
BRANCH  25  26
ATOM      5  O   UNL     1      -3.383 -12.039  19.848  0.00  0.00    -0.245 OA
ATOM     26  C   UNL     1      -4.207 -12.401  19.000  0.00  0.00    +0.337 C 
BRANCH  26   4
ATOM      4  O   UNL     1      -4.219 -13.667  18.500  0.00  0.00    -0.477 OA
ATOM     30  H   UNL     1      -3.383 -14.144  18.690  0.00  0.00    +0.295 HD
ENDBRANCH  26   4
ENDBRANCH  25  26
ENDBRANCH  14  20
ENDBRANCH   6  14
ENDBRANCH   8   6
BRANCH  10  12
ATOM     12  C   UNL     1     -12.518  -7.818  14.465  0.00  0.00    +0.138 C 
BRANCH  12   7
ATOM      3  O   UNL     1     -14.111  -5.438  14.024  0.00  0.00    -0.276 OA
ATOM      7  N   UNL     1     -12.122  -6.612  13.772  0.00  0.00    -0.313 N 
ATOM     16  C   UNL     1     -12.957  -5.520  13.610  0.00  0.00    +0.214 C 
ATOM     28  H   UNL     1     -11.178  -6.576  13.399  0.00  0.00    +0.149 HD
BRANCH  16  15
ATOM     15  C   UNL     1     -12.307  -4.384  12.838  0.00  0.00    +0.102 C 
BRANCH  15  13
ATOM     13  C   UNL     1     -12.817  -4.212  11.387  0.00  0.00    -0.029 C 
ATOM     17  C   UNL     1     -11.740  -3.595  10.480  0.00  0.00    +0.011 C 
ATOM     18  C   UNL     1     -14.031  -3.263  11.418  0.00  0.00    +0.011 C 
ATOM     19  C   UNL     1     -13.268  -5.558  10.796  0.00  0.00    +0.011 C 
ENDBRANCH  15  13
ENDBRANCH  16  15
ENDBRANCH  12   7
ENDBRANCH  10  12
TORSDOF 10
ENDMDL
MODEL 5
REMARK VINA RESULT:      -6.1     26.072     29.573
REMARK  Name = 75536524
REMARK  13 active torsions:
REMARK  status: ('A' for Active; 'I' for Inactive)
REMARK    1  A    between atoms: O_2  and  C_9
REMARK    2  A    between atoms: O_4  and  C_26
REMARK    3  A    between atoms: N_6  and  C_8
REMARK    4  A    between atoms: N_6  and  C_14
REMARK    5  A    between atoms: N_7  and  C_12
REMARK    6  A    between atoms: C_10  and  C_12
REMARK    7  A    between atoms: C_13  and  C_15
REMARK    8  A    between atoms: C_13  and  C_17
REMARK    9  A    between atoms: C_13  and  C_18
REMARK   10  A    between atoms: C_13  and  C_19
REMARK   11  A    between atoms: C_14  and  C_20
REMARK   12  A    between atoms: C_15  and  C_16
REMARK   13  A    between atoms: C_25  and  C_26
REMARK                            x       y       z     vdW  Elec       q    Type
REMARK                         _______ _______ _______ _____ _____    ______ ____
ROOT
ATOM      1  O   UNL     1     -17.841   5.386  24.850  0.00  0.00    -0.371 OA
ATOM      8  C   UNL     1     -15.812   5.086  23.651  0.00  0.00    +0.111 C 
ATOM      9  C   UNL     1     -15.872   4.077  24.782  0.00  0.00    +0.164 C 
ATOM     10  C   UNL     1     -17.367   4.047  25.069  0.00  0.00    +0.165 C 
ATOM     11  C   UNL     1     -16.844   6.107  24.103  0.00  0.00    +0.181 C 
ENDROOT
BRANCH   9   2
ATOM      2  O   UNL     1     -15.382   2.805  24.404  0.00  0.00    -0.388 OA
ATOM     29  H   UNL     1     -16.100   2.318  23.966  0.00  0.00    +0.210 HD
ENDBRANCH   9   2
BRANCH   8   6
ATOM      6  N   UNL     1     -14.492   5.665  23.456  0.00  0.00    -0.305 NA
ATOM     27  H   UNL     1     -13.847   5.259  24.132  0.00  0.00    +0.123 HD
BRANCH   6  14
ATOM     14  C   UNL     1     -13.995   5.397  22.111  0.00  0.00    +0.116 C 
BRANCH  14  20
ATOM     20  C   UNL     1     -13.277   6.587  21.531  0.00  0.00    -0.034 A 
ATOM     21  C   UNL     1     -12.038   6.418  20.911  0.00  0.00    +0.006 A 
ATOM     22  C   UNL     1     -13.848   7.857  21.617  0.00  0.00    +0.006 A 
ATOM     23  C   UNL     1     -11.372   7.521  20.375  0.00  0.00    +0.015 A 
ATOM     24  C   UNL     1     -13.181   8.958  21.081  0.00  0.00    +0.015 A 
ATOM     25  C   UNL     1     -11.943   8.790  20.460  0.00  0.00    +0.059 A 
BRANCH  25  26
ATOM      5  O   UNL     1     -11.646  11.109  19.948  0.00  0.00    -0.245 OA
ATOM     26  C   UNL     1     -11.249   9.939  19.901  0.00  0.00    +0.337 C 
BRANCH  26   4
ATOM      4  O   UNL     1     -10.079   9.597  19.296  0.00  0.00    -0.477 OA
ATOM     30  H   UNL     1      -9.300   9.853  19.836  0.00  0.00    +0.295 HD
ENDBRANCH  26   4
ENDBRANCH  25  26
ENDBRANCH  14  20
ENDBRANCH   6  14
ENDBRANCH   8   6
BRANCH  10  12
ATOM     12  C   UNL     1     -17.697   3.611  26.486  0.00  0.00    +0.138 C 
BRANCH  12   7
ATOM      3  O   UNL     1     -17.192   4.102  29.296  0.00  0.00    -0.276 OA
ATOM      7  N   UNL     1     -16.501   3.289  27.232  0.00  0.00    -0.313 N 
ATOM     16  C   UNL     1     -16.351   3.563  28.580  0.00  0.00    +0.214 C 
ATOM     28  H   UNL     1     -15.747   2.830  26.730  0.00  0.00    +0.149 HD
BRANCH  16  15
ATOM     15  C   UNL     1     -14.999   3.135  29.127  0.00  0.00    +0.102 C 
BRANCH  15  13
ATOM     13  C   UNL     1     -15.047   1.933  30.102  0.00  0.00    -0.029 C 
ATOM     17  C   UNL     1     -13.699   1.195  30.153  0.00  0.00    +0.011 C 
ATOM     18  C   UNL     1     -16.122   0.952  29.596  0.00  0.00    +0.011 C 
ATOM     19  C   UNL     1     -15.431   2.386  31.520  0.00  0.00    +0.011 C 
ENDBRANCH  15  13
ENDBRANCH  16  15
ENDBRANCH  12   7
ENDBRANCH  10  12
TORSDOF 10
ENDMDL
MODEL 6
REMARK VINA RESULT:      -6.0     26.505     28.777
REMARK  Name = 75536524
REMARK  13 active torsions:
REMARK  status: ('A' for Active; 'I' for Inactive)
REMARK    1  A    between atoms: O_2  and  C_9
REMARK    2  A    between atoms: O_4  and  C_26
REMARK    3  A    between atoms: N_6  and  C_8
REMARK    4  A    between atoms: N_6  and  C_14
REMARK    5  A    between atoms: N_7  and  C_12
REMARK    6  A    between atoms: C_10  and  C_12
REMARK    7  A    between atoms: C_13  and  C_15
REMARK    8  A    between atoms: C_13  and  C_17
REMARK    9  A    between atoms: C_13  and  C_18
REMARK   10  A    between atoms: C_13  and  C_19
REMARK   11  A    between atoms: C_14  and  C_20
REMARK   12  A    between atoms: C_15  and  C_16
REMARK   13  A    between atoms: C_25  and  C_26
REMARK                            x       y       z     vdW  Elec       q    Type
REMARK                         _______ _______ _______ _____ _____    ______ ____
ROOT
ATOM      1  O   UNL     1      -2.107 -11.150  12.513  0.00  0.00    -0.371 OA
ATOM      8  C   UNL     1      -1.738 -11.722  14.788  0.00  0.00    +0.111 C 
ATOM      9  C   UNL     1      -2.527 -12.832  14.121  0.00  0.00    +0.164 C 
ATOM     10  C   UNL     1      -2.212 -12.577  12.654  0.00  0.00    +0.165 C 
ATOM     11  C   UNL     1      -1.961 -10.570  13.821  0.00  0.00    +0.181 C 
ENDROOT
BRANCH   9   2
ATOM      2  O   UNL     1      -2.113 -14.120  14.535  0.00  0.00    -0.388 OA
ATOM     29  H   UNL     1      -1.185 -14.241  14.273  0.00  0.00    +0.210 HD
ENDBRANCH   9   2
BRANCH   8   6
ATOM      6  N   UNL     1      -2.182 -11.419  16.140  0.00  0.00    -0.305 NA
ATOM     27  H   UNL     1      -1.388 -11.086  16.684  0.00  0.00    +0.123 HD
BRANCH   6  14
ATOM     14  C   UNL     1      -3.215 -10.389  16.134  0.00  0.00    +0.116 C 
BRANCH  14  20
ATOM     20  C   UNL     1      -4.347 -10.726  17.067  0.00  0.00    -0.034 A 
ATOM     21  C   UNL     1      -5.639 -10.279  16.785  0.00  0.00    +0.006 A 
ATOM     22  C   UNL     1      -4.105 -11.483  18.214  0.00  0.00    +0.006 A 
ATOM     23  C   UNL     1      -6.688 -10.590  17.650  0.00  0.00    +0.015 A 
ATOM     24  C   UNL     1      -5.155 -11.795  19.077  0.00  0.00    +0.015 A 
ATOM     25  C   UNL     1      -6.447 -11.348  18.796  0.00  0.00    +0.059 A 
BRANCH  25  26
ATOM      5  O   UNL     1      -7.833 -12.810  20.087  0.00  0.00    -0.245 OA
ATOM     26  C   UNL     1      -7.540 -11.674  19.697  0.00  0.00    +0.337 C 
BRANCH  26   4
ATOM      4  O   UNL     1      -8.240 -10.574  20.087  0.00  0.00    -0.477 OA
ATOM     30  H   UNL     1      -9.106 -10.812  20.481  0.00  0.00    +0.295 HD
ENDBRANCH  26   4
ENDBRANCH  25  26
ENDBRANCH  14  20
ENDBRANCH   6  14
ENDBRANCH   8   6
BRANCH  10  12
ATOM     12  C   UNL     1      -3.274 -13.111  11.710  0.00  0.00    +0.138 C 
BRANCH  12   7
ATOM      3  O   UNL     1      -4.041 -12.528   8.978  0.00  0.00    -0.276 OA
ATOM      7  N   UNL     1      -4.150 -12.056  11.250  0.00  0.00    -0.313 N 
ATOM     16  C   UNL     1      -4.460 -11.855   9.917  0.00  0.00    +0.214 C 
ATOM     28  H   UNL     1      -4.559 -11.448  11.954  0.00  0.00    +0.149 HD
BRANCH  16  15
ATOM     15  C   UNL     1      -5.395 -10.677   9.695  0.00  0.00    +0.102 C 
BRANCH  15  13
ATOM     13  C   UNL     1      -4.871  -9.324  10.236  0.00  0.00    -0.029 C 
ATOM     17  C   UNL     1      -5.136  -9.181  11.744  0.00  0.00    +0.011 C 
ATOM     18  C   UNL     1      -5.618  -8.195   9.500  0.00  0.00    +0.011 C 
ATOM     19  C   UNL     1      -3.365  -9.166   9.969  0.00  0.00    +0.011 C 
ENDBRANCH  15  13
ENDBRANCH  16  15
ENDBRANCH  12   7
ENDBRANCH  10  12
TORSDOF 10
ENDMDL
MODEL 7
REMARK VINA RESULT:      -6.0     26.672     28.256
REMARK  Name = 75536524
REMARK  13 active torsions:
REMARK  status: ('A' for Active; 'I' for Inactive)
REMARK    1  A    between atoms: O_2  and  C_9
REMARK    2  A    between atoms: O_4  and  C_26
REMARK    3  A    between atoms: N_6  and  C_8
REMARK    4  A    between atoms: N_6  and  C_14
REMARK    5  A    between atoms: N_7  and  C_12
REMARK    6  A    between atoms: C_10  and  C_12
REMARK    7  A    between atoms: C_13  and  C_15
REMARK    8  A    between atoms: C_13  and  C_17
REMARK    9  A    between atoms: C_13  and  C_18
REMARK   10  A    between atoms: C_13  and  C_19
REMARK   11  A    between atoms: C_14  and  C_20
REMARK   12  A    between atoms: C_15  and  C_16
REMARK   13  A    between atoms: C_25  and  C_26
REMARK                            x       y       z     vdW  Elec       q    Type
REMARK                         _______ _______ _______ _____ _____    ______ ____
ROOT
ATOM      1  O   UNL     1      -5.206 -11.426  19.221  0.00  0.00    -0.371 OA
ATOM      8  C   UNL     1      -3.947 -11.063  17.239  0.00  0.00    +0.111 C 
ATOM      9  C   UNL     1      -5.363 -10.564  17.024  0.00  0.00    +0.164 C 
ATOM     10  C   UNL     1      -5.831 -10.378  18.460  0.00  0.00    +0.165 C 
ATOM     11  C   UNL     1      -4.128 -11.976  18.442  0.00  0.00    +0.181 C 
ENDROOT
BRANCH   9   2
ATOM      2  O   UNL     1      -5.410  -9.354  16.292  0.00  0.00    -0.388 OA
ATOM     29  H   UNL     1      -5.801  -9.538  15.421  0.00  0.00    +0.210 HD
ENDBRANCH   9   2
BRANCH   8   6
ATOM      6  N   UNL     1      -3.388 -11.751  16.086  0.00  0.00    -0.305 NA
ATOM     27  H   UNL     1      -4.142 -11.981  15.439  0.00  0.00    +0.123 HD
BRANCH   6  14
ATOM     14  C   UNL     1      -2.414 -10.913  15.396  0.00  0.00    +0.116 C 
BRANCH  14  20
ATOM     20  C   UNL     1      -2.775 -10.712  13.948  0.00  0.00    -0.034 A 
ATOM     21  C   UNL     1      -4.104 -10.829  13.539  0.00  0.00    +0.006 A 
ATOM     22  C   UNL     1      -1.782 -10.411  13.016  0.00  0.00    +0.006 A 
ATOM     23  C   UNL     1      -4.439 -10.645  12.197  0.00  0.00    +0.015 A 
ATOM     24  C   UNL     1      -2.117 -10.225  11.675  0.00  0.00    +0.015 A 
ATOM     25  C   UNL     1      -3.446 -10.343  11.265  0.00  0.00    +0.059 A 
BRANCH  25  26
ATOM      5  O   UNL     1      -4.232 -11.022   9.109  0.00  0.00    -0.245 OA
ATOM     26  C   UNL     1      -3.795 -10.149   9.867  0.00  0.00    +0.337 C 
BRANCH  26   4
ATOM      4  O   UNL     1      -3.589  -8.869   9.452  0.00  0.00    -0.477 OA
ATOM     30  H   UNL     1      -2.776  -8.787   8.907  0.00  0.00    +0.295 HD
ENDBRANCH  26   4
ENDBRANCH  25  26
ENDBRANCH  14  20
ENDBRANCH   6  14
ENDBRANCH   8   6
BRANCH  10  12
ATOM     12  C   UNL     1      -7.339 -10.460  18.616  0.00  0.00    +0.138 C 
BRANCH  12   7
ATOM      3  O   UNL     1      -9.071 -10.462  16.294  0.00  0.00    -0.276 OA
ATOM      7  N   UNL     1      -7.995  -9.323  18.010  0.00  0.00    -0.313 N 
ATOM     16  C   UNL     1      -8.809  -9.422  16.895  0.00  0.00    +0.214 C 
ATOM     28  H   UNL     1      -7.850  -8.415  18.440  0.00  0.00    +0.149 HD
BRANCH  16  15
ATOM     15  C   UNL     1      -9.372  -8.083  16.448  0.00  0.00    +0.102 C 
BRANCH  15  13
ATOM     13  C   UNL     1     -10.918  -8.007  16.419  0.00  0.00    -0.029 C 
ATOM     17  C   UNL     1     -11.488  -8.620  15.129  0.00  0.00    +0.011 C 
ATOM     18  C   UNL     1     -11.323  -6.521  16.474  0.00  0.00    +0.011 C 
ATOM     19  C   UNL     1     -11.529  -8.723  17.635  0.00  0.00    +0.011 C 
ENDBRANCH  15  13
ENDBRANCH  16  15
ENDBRANCH  12   7
ENDBRANCH  10  12
TORSDOF 10
ENDMDL
MODEL 8
REMARK VINA RESULT:      -6.0     26.482     28.631
REMARK  Name = 75536524
REMARK  13 active torsions:
REMARK  status: ('A' for Active; 'I' for Inactive)
REMARK    1  A    between atoms: O_2  and  C_9
REMARK    2  A    between atoms: O_4  and  C_26
REMARK    3  A    between atoms: N_6  and  C_8
REMARK    4  A    between atoms: N_6  and  C_14
REMARK    5  A    between atoms: N_7  and  C_12
REMARK    6  A    between atoms: C_10  and  C_12
REMARK    7  A    between atoms: C_13  and  C_15
REMARK    8  A    between atoms: C_13  and  C_17
REMARK    9  A    between atoms: C_13  and  C_18
REMARK   10  A    between atoms: C_13  and  C_19
REMARK   11  A    between atoms: C_14  and  C_20
REMARK   12  A    between atoms: C_15  and  C_16
REMARK   13  A    between atoms: C_25  and  C_26
REMARK                            x       y       z     vdW  Elec       q    Type
REMARK                         _______ _______ _______ _____ _____    ______ ____
ROOT
ATOM      1  O   UNL     1      -5.070 -11.732  15.631  0.00  0.00    -0.371 OA
ATOM      8  C   UNL     1      -2.973 -11.275  14.613  0.00  0.00    +0.111 C 
ATOM      9  C   UNL     1      -2.927 -10.829  16.063  0.00  0.00    +0.164 C 
ATOM     10  C   UNL     1      -4.067 -11.644  16.657  0.00  0.00    +0.165 C 
ATOM     11  C   UNL     1      -4.472 -11.370  14.374  0.00  0.00    +0.181 C 
ENDROOT
BRANCH   9   2
ATOM      2  O   UNL     1      -1.690 -11.119  16.684  0.00  0.00    -0.388 OA
ATOM     29  H   UNL     1      -1.326 -10.291  17.042  0.00  0.00    +0.210 HD
ENDBRANCH   9   2
BRANCH   8   6
ATOM      6  N   UNL     1      -2.311 -10.359  13.699  0.00  0.00    -0.305 NA
ATOM     27  H   UNL     1      -1.511  -9.939  14.171  0.00  0.00    +0.123 HD
BRANCH   6  14
ATOM     14  C   UNL     1      -1.843 -11.055  12.505  0.00  0.00    +0.116 C 
BRANCH  14  20
ATOM     20  C   UNL     1      -2.701 -10.748  11.306  0.00  0.00    -0.034 A 
ATOM     21  C   UNL     1      -3.440 -11.765  10.701  0.00  0.00    +0.006 A 
ATOM     22  C   UNL     1      -2.754  -9.450  10.800  0.00  0.00    +0.006 A 
ATOM     23  C   UNL     1      -4.234 -11.482   9.589  0.00  0.00    +0.015 A 
ATOM     24  C   UNL     1      -3.548  -9.167   9.689  0.00  0.00    +0.015 A 
ATOM     25  C   UNL     1      -4.288 -10.183   9.083  0.00  0.00    +0.059 A 
BRANCH  25  26
ATOM      5  O   UNL     1      -5.232 -10.604   6.925  0.00  0.00    -0.245 OA
ATOM     26  C   UNL     1      -5.116  -9.887   7.926  0.00  0.00    +0.337 C 
BRANCH  26   4
ATOM      4  O   UNL     1      -5.779  -8.704   8.047  0.00  0.00    -0.477 OA
ATOM     30  H   UNL     1      -5.162  -7.951   8.171  0.00  0.00    +0.295 HD
ENDBRANCH  26   4
ENDBRANCH  25  26
ENDBRANCH  14  20
ENDBRANCH   6  14
ENDBRANCH   8   6
BRANCH  10  12
ATOM     12  C   UNL     1      -4.663 -11.020  17.906  0.00  0.00    +0.138 C 
BRANCH  12   7
ATOM      3  O   UNL     1      -6.399 -10.341  20.125  0.00  0.00    -0.276 OA
ATOM      7  N   UNL     1      -5.921 -11.641  18.258  0.00  0.00    -0.313 N 
ATOM     16  C   UNL     1      -6.685 -11.246  19.343  0.00  0.00    +0.214 C 
ATOM     28  H   UNL     1      -6.252 -12.396  17.665  0.00  0.00    +0.149 HD
BRANCH  16  15
ATOM     15  C   UNL     1      -7.958 -12.061  19.503  0.00  0.00    +0.102 C 
BRANCH  15  13
ATOM     13  C   UNL     1      -9.232 -11.389  18.937  0.00  0.00    -0.029 C 
ATOM     17  C   UNL     1     -10.125 -12.403  18.202  0.00  0.00    +0.011 C 
ATOM     18  C   UNL     1      -8.793 -10.307  17.932  0.00  0.00    +0.011 C 
ATOM     19  C   UNL     1     -10.045 -10.714  20.054  0.00  0.00    +0.011 C 
ENDBRANCH  15  13
ENDBRANCH  16  15
ENDBRANCH  12   7
ENDBRANCH  10  12
TORSDOF 10
ENDMDL
MODEL 9
REMARK VINA RESULT:      -5.9     16.676     19.831
REMARK  Name = 75536524
REMARK  13 active torsions:
REMARK  status: ('A' for Active; 'I' for Inactive)
REMARK    1  A    between atoms: O_2  and  C_9
REMARK    2  A    between atoms: O_4  and  C_26
REMARK    3  A    between atoms: N_6  and  C_8
REMARK    4  A    between atoms: N_6  and  C_14
REMARK    5  A    between atoms: N_7  and  C_12
REMARK    6  A    between atoms: C_10  and  C_12
REMARK    7  A    between atoms: C_13  and  C_15
REMARK    8  A    between atoms: C_13  and  C_17
REMARK    9  A    between atoms: C_13  and  C_18
REMARK   10  A    between atoms: C_13  and  C_19
REMARK   11  A    between atoms: C_14  and  C_20
REMARK   12  A    between atoms: C_15  and  C_16
REMARK   13  A    between atoms: C_25  and  C_26
REMARK                            x       y       z     vdW  Elec       q    Type
REMARK                         _______ _______ _______ _____ _____    ______ ____
ROOT
ATOM      1  O   UNL     1       7.962   9.327   0.436  0.00  0.00    -0.371 OA
ATOM      8  C   UNL     1       8.027   9.161   2.805  0.00  0.00    +0.111 C 
ATOM      9  C   UNL     1       9.005   8.164   2.213  0.00  0.00    +0.164 C 
ATOM     10  C   UNL     1       9.222   8.754   0.826  0.00  0.00    +0.165 C 
ATOM     11  C   UNL     1       7.138   9.459   1.608  0.00  0.00    +0.181 C 
ENDROOT
BRANCH   9   2
ATOM      2  O   UNL     1      10.212   8.081   2.946  0.00  0.00    -0.388 OA
ATOM     29  H   UNL     1      10.861   8.677   2.534  0.00  0.00    +0.210 HD
ENDBRANCH   9   2
BRANCH   8   6
ATOM      6  N   UNL     1       7.286   8.644   3.945  0.00  0.00    -0.305 NA
ATOM     27  H   UNL     1       7.320   7.625   3.929  0.00  0.00    +0.123 HD
BRANCH   6  14
ATOM     14  C   UNL     1       7.858   9.116   5.201  0.00  0.00    +0.116 C 
BRANCH  14  20
ATOM     20  C   UNL     1       8.395   7.981   6.033  0.00  0.00    -0.034 A 
ATOM     21  C   UNL     1       8.422   6.687   5.510  0.00  0.00    +0.006 A 
ATOM     22  C   UNL     1       8.862   8.222   7.325  0.00  0.00    +0.006 A 
ATOM     23  C   UNL     1       8.918   5.635   6.281  0.00  0.00    +0.015 A 
ATOM     24  C   UNL     1       9.358   7.171   8.094  0.00  0.00    +0.015 A 
ATOM     25  C   UNL     1       9.386   5.876   7.573  0.00  0.00    +0.059 A 
BRANCH  25  26
ATOM      5  O   UNL     1      10.103   4.818   9.595  0.00  0.00    -0.245 OA
ATOM     26  C   UNL     1       9.904   4.781   8.376  0.00  0.00    +0.337 C 
BRANCH  26   4
ATOM      4  O   UNL     1      10.159   3.668   7.635  0.00  0.00    -0.477 OA
ATOM     30  H   UNL     1       9.656   3.665   6.793  0.00  0.00    +0.295 HD
ENDBRANCH  26   4
ENDBRANCH  25  26
ENDBRANCH  14  20
ENDBRANCH   6  14
ENDBRANCH   8   6
BRANCH  10  12
ATOM     12  C   UNL     1       9.659   7.727  -0.202  0.00  0.00    +0.138 C 
BRANCH  12   7
ATOM      3  O   UNL     1       9.557   4.965  -1.073  0.00  0.00    -0.276 OA
ATOM      7  N   UNL     1      10.286   6.585   0.425  0.00  0.00    -0.313 N 
ATOM     16  C   UNL     1      10.181   5.296  -0.066  0.00  0.00    +0.214 C 
ATOM     28  H   UNL     1      10.836   6.754   1.262  0.00  0.00    +0.149 HD
BRANCH  16  15
ATOM     15  C   UNL     1      10.923   4.273   0.779  0.00  0.00    +0.102 C 
BRANCH  15  13
ATOM     13  C   UNL     1      12.392   4.029   0.357  0.00  0.00    -0.029 C 
ATOM     17  C   UNL     1      13.138   5.353   0.120  0.00  0.00    +0.011 C 
ATOM     18  C   UNL     1      12.382   3.233  -0.963  0.00  0.00    +0.011 C 
ATOM     19  C   UNL     1      13.144   3.206   1.416  0.00  0.00    +0.011 C 
ENDBRANCH  15  13
ENDBRANCH  16  15
ENDBRANCH  12   7
ENDBRANCH  10  12
TORSDOF 10
ENDMDL
MODEL 10
REMARK VINA RESULT:      -5.8     26.780     28.737
REMARK  Name = 75536524
REMARK  13 active torsions:
REMARK  status: ('A' for Active; 'I' for Inactive)
REMARK    1  A    between atoms: O_2  and  C_9
REMARK    2  A    between atoms: O_4  and  C_26
REMARK    3  A    between atoms: N_6  and  C_8
REMARK    4  A    between atoms: N_6  and  C_14
REMARK    5  A    between atoms: N_7  and  C_12
REMARK    6  A    between atoms: C_10  and  C_12
REMARK    7  A    between atoms: C_13  and  C_15
REMARK    8  A    between atoms: C_13  and  C_17
REMARK    9  A    between atoms: C_13  and  C_18
REMARK   10  A    between atoms: C_13  and  C_19
REMARK   11  A    between atoms: C_14  and  C_20
REMARK   12  A    between atoms: C_15  and  C_16
REMARK   13  A    between atoms: C_25  and  C_26
REMARK                            x       y       z     vdW  Elec       q    Type
REMARK                         _______ _______ _______ _____ _____    ______ ____
ROOT
ATOM      1  O   UNL     1      -7.609 -12.931  18.761  0.00  0.00    -0.371 OA
ATOM      8  C   UNL     1      -5.587 -11.685  18.826  0.00  0.00    +0.111 C 
ATOM      9  C   UNL     1      -6.732 -10.792  19.265  0.00  0.00    +0.164 C 
ATOM     10  C   UNL     1      -7.774 -11.827  19.668  0.00  0.00    +0.165 C 
ATOM     11  C   UNL     1      -6.333 -12.801  18.111  0.00  0.00    +0.181 C 
ENDROOT
BRANCH   9   2
ATOM      2  O   UNL     1      -6.382  -9.947  20.344  0.00  0.00    -0.388 OA
ATOM     29  H   UNL     1      -6.996 -10.120  21.079  0.00  0.00    +0.210 HD
ENDBRANCH   9   2
BRANCH   8   6
ATOM      6  N   UNL     1      -4.619 -11.015  17.973  0.00  0.00    -0.305 NA
ATOM     27  H   UNL     1      -4.016 -11.715  17.540  0.00  0.00    +0.123 HD
BRANCH   6  14
ATOM     14  C   UNL     1      -5.284 -10.252  16.922  0.00  0.00    +0.116 C 
BRANCH  14  20
ATOM     20  C   UNL     1      -4.608 -10.431  15.588  0.00  0.00    -0.034 A 
ATOM     21  C   UNL     1      -3.236 -10.675  15.529  0.00  0.00    +0.006 A 
ATOM     22  C   UNL     1      -5.354 -10.350  14.411  0.00  0.00    +0.006 A 
ATOM     23  C   UNL     1      -2.610 -10.839  14.294  0.00  0.00    +0.015 A 
ATOM     24  C   UNL     1      -4.727 -10.515  13.177  0.00  0.00    +0.015 A 
ATOM     25  C   UNL     1      -3.355 -10.759  13.118  0.00  0.00    +0.059 A 
BRANCH  25  26
ATOM      5  O   UNL     1      -2.988 -11.794  10.991  0.00  0.00    -0.245 OA
ATOM     26  C   UNL     1      -2.702 -10.931  11.830  0.00  0.00    +0.337 C 
BRANCH  26   4
ATOM      4  O   UNL     1      -1.710 -10.023  11.622  0.00  0.00    -0.477 OA
ATOM     30  H   UNL     1      -2.067  -9.128  11.434  0.00  0.00    +0.295 HD
ENDBRANCH  26   4
ENDBRANCH  25  26
ENDBRANCH  14  20
ENDBRANCH   6  14
ENDBRANCH   8   6
BRANCH  10  12
ATOM     12  C   UNL     1      -9.198 -11.307  19.591  0.00  0.00    +0.138 C 
BRANCH  12   7
ATOM      3  O   UNL     1      -9.557 -10.960  16.737  0.00  0.00    -0.276 OA
ATOM      7  N   UNL     1      -9.267 -10.061  18.860  0.00  0.00    -0.313 N 
ATOM     16  C   UNL     1      -9.441  -9.994  17.489  0.00  0.00    +0.214 C 
ATOM     28  H   UNL     1      -9.191  -9.201  19.394  0.00  0.00    +0.149 HD
BRANCH  16  15
ATOM     15  C   UNL     1      -9.471  -8.569  16.961  0.00  0.00    +0.102 C 
BRANCH  15  13
ATOM     13  C   UNL     1     -10.850  -8.103  16.434  0.00  0.00    -0.029 C 
ATOM     17  C   UNL     1     -12.002  -8.792  17.185  0.00  0.00    +0.011 C 
ATOM     18  C   UNL     1     -10.943  -8.483  14.944  0.00  0.00    +0.011 C 
ATOM     19  C   UNL     1     -11.003  -6.578  16.558  0.00  0.00    +0.011 C 
ENDBRANCH  15  13
ENDBRANCH  16  15
ENDBRANCH  12   7
ENDBRANCH  10  12
TORSDOF 10
ENDMDL
