REMARK  Name = 26744784
REMARK  6 active torsions:
REMARK  status: ('A' for Active; 'I' for Inactive)
REMARK    1  A    between atoms: N_8  and  C_18
REMARK    2  A    between atoms: C_13  and  C_19
REMARK    3  A    between atoms: C_18  and  C_20
REMARK    4  A    between atoms: C_24  and  C_28
REMARK    5  A    between atoms: C_27  and  C_29
REMARK    6  A    between atoms: C_34  and  C_35
REMARK                            x       y       z     vdW  Elec       q    Type
REMARK                         _______ _______ _______ _____ _____    ______ ____
ROOT
ATOM      8  N   UNL     1      -2.151  -1.423   0.435  0.00  0.00    -0.281 NA
ATOM      9  N   UNL     1      -4.660  -3.634  -1.263  0.00  0.00    -0.347 N 
ATOM     10  N   UNL     1      -2.894  -4.909  -1.766  0.00  0.00    -0.240 NA
ATOM     13  C   UNL     1      -1.193  -2.549   0.708  0.00  0.00    +0.152 C 
ATOM     14  C   UNL     1      -1.159  -3.604  -0.455  0.00  0.00    +0.086 C 
ATOM     15  C   UNL     1      -3.553  -1.903   0.262  0.00  0.00    +0.140 C 
ATOM     16  C   UNL     1      -3.591  -3.083  -0.625  0.00  0.00    +0.053 A 
ATOM     17  C   UNL     1      -2.525  -3.884  -0.942  0.00  0.00    +0.065 A 
ATOM     21  C   UNL     1      -4.190  -4.732  -1.938  0.00  0.00    +0.197 A 
ATOM     36  H   UNL     1      -5.617  -3.305  -1.243  0.00  0.00    +0.167 HD
ENDROOT
BRANCH  13  19
ATOM      7  O   UNL     1       0.763  -2.400   2.182  0.00  0.00    -0.336 OA
ATOM     11  N   UNL     1       1.057  -1.438   0.181  0.00  0.00    -0.190 NA
ATOM     12  N   UNL     1       2.066  -1.886   2.185  0.00  0.00    -0.056 NA
ATOM     19  C   UNL     1       0.240  -2.093   0.966  0.00  0.00    +0.245 A 
ATOM     24  C   UNL     1       2.164  -1.334   0.972  0.00  0.00    +0.202 A 
BRANCH  24  28
ATOM     28  C   UNL     1       3.354  -0.674   0.519  0.00  0.00    +0.022 A 
ATOM     30  C   UNL     1       3.400  -0.117  -0.759  0.00  0.00    +0.012 A 
ATOM     31  C   UNL     1       4.466  -0.588   1.357  0.00  0.00    +0.012 A 
ATOM     32  C   UNL     1       4.556   0.526  -1.199  0.00  0.00    +0.013 A 
ATOM     33  C   UNL     1       5.623   0.055   0.917  0.00  0.00    +0.013 A 
ATOM     34  C   UNL     1       5.668   0.612  -0.362  0.00  0.00    +0.055 A 
BRANCH  34  35
ATOM      4  F   UNL     1       6.784   1.786  -2.102  0.00  0.00    -0.166 F 
ATOM      5  F   UNL     1       7.264   2.368  -0.062  0.00  0.00    -0.166 F 
ATOM      6  F   UNL     1       8.006   0.490  -0.854  0.00  0.00    -0.166 F 
ATOM     35  C   UNL     1       6.905   1.299  -0.832  0.00  0.00    +0.417 C 
ENDBRANCH  34  35
ENDBRANCH  24  28
ENDBRANCH  13  19
BRANCH   8  18
ATOM     18  C   UNL     1      -2.142  -0.411   1.500  0.00  0.00    +0.120 C 
BRANCH  18  20
ATOM     20  C   UNL     1      -2.601   0.933   1.000  0.00  0.00    -0.033 A 
ATOM     22  C   UNL     1      -1.742   1.723   0.236  0.00  0.00    +0.005 A 
ATOM     23  C   UNL     1      -3.885   1.388   1.301  0.00  0.00    +0.005 A 
ATOM     25  C   UNL     1      -2.167   2.968  -0.227  0.00  0.00    +0.012 A 
ATOM     26  C   UNL     1      -4.310   2.633   0.837  0.00  0.00    +0.012 A 
ATOM     27  C   UNL     1      -3.451   3.423   0.073  0.00  0.00    +0.055 A 
BRANCH  27  29
ATOM      1  F   UNL     1      -5.003   4.688  -1.235  0.00  0.00    -0.166 F 
ATOM      2  F   UNL     1      -2.949   5.395  -1.157  0.00  0.00    -0.166 F 
ATOM      3  F   UNL     1      -4.249   5.622   0.571  0.00  0.00    -0.166 F 
ATOM     29  C   UNL     1      -3.906   4.753  -0.425  0.00  0.00    +0.417 C 
ENDBRANCH  27  29
ENDBRANCH  18  20
ENDBRANCH   8  18
TORSDOF 6
