REMARK  Name = 7143813
REMARK  3 active torsions:
REMARK  status: ('A' for Active; 'I' for Inactive)
REMARK    1  A    between atoms: N_6  and  C_21
REMARK    2  A    between atoms: C_18  and  C_20
REMARK    3  A    between atoms: C_27  and  C_30
REMARK                            x       y       z     vdW  Elec       q    Type
REMARK                         _______ _______ _______ _____ _____    ______ ____
ROOT
ATOM      1  O   UNL     1      -0.219   1.732  -1.908  0.00  0.00    -0.267 OA
ATOM      2  O   UNL     1       1.597  -2.492  -1.348  0.00  0.00    -0.252 OA
ATOM      4  N   UNL     1       3.105  -1.306  -0.049  0.00  0.00    -0.284 N 
ATOM      5  N   UNL     1       1.585   1.367  -0.478  0.00  0.00    -0.311 N 
ATOM      6  N   UNL     1       1.058  -2.053   0.860  0.00  0.00    -0.269 N 
ATOM      8  C   UNL     1       3.893   0.660  -1.338  0.00  0.00    +0.027 C 
ATOM      9  C   UNL     1       3.493   0.855   1.088  0.00  0.00    +0.054 C 
ATOM     10  C   UNL     1       4.414   1.296  -0.051  0.00  0.00    +0.018 C 
ATOM     11  C   UNL     1       3.887  -0.878  -1.211  0.00  0.00    +0.114 C 
ATOM     12  C   UNL     1       2.496   1.226  -1.626  0.00  0.00    +0.130 C 
ATOM     13  C   UNL     1       3.542  -0.685   1.216  0.00  0.00    +0.119 C 
ATOM     14  C   UNL     1       2.062   1.293   0.835  0.00  0.00    +0.027 A 
ATOM     15  C   UNL     1       1.237   1.534   1.866  0.00  0.00    +0.022 A 
ATOM     16  C   UNL     1       0.237   1.657  -0.766  0.00  0.00    +0.262 A 
ATOM     17  C   UNL     1       1.891  -1.999  -0.255  0.00  0.00    +0.306 C 
ATOM     18  C   UNL     1      -0.673   1.877   0.412  0.00  0.00    +0.082 A 
ATOM     19  C   UNL     1      -0.149   1.833   1.647  0.00  0.00    +0.018 A 
ATOM     31  H   UNL     1       1.471  -2.018   1.784  0.00  0.00    +0.156 HD
ENDROOT
BRANCH   6  21
ATOM     21  C   UNL     1      -0.355  -2.141   0.855  0.00  0.00    +0.036 A 
ATOM     24  C   UNL     1      -1.044  -2.154  -0.355  0.00  0.00    +0.042 A 
ATOM     25  C   UNL     1      -1.048  -2.212   2.061  0.00  0.00    +0.023 A 
ATOM     27  C   UNL     1      -2.436  -2.240  -0.359  0.00  0.00    +0.054 A 
ATOM     28  C   UNL     1      -2.440  -2.298   2.057  0.00  0.00    +0.003 A 
ATOM     29  C   UNL     1      -3.134  -2.312   0.847  0.00  0.00    +0.019 A 
BRANCH  27  30
ATOM      7  N   UNL     1      -3.726  -2.266  -2.605  0.00  0.00    -0.191 NA
ATOM     30  C   UNL     1      -3.147  -2.255  -1.598  0.00  0.00    +0.099 C 
ENDBRANCH  27  30
ENDBRANCH   6  21
BRANCH  18  20
ATOM      3  O   UNL     1      -2.599   2.782  -0.877  0.00  0.00    -0.463 OA
ATOM     20  C   UNL     1      -2.108   2.154   0.230  0.00  0.00    +0.140 A 
ATOM     22  C   UNL     1      -3.143   1.844   1.092  0.00  0.00    +0.050 A 
ATOM     23  C   UNL     1      -4.330   2.309   0.477  0.00  0.00    +0.042 A 
ATOM     26  C   UNL     1      -3.946   2.872  -0.718  0.00  0.00    +0.196 A 
ENDBRANCH  18  20
TORSDOF 3
