MODEL 1
REMARK VINA RESULT:      -7.1      0.000      0.000
REMARK  Name = 75536600
REMARK  9 active torsions:
REMARK  status: ('A' for Active; 'I' for Inactive)
REMARK    1  A    between atoms: O_3  and  C_9
REMARK    2  A    between atoms: O_5  and  C_21
REMARK    3  A    between atoms: O_5  and  C_25
REMARK    4  A    between atoms: N_6  and  C_8
REMARK    5  A    between atoms: N_6  and  C_13
REMARK    6  A    between atoms: N_7  and  C_12
REMARK    7  A    between atoms: C_10  and  C_12
REMARK    8  A    between atoms: C_13  and  C_14
REMARK    9  A    between atoms: C_15  and  C_18
REMARK                            x       y       z     vdW  Elec       q    Type
REMARK                         _______ _______ _______ _____ _____    ______ ____
ROOT
ATOM      2  O   UNL     1      10.567   8.538  20.024  0.00  0.00    -0.371 OA
ATOM      8  C   UNL     1      12.408   7.241  19.270  0.00  0.00    +0.111 C 
ATOM      9  C   UNL     1      12.343   7.174  20.785  0.00  0.00    +0.164 C 
ATOM     10  C   UNL     1      10.893   7.568  21.033  0.00  0.00    +0.165 C 
ATOM     11  C   UNL     1      11.561   8.471  18.986  0.00  0.00    +0.181 C 
ENDROOT
BRANCH   9   3
ATOM      3  O   UNL     1      12.633   5.885  21.287  0.00  0.00    -0.388 OA
ATOM     27  H   UNL     1      11.818   5.355  21.258  0.00  0.00    +0.210 HD
ENDBRANCH   9   3
BRANCH   8   6
ATOM      6  N   UNL     1      13.760   7.353  18.748  0.00  0.00    -0.305 NA
ATOM     26  H   UNL     1      13.732   7.843  17.853  0.00  0.00    +0.123 HD
BRANCH   6  13
ATOM     13  C   UNL     1      14.617   8.096  19.665  0.00  0.00    +0.116 C 
BRANCH  13  14
ATOM     14  C   UNL     1      15.954   7.428  19.846  0.00  0.00    -0.033 A 
ATOM     16  C   UNL     1      16.840   7.892  20.818  0.00  0.00    +0.008 A 
ATOM     17  C   UNL     1      16.308   6.345  19.041  0.00  0.00    +0.008 A 
ATOM     19  C   UNL     1      18.080   7.274  20.985  0.00  0.00    +0.046 A 
ATOM     20  C   UNL     1      17.546   5.726  19.208  0.00  0.00    +0.046 A 
ATOM     21  C   UNL     1      18.432   6.190  20.181  0.00  0.00    +0.120 A 
BRANCH  21   5
ATOM      5  O   UNL     1      19.641   5.585  20.345  0.00  0.00    -0.495 OA
ATOM     25  C   UNL     1      20.698   6.382  20.876  0.00  0.00    +0.277 C 
ENDBRANCH  21   5
ENDBRANCH  13  14
ENDBRANCH   6  13
ENDBRANCH   8   6
BRANCH  10  12
ATOM     12  C   UNL     1      10.661   8.163  22.411  0.00  0.00    +0.138 C 
BRANCH  12   7
ATOM      4  O   UNL     1      12.736  10.131  22.676  0.00  0.00    -0.270 OA
ATOM      7  N   UNL     1      10.504   9.588  22.344  0.00  0.00    -0.308 N 
ATOM     15  C   UNL     1      11.571  10.471  22.484  0.00  0.00    +0.251 C 
ATOM     28  H   UNL     1       9.565   9.941  22.201  0.00  0.00    +0.149 HD
BRANCH  15  18
ATOM      1  S   UNL     1      10.654  12.705  23.821  0.00  0.00    -0.092 S 
ATOM     18  C   UNL     1      11.239  11.917  22.417  0.00  0.00    +0.074 A 
ATOM     22  C   UNL     1      11.333  12.776  21.344  0.00  0.00    +0.021 A 
ATOM     23  C   UNL     1      10.919  14.097  21.679  0.00  0.00    +0.008 A 
ATOM     24  C   UNL     1      10.524  14.198  22.994  0.00  0.00    +0.046 A 
ENDBRANCH  15  18
ENDBRANCH  12   7
ENDBRANCH  10  12
TORSDOF 8
ENDMDL
MODEL 2
REMARK VINA RESULT:      -6.8      1.781      2.050
REMARK  Name = 75536600
REMARK  9 active torsions:
REMARK  status: ('A' for Active; 'I' for Inactive)
REMARK    1  A    between atoms: O_3  and  C_9
REMARK    2  A    between atoms: O_5  and  C_21
REMARK    3  A    between atoms: O_5  and  C_25
REMARK    4  A    between atoms: N_6  and  C_8
REMARK    5  A    between atoms: N_6  and  C_13
REMARK    6  A    between atoms: N_7  and  C_12
REMARK    7  A    between atoms: C_10  and  C_12
REMARK    8  A    between atoms: C_13  and  C_14
REMARK    9  A    between atoms: C_15  and  C_18
REMARK                            x       y       z     vdW  Elec       q    Type
REMARK                         _______ _______ _______ _____ _____    ______ ____
ROOT
ATOM      2  O   UNL     1      11.119   8.762  19.849  0.00  0.00    -0.371 OA
ATOM      8  C   UNL     1      12.713   7.027  19.546  0.00  0.00    +0.111 C 
ATOM      9  C   UNL     1      12.299   7.069  21.005  0.00  0.00    +0.164 C 
ATOM     10  C   UNL     1      10.970   7.805  20.912  0.00  0.00    +0.165 C 
ATOM     11  C   UNL     1      12.273   8.401  19.068  0.00  0.00    +0.181 C 
ENDROOT
BRANCH   9   3
ATOM      3  O   UNL     1      12.150   5.780  21.568  0.00  0.00    -0.388 OA
ATOM     27  H   UNL     1      11.294   5.744  22.027  0.00  0.00    +0.210 HD
ENDBRANCH   9   3
BRANCH   8   6
ATOM      6  N   UNL     1      14.134   6.788  19.348  0.00  0.00    -0.305 NA
ATOM     26  H   UNL     1      14.343   6.832  18.350  0.00  0.00    +0.123 HD
BRANCH   6  13
ATOM     13  C   UNL     1      14.935   7.789  20.042  0.00  0.00    +0.116 C 
BRANCH  13  14
ATOM     14  C   UNL     1      16.366   7.347  20.204  0.00  0.00    -0.033 A 
ATOM     16  C   UNL     1      17.213   8.031  21.076  0.00  0.00    +0.008 A 
ATOM     17  C   UNL     1      16.843   6.253  19.482  0.00  0.00    +0.008 A 
ATOM     19  C   UNL     1      18.539   7.621  21.225  0.00  0.00    +0.046 A 
ATOM     20  C   UNL     1      18.167   5.843  19.631  0.00  0.00    +0.046 A 
ATOM     21  C   UNL     1      19.015   6.527  20.503  0.00  0.00    +0.120 A 
BRANCH  21   5
ATOM      5  O   UNL     1      20.308   6.126  20.650  0.00  0.00    -0.495 OA
ATOM     25  C   UNL     1      20.589   4.746  20.425  0.00  0.00    +0.277 C 
ENDBRANCH  21   5
ENDBRANCH  13  14
ENDBRANCH   6  13
ENDBRANCH   8   6
BRANCH  10  12
ATOM     12  C   UNL     1      10.588   8.520  22.196  0.00  0.00    +0.138 C 
BRANCH  12   7
ATOM      4  O   UNL     1      10.943  11.369  22.180  0.00  0.00    -0.270 OA
ATOM      7  N   UNL     1      11.700   9.248  22.737  0.00  0.00    -0.308 N 
ATOM     15  C   UNL     1      11.789  10.636  22.685  0.00  0.00    +0.251 C 
ATOM     28  H   UNL     1      12.445   8.704  23.158  0.00  0.00    +0.149 HD
BRANCH  15  18
ATOM      1  S   UNL     1      14.541  10.557  22.883  0.00  0.00    -0.092 S 
ATOM     18  C   UNL     1      13.017  11.237  23.266  0.00  0.00    +0.074 A 
ATOM     22  C   UNL     1      13.132  12.317  24.114  0.00  0.00    +0.021 A 
ATOM     23  C   UNL     1      14.488  12.589  24.452  0.00  0.00    +0.008 A 
ATOM     24  C   UNL     1      15.359  11.707  23.852  0.00  0.00    +0.046 A 
ENDBRANCH  15  18
ENDBRANCH  12   7
ENDBRANCH  10  12
TORSDOF 8
ENDMDL
MODEL 3
REMARK VINA RESULT:      -6.6      2.691      4.714
REMARK  Name = 75536600
REMARK  9 active torsions:
REMARK  status: ('A' for Active; 'I' for Inactive)
REMARK    1  A    between atoms: O_3  and  C_9
REMARK    2  A    between atoms: O_5  and  C_21
REMARK    3  A    between atoms: O_5  and  C_25
REMARK    4  A    between atoms: N_6  and  C_8
REMARK    5  A    between atoms: N_6  and  C_13
REMARK    6  A    between atoms: N_7  and  C_12
REMARK    7  A    between atoms: C_10  and  C_12
REMARK    8  A    between atoms: C_13  and  C_14
REMARK    9  A    between atoms: C_15  and  C_18
REMARK                            x       y       z     vdW  Elec       q    Type
REMARK                         _______ _______ _______ _____ _____    ______ ____
ROOT
ATOM      2  O   UNL     1      16.388   6.007  18.846  0.00  0.00    -0.371 OA
ATOM      8  C   UNL     1      17.342   6.298  21.002  0.00  0.00    +0.111 C 
ATOM      9  C   UNL     1      16.079   7.134  20.903  0.00  0.00    +0.164 C 
ATOM     10  C   UNL     1      15.360   6.443  19.752  0.00  0.00    +0.165 C 
ATOM     11  C   UNL     1      17.650   6.043  19.535  0.00  0.00    +0.181 C 
ENDROOT
BRANCH   9   3
ATOM      3  O   UNL     1      15.314   7.110  22.093  0.00  0.00    -0.388 OA
ATOM     27  H   UNL     1      14.470   7.561  21.922  0.00  0.00    +0.210 HD
ENDBRANCH   9   3
BRANCH   8   6
ATOM      6  N   UNL     1      18.429   6.963  21.701  0.00  0.00    -0.305 NA
ATOM     26  H   UNL     1      18.577   6.504  22.600  0.00  0.00    +0.123 HD
BRANCH   6  13
ATOM     13  C   UNL     1      19.665   6.900  20.930  0.00  0.00    +0.116 C 
BRANCH  13  14
ATOM     14  C   UNL     1      20.582   5.817  21.430  0.00  0.00    -0.033 A 
ATOM     16  C   UNL     1      21.240   5.967  22.651  0.00  0.00    +0.008 A 
ATOM     17  C   UNL     1      20.775   4.661  20.673  0.00  0.00    +0.008 A 
ATOM     19  C   UNL     1      22.091   4.963  23.114  0.00  0.00    +0.046 A 
ATOM     20  C   UNL     1      21.624   3.657  21.136  0.00  0.00    +0.046 A 
ATOM     21  C   UNL     1      22.282   3.807  22.357  0.00  0.00    +0.120 A 
BRANCH  21   5
ATOM      5  O   UNL     1      23.111   2.827  22.809  0.00  0.00    -0.495 OA
ATOM     25  C   UNL     1      23.890   2.135  21.835  0.00  0.00    +0.277 C 
ENDBRANCH  21   5
ENDBRANCH  13  14
ENDBRANCH   6  13
ENDBRANCH   8   6
BRANCH  10  12
ATOM     12  C   UNL     1      14.385   7.351  19.023  0.00  0.00    +0.138 C 
BRANCH  12   7
ATOM      4  O   UNL     1      11.607   7.369  19.750  0.00  0.00    -0.270 OA
ATOM      7  N   UNL     1      13.742   8.260  19.929  0.00  0.00    -0.308 N 
ATOM     15  C   UNL     1      12.384   8.194  20.224  0.00  0.00    +0.251 C 
ATOM     28  H   UNL     1      14.322   8.979  20.347  0.00  0.00    +0.149 HD
BRANCH  15  18
ATOM      1  S   UNL     1      11.008   8.727  22.557  0.00  0.00    -0.092 S 
ATOM     18  C   UNL     1      11.865   9.225  21.160  0.00  0.00    +0.074 A 
ATOM     22  C   UNL     1      11.971  10.596  21.080  0.00  0.00    +0.021 A 
ATOM     23  C   UNL     1      11.339  11.245  22.180  0.00  0.00    +0.008 A 
ATOM     24  C   UNL     1      10.775  10.347  23.058  0.00  0.00    +0.046 A 
ENDBRANCH  15  18
ENDBRANCH  12   7
ENDBRANCH  10  12
TORSDOF 8
ENDMDL
MODEL 4
REMARK VINA RESULT:      -6.3      1.925      2.651
REMARK  Name = 75536600
REMARK  9 active torsions:
REMARK  status: ('A' for Active; 'I' for Inactive)
REMARK    1  A    between atoms: O_3  and  C_9
REMARK    2  A    between atoms: O_5  and  C_21
REMARK    3  A    between atoms: O_5  and  C_25
REMARK    4  A    between atoms: N_6  and  C_8
REMARK    5  A    between atoms: N_6  and  C_13
REMARK    6  A    between atoms: N_7  and  C_12
REMARK    7  A    between atoms: C_10  and  C_12
REMARK    8  A    between atoms: C_13  and  C_14
REMARK    9  A    between atoms: C_15  and  C_18
REMARK                            x       y       z     vdW  Elec       q    Type
REMARK                         _______ _______ _______ _____ _____    ______ ____
ROOT
ATOM      2  O   UNL     1      13.431   8.112  18.657  0.00  0.00    -0.371 OA
ATOM      8  C   UNL     1      14.411   6.645  20.247  0.00  0.00    +0.111 C 
ATOM      9  C   UNL     1      13.048   7.084  20.752  0.00  0.00    +0.164 C 
ATOM     10  C   UNL     1      12.386   7.533  19.457  0.00  0.00    +0.165 C 
ATOM     11  C   UNL     1      14.700   7.708  19.200  0.00  0.00    +0.181 C 
ENDROOT
BRANCH   9   3
ATOM      3  O   UNL     1      12.333   6.035  21.375  0.00  0.00    -0.388 OA
ATOM     27  H   UNL     1      12.605   5.990  22.307  0.00  0.00    +0.210 HD
ENDBRANCH   9   3
BRANCH   8   6
ATOM      6  N   UNL     1      15.426   6.582  21.286  0.00  0.00    -0.305 NA
ATOM     26  H   UNL     1      16.013   5.762  21.129  0.00  0.00    +0.123 HD
BRANCH   6  13
ATOM     13  C   UNL     1      16.267   7.773  21.269  0.00  0.00    +0.116 C 
BRANCH  13  14
ATOM     14  C   UNL     1      17.723   7.428  21.102  0.00  0.00    -0.033 A 
ATOM     16  C   UNL     1      18.091   6.233  20.482  0.00  0.00    +0.008 A 
ATOM     17  C   UNL     1      18.705   8.303  21.567  0.00  0.00    +0.008 A 
ATOM     19  C   UNL     1      19.440   5.914  20.328  0.00  0.00    +0.046 A 
ATOM     20  C   UNL     1      20.054   7.984  21.412  0.00  0.00    +0.046 A 
ATOM     21  C   UNL     1      20.421   6.790  20.792  0.00  0.00    +0.120 A 
BRANCH  21   5
ATOM      5  O   UNL     1      21.738   6.479  20.640  0.00  0.00    -0.495 OA
ATOM     25  C   UNL     1      22.459   6.116  21.816  0.00  0.00    +0.277 C 
ENDBRANCH  21   5
ENDBRANCH  13  14
ENDBRANCH   6  13
ENDBRANCH   8   6
BRANCH  10  12
ATOM     12  C   UNL     1      11.280   8.550  19.671  0.00  0.00    +0.138 C 
BRANCH  12   7
ATOM      4  O   UNL     1      10.390   8.478  22.400  0.00  0.00    -0.270 OA
ATOM      7  N   UNL     1      11.621   9.482  20.708  0.00  0.00    -0.308 N 
ATOM     15  C   UNL     1      11.140   9.369  22.009  0.00  0.00    +0.251 C 
ATOM     28  H   UNL     1      12.227  10.253  20.452  0.00  0.00    +0.149 HD
BRANCH  15  18
ATOM      1  S   UNL     1      13.172  11.014  22.892  0.00  0.00    -0.092 S 
ATOM     18  C   UNL     1      11.564  10.429  22.960  0.00  0.00    +0.074 A 
ATOM     22  C   UNL     1      10.828  11.052  23.943  0.00  0.00    +0.021 A 
ATOM     23  C   UNL     1      11.594  12.023  24.650  0.00  0.00    +0.008 A 
ATOM     24  C   UNL     1      12.886  12.104  24.181  0.00  0.00    +0.046 A 
ENDBRANCH  15  18
ENDBRANCH  12   7
ENDBRANCH  10  12
TORSDOF 8
ENDMDL
MODEL 5
REMARK VINA RESULT:      -6.3      1.868      2.470
REMARK  Name = 75536600
REMARK  9 active torsions:
REMARK  status: ('A' for Active; 'I' for Inactive)
REMARK    1  A    between atoms: O_3  and  C_9
REMARK    2  A    between atoms: O_5  and  C_21
REMARK    3  A    between atoms: O_5  and  C_25
REMARK    4  A    between atoms: N_6  and  C_8
REMARK    5  A    between atoms: N_6  and  C_13
REMARK    6  A    between atoms: N_7  and  C_12
REMARK    7  A    between atoms: C_10  and  C_12
REMARK    8  A    between atoms: C_13  and  C_14
REMARK    9  A    between atoms: C_15  and  C_18
REMARK                            x       y       z     vdW  Elec       q    Type
REMARK                         _______ _______ _______ _____ _____    ______ ____
ROOT
ATOM      2  O   UNL     1      12.560   8.648  18.739  0.00  0.00    -0.371 OA
ATOM      8  C   UNL     1      13.402   7.021  20.252  0.00  0.00    +0.111 C 
ATOM      9  C   UNL     1      13.284   8.353  20.971  0.00  0.00    +0.164 C 
ATOM     10  C   UNL     1      12.283   9.079  20.083  0.00  0.00    +0.165 C 
ATOM     11  C   UNL     1      13.372   7.462  18.797  0.00  0.00    +0.181 C 
ENDROOT
BRANCH   9   3
ATOM      3  O   UNL     1      12.811   8.216  22.297  0.00  0.00    -0.388 OA
ATOM     27  H   UNL     1      11.981   8.716  22.378  0.00  0.00    +0.210 HD
ENDBRANCH   9   3
BRANCH   8   6
ATOM      6  N   UNL     1      14.604   6.277  20.592  0.00  0.00    -0.305 NA
ATOM     26  H   UNL     1      14.379   5.283  20.634  0.00  0.00    +0.123 HD
BRANCH   6  13
ATOM     13  C   UNL     1      15.649   6.483  19.597  0.00  0.00    +0.116 C 
BRANCH  13  14
ATOM     14  C   UNL     1      16.966   6.840  20.233  0.00  0.00    -0.033 A 
ATOM     16  C   UNL     1      18.097   6.063  19.979  0.00  0.00    +0.008 A 
ATOM     17  C   UNL     1      17.056   7.947  21.077  0.00  0.00    +0.008 A 
ATOM     19  C   UNL     1      19.317   6.394  20.570  0.00  0.00    +0.046 A 
ATOM     20  C   UNL     1      18.275   8.278  21.667  0.00  0.00    +0.046 A 
ATOM     21  C   UNL     1      19.406   7.501  21.413  0.00  0.00    +0.120 A 
BRANCH  21   5
ATOM      5  O   UNL     1      20.597   7.825  21.988  0.00  0.00    -0.495 OA
ATOM     25  C   UNL     1      20.731   7.577  23.386  0.00  0.00    +0.277 C 
ENDBRANCH  21   5
ENDBRANCH  13  14
ENDBRANCH   6  13
ENDBRANCH   8   6
BRANCH  10  12
ATOM     12  C   UNL     1      12.391  10.590  20.169  0.00  0.00    +0.138 C 
BRANCH  12   7
ATOM      4  O   UNL     1      11.531  13.258  20.792  0.00  0.00    -0.270 OA
ATOM      7  N   UNL     1      11.952  11.072  21.448  0.00  0.00    -0.308 N 
ATOM     15  C   UNL     1      11.551  12.388  21.659  0.00  0.00    +0.251 C 
ATOM     28  H   UNL     1      11.957  10.410  22.216  0.00  0.00    +0.149 HD
BRANCH  15  18
ATOM      1  S   UNL     1      11.393  11.592  24.297  0.00  0.00    -0.092 S 
ATOM     18  C   UNL     1      11.150  12.737  23.047  0.00  0.00    +0.074 A 
ATOM     22  C   UNL     1      10.582  13.901  23.515  0.00  0.00    +0.021 A 
ATOM     23  C   UNL     1      10.343  13.852  24.918  0.00  0.00    +0.008 A 
ATOM     24  C   UNL     1      10.736  12.654  25.469  0.00  0.00    +0.046 A 
ENDBRANCH  15  18
ENDBRANCH  12   7
ENDBRANCH  10  12
TORSDOF 8
ENDMDL
MODEL 6
REMARK VINA RESULT:      -6.2      3.011      6.812
REMARK  Name = 75536600
REMARK  9 active torsions:
REMARK  status: ('A' for Active; 'I' for Inactive)
REMARK    1  A    between atoms: O_3  and  C_9
REMARK    2  A    between atoms: O_5  and  C_21
REMARK    3  A    between atoms: O_5  and  C_25
REMARK    4  A    between atoms: N_6  and  C_8
REMARK    5  A    between atoms: N_6  and  C_13
REMARK    6  A    between atoms: N_7  and  C_12
REMARK    7  A    between atoms: C_10  and  C_12
REMARK    8  A    between atoms: C_13  and  C_14
REMARK    9  A    between atoms: C_15  and  C_18
REMARK                            x       y       z     vdW  Elec       q    Type
REMARK                         _______ _______ _______ _____ _____    ______ ____
ROOT
ATOM      2  O   UNL     1      13.310  13.460  22.734  0.00  0.00    -0.371 OA
ATOM      8  C   UNL     1      12.596  11.736  24.204  0.00  0.00    +0.111 C 
ATOM      9  C   UNL     1      13.884  11.307  23.526  0.00  0.00    +0.164 C 
ATOM     10  C   UNL     1      14.446  12.652  23.085  0.00  0.00    +0.165 C 
ATOM     11  C   UNL     1      12.128  12.850  23.281  0.00  0.00    +0.181 C 
ENDROOT
BRANCH   9   3
ATOM      3  O   UNL     1      14.763  10.630  24.404  0.00  0.00    -0.388 OA
ATOM     27  H   UNL     1      15.183   9.903  23.915  0.00  0.00    +0.210 HD
ENDBRANCH   9   3
BRANCH   8   6
ATOM      6  N   UNL     1      11.621  10.666  24.337  0.00  0.00    -0.305 NA
ATOM     26  H   UNL     1      11.095  10.800  25.201  0.00  0.00    +0.123 HD
BRANCH   6  13
ATOM     13  C   UNL     1      10.691  10.661  23.215  0.00  0.00    +0.116 C 
BRANCH  13  14
ATOM     14  C   UNL     1      11.065   9.630  22.182  0.00  0.00    -0.033 A 
ATOM     16  C   UNL     1      10.809   8.279  22.419  0.00  0.00    +0.008 A 
ATOM     17  C   UNL     1      11.668  10.026  20.989  0.00  0.00    +0.008 A 
ATOM     19  C   UNL     1      11.157   7.325  21.463  0.00  0.00    +0.046 A 
ATOM     20  C   UNL     1      12.015   9.073  20.032  0.00  0.00    +0.046 A 
ATOM     21  C   UNL     1      11.759   7.722  20.269  0.00  0.00    +0.120 A 
BRANCH  21   5
ATOM      5  O   UNL     1      12.096   6.791  19.335  0.00  0.00    -0.495 OA
ATOM     25  C   UNL     1      12.622   7.273  18.099  0.00  0.00    +0.277 C 
ENDBRANCH  21   5
ENDBRANCH  13  14
ENDBRANCH   6  13
ENDBRANCH   8   6
BRANCH  10  12
ATOM     12  C   UNL     1      15.388  12.548  21.899  0.00  0.00    +0.138 C 
BRANCH  12   7
ATOM      4  O   UNL     1      17.789  10.985  21.699  0.00  0.00    -0.270 OA
ATOM      7  N   UNL     1      15.493  11.194  21.433  0.00  0.00    -0.308 N 
ATOM     15  C   UNL     1      16.704  10.512  21.370  0.00  0.00    +0.251 C 
ATOM     28  H   UNL     1      14.636  10.744  21.131  0.00  0.00    +0.149 HD
BRANCH  15  18
ATOM      1  S   UNL     1      17.893   8.024  21.253  0.00  0.00    -0.092 S 
ATOM     18  C   UNL     1      16.649   9.125  20.839  0.00  0.00    +0.074 A 
ATOM     22  C   UNL     1      15.701   8.551  20.021  0.00  0.00    +0.021 A 
ATOM     23  C   UNL     1      16.001   7.189  19.730  0.00  0.00    +0.008 A 
ATOM     24  C   UNL     1      17.166   6.774  20.336  0.00  0.00    +0.046 A 
ENDBRANCH  15  18
ENDBRANCH  12   7
ENDBRANCH  10  12
TORSDOF 8
ENDMDL
MODEL 7
REMARK VINA RESULT:      -6.1     24.492     27.243
REMARK  Name = 75536600
REMARK  9 active torsions:
REMARK  status: ('A' for Active; 'I' for Inactive)
REMARK    1  A    between atoms: O_3  and  C_9
REMARK    2  A    between atoms: O_5  and  C_21
REMARK    3  A    between atoms: O_5  and  C_25
REMARK    4  A    between atoms: N_6  and  C_8
REMARK    5  A    between atoms: N_6  and  C_13
REMARK    6  A    between atoms: N_7  and  C_12
REMARK    7  A    between atoms: C_10  and  C_12
REMARK    8  A    between atoms: C_13  and  C_14
REMARK    9  A    between atoms: C_15  and  C_18
REMARK                            x       y       z     vdW  Elec       q    Type
REMARK                         _______ _______ _______ _____ _____    ______ ____
ROOT
ATOM      2  O   UNL     1     -10.868  10.611  15.655  0.00  0.00    -0.371 OA
ATOM      8  C   UNL     1      -9.797   9.490  17.454  0.00  0.00    +0.111 C 
ATOM      9  C   UNL     1     -10.715   8.515  16.739  0.00  0.00    +0.164 C 
ATOM     10  C   UNL     1     -10.874   9.199  15.388  0.00  0.00    +0.165 C 
ATOM     11  C   UNL     1     -10.348  10.825  16.979  0.00  0.00    +0.181 C 
ENDROOT
BRANCH   9   3
ATOM      3  O   UNL     1     -10.149   7.225  16.615  0.00  0.00    -0.388 OA
ATOM     27  H   UNL     1     -10.686   6.604  17.136  0.00  0.00    +0.210 HD
ENDBRANCH   9   3
BRANCH   8   6
ATOM      6  N   UNL     1      -9.815   9.354  18.902  0.00  0.00    -0.305 NA
ATOM     26  H   UNL     1      -8.973   9.784  19.287  0.00  0.00    +0.123 HD
BRANCH   6  13
ATOM     13  C   UNL     1     -10.983  10.010  19.476  0.00  0.00    +0.116 C 
BRANCH  13  14
ATOM     14  C   UNL     1     -11.827   9.051  20.274  0.00  0.00    -0.033 A 
ATOM     16  C   UNL     1     -12.856   9.533  21.083  0.00  0.00    +0.008 A 
ATOM     17  C   UNL     1     -11.580   7.680  20.203  0.00  0.00    +0.008 A 
ATOM     19  C   UNL     1     -13.637   8.645  21.822  0.00  0.00    +0.046 A 
ATOM     20  C   UNL     1     -12.361   6.791  20.941  0.00  0.00    +0.046 A 
ATOM     21  C   UNL     1     -13.390   7.274  21.751  0.00  0.00    +0.120 A 
BRANCH  21   5
ATOM      5  O   UNL     1     -14.154   6.406  22.471  0.00  0.00    -0.495 OA
ATOM     25  C   UNL     1     -14.066   5.025  22.126  0.00  0.00    +0.277 C 
ENDBRANCH  21   5
ENDBRANCH  13  14
ENDBRANCH   6  13
ENDBRANCH   8   6
BRANCH  10  12
ATOM     12  C   UNL     1     -12.155   8.816  14.670  0.00  0.00    +0.138 C 
BRANCH  12   7
ATOM      4  O   UNL     1     -14.354  10.148  15.950  0.00  0.00    -0.270 OA
ATOM      7  N   UNL     1     -13.104   8.229  15.573  0.00  0.00    -0.308 N 
ATOM     15  C   UNL     1     -14.143   8.954  16.149  0.00  0.00    +0.251 C 
ATOM     28  H   UNL     1     -12.982   7.248  15.794  0.00  0.00    +0.149 HD
BRANCH  15  18
ATOM      1  S   UNL     1     -16.435   7.452  16.475  0.00  0.00    -0.092 S 
ATOM     18  C   UNL     1     -15.024   8.207  17.083  0.00  0.00    +0.074 A 
ATOM     22  C   UNL     1     -14.878   8.014  18.440  0.00  0.00    +0.021 A 
ATOM     23  C   UNL     1     -15.940   7.236  18.985  0.00  0.00    +0.008 A 
ATOM     24  C   UNL     1     -16.856   6.865  18.027  0.00  0.00    +0.046 A 
ENDBRANCH  15  18
ENDBRANCH  12   7
ENDBRANCH  10  12
TORSDOF 8
ENDMDL
MODEL 8
REMARK VINA RESULT:      -6.1     26.647     28.984
REMARK  Name = 75536600
REMARK  9 active torsions:
REMARK  status: ('A' for Active; 'I' for Inactive)
REMARK    1  A    between atoms: O_3  and  C_9
REMARK    2  A    between atoms: O_5  and  C_21
REMARK    3  A    between atoms: O_5  and  C_25
REMARK    4  A    between atoms: N_6  and  C_8
REMARK    5  A    between atoms: N_6  and  C_13
REMARK    6  A    between atoms: N_7  and  C_12
REMARK    7  A    between atoms: C_10  and  C_12
REMARK    8  A    between atoms: C_13  and  C_14
REMARK    9  A    between atoms: C_15  and  C_18
REMARK                            x       y       z     vdW  Elec       q    Type
REMARK                         _______ _______ _______ _____ _____    ______ ____
ROOT
ATOM      2  O   UNL     1     -11.743  -8.337  17.211  0.00  0.00    -0.371 OA
ATOM      8  C   UNL     1      -9.438  -8.037  16.723  0.00  0.00    +0.111 C 
ATOM      9  C   UNL     1     -10.261  -7.197  15.763  0.00  0.00    +0.164 C 
ATOM     10  C   UNL     1     -11.576  -7.086  16.524  0.00  0.00    +0.165 C 
ATOM     11  C   UNL     1     -10.478  -9.023  17.229  0.00  0.00    +0.181 C 
ENDROOT
BRANCH   9   3
ATOM      3  O   UNL     1      -9.686  -5.929  15.516  0.00  0.00    -0.388 OA
ATOM     27  H   UNL     1     -10.404  -5.295  15.349  0.00  0.00    +0.210 HD
ENDBRANCH   9   3
BRANCH   8   6
ATOM      6  N   UNL     1      -8.297  -8.688  16.100  0.00  0.00    -0.305 NA
ATOM     26  H   UNL     1      -7.750  -7.990  15.595  0.00  0.00    +0.123 HD
BRANCH   6  13
ATOM     13  C   UNL     1      -7.445  -9.323  17.098  0.00  0.00    +0.116 C 
BRANCH  13  14
ATOM     14  C   UNL     1      -6.170  -9.847  16.493  0.00  0.00    -0.033 A 
ATOM     16  C   UNL     1      -5.120 -10.251  17.319  0.00  0.00    +0.008 A 
ATOM     17  C   UNL     1      -6.037  -9.928  15.107  0.00  0.00    +0.008 A 
ATOM     19  C   UNL     1      -3.938 -10.736  16.759  0.00  0.00    +0.046 A 
ATOM     20  C   UNL     1      -4.856 -10.413  14.546  0.00  0.00    +0.046 A 
ATOM     21  C   UNL     1      -3.806 -10.817  15.372  0.00  0.00    +0.120 A 
BRANCH  21   5
ATOM      5  O   UNL     1      -2.654 -11.292  14.825  0.00  0.00    -0.495 OA
ATOM     25  C   UNL     1      -1.436 -10.963  15.492  0.00  0.00    +0.277 C 
ENDBRANCH  21   5
ENDBRANCH  13  14
ENDBRANCH   6  13
ENDBRANCH   8   6
BRANCH  10  12
ATOM     12  C   UNL     1     -12.770  -6.833  15.622  0.00  0.00    +0.138 C 
BRANCH  12   7
ATOM      4  O   UNL     1     -14.400  -5.223  13.891  0.00  0.00    -0.270 OA
ATOM      7  N   UNL     1     -12.369  -6.232  14.381  0.00  0.00    -0.308 N 
ATOM     15  C   UNL     1     -13.230  -5.464  13.604  0.00  0.00    +0.251 C 
ATOM     28  H   UNL     1     -11.418  -6.402  14.074  0.00  0.00    +0.149 HD
BRANCH  15  18
ATOM      1  S   UNL     1     -12.381  -6.014  11.036  0.00  0.00    -0.092 S 
ATOM     18  C   UNL     1     -12.671  -4.935  12.333  0.00  0.00    +0.074 A 
ATOM     22  C   UNL     1     -12.329  -3.639  12.013  0.00  0.00    +0.021 A 
ATOM     23  C   UNL     1     -11.822  -3.532  10.686  0.00  0.00    +0.008 A 
ATOM     24  C   UNL     1     -11.796  -4.749  10.042  0.00  0.00    +0.046 A 
ENDBRANCH  15  18
ENDBRANCH  12   7
ENDBRANCH  10  12
TORSDOF 8
ENDMDL
MODEL 9
REMARK VINA RESULT:      -6.1     26.461     28.218
REMARK  Name = 75536600
REMARK  9 active torsions:
REMARK  status: ('A' for Active; 'I' for Inactive)
REMARK    1  A    between atoms: O_3  and  C_9
REMARK    2  A    between atoms: O_5  and  C_21
REMARK    3  A    between atoms: O_5  and  C_25
REMARK    4  A    between atoms: N_6  and  C_8
REMARK    5  A    between atoms: N_6  and  C_13
REMARK    6  A    between atoms: N_7  and  C_12
REMARK    7  A    between atoms: C_10  and  C_12
REMARK    8  A    between atoms: C_13  and  C_14
REMARK    9  A    between atoms: C_15  and  C_18
REMARK                            x       y       z     vdW  Elec       q    Type
REMARK                         _______ _______ _______ _____ _____    ______ ____
ROOT
ATOM      2  O   UNL     1      -5.081 -11.821  15.917  0.00  0.00    -0.371 OA
ATOM      8  C   UNL     1      -3.073 -11.269  14.773  0.00  0.00    +0.111 C 
ATOM      9  C   UNL     1      -2.957 -10.824  16.219  0.00  0.00    +0.164 C 
ATOM     10  C   UNL     1      -4.021 -11.691  16.879  0.00  0.00    +0.165 C 
ATOM     11  C   UNL     1      -4.578 -11.429  14.627  0.00  0.00    +0.181 C 
ENDROOT
BRANCH   9   3
ATOM      3  O   UNL     1      -1.672 -11.060  16.761  0.00  0.00    -0.388 OA
ATOM     27  H   UNL     1      -1.048 -10.439  16.348  0.00  0.00    +0.210 HD
ENDBRANCH   9   3
BRANCH   8   6
ATOM      6  N   UNL     1      -2.511 -10.322  13.823  0.00  0.00    -0.305 NA
ATOM     26  H   UNL     1      -1.766  -9.796  14.280  0.00  0.00    +0.123 HD
BRANCH   6  13
ATOM     13  C   UNL     1      -1.960 -11.009  12.661  0.00  0.00    +0.116 C 
BRANCH  13  14
ATOM     14  C   UNL     1      -2.746 -10.713  11.411  0.00  0.00    -0.033 A 
ATOM     16  C   UNL     1      -2.785  -9.415  10.902  0.00  0.00    +0.008 A 
ATOM     17  C   UNL     1      -3.435 -11.738  10.762  0.00  0.00    +0.008 A 
ATOM     19  C   UNL     1      -3.513  -9.141   9.744  0.00  0.00    +0.046 A 
ATOM     20  C   UNL     1      -4.163 -11.465   9.604  0.00  0.00    +0.046 A 
ATOM     21  C   UNL     1      -4.202 -10.166   9.095  0.00  0.00    +0.120 A 
BRANCH  21   5
ATOM      5  O   UNL     1      -4.911  -9.900   7.964  0.00  0.00    -0.495 OA
ATOM     25  C   UNL     1      -5.154 -10.991   7.078  0.00  0.00    +0.277 C 
ENDBRANCH  21   5
ENDBRANCH  13  14
ENDBRANCH   6  13
ENDBRANCH   8   6
BRANCH  10  12
ATOM     12  C   UNL     1      -4.565 -11.097  18.166  0.00  0.00    +0.138 C 
BRANCH  12   7
ATOM      4  O   UNL     1      -6.621 -11.370  20.151  0.00  0.00    -0.270 OA
ATOM      7  N   UNL     1      -5.944 -10.727  18.027  0.00  0.00    -0.308 N 
ATOM     15  C   UNL     1      -6.876 -10.896  19.047  0.00  0.00    +0.251 C 
ATOM     28  H   UNL     1      -6.229 -10.341  17.133  0.00  0.00    +0.149 HD
BRANCH  15  18
ATOM      1  S   UNL     1      -9.550 -11.089  19.702  0.00  0.00    -0.092 S 
ATOM     18  C   UNL     1      -8.270 -10.487  18.736  0.00  0.00    +0.074 A 
ATOM     22  C   UNL     1      -8.724  -9.653  17.738  0.00  0.00    +0.021 A 
ATOM     23  C   UNL     1     -10.141  -9.507  17.767  0.00  0.00    +0.008 A 
ATOM     24  C   UNL     1     -10.716 -10.234  18.785  0.00  0.00    +0.046 A 
ENDBRANCH  15  18
ENDBRANCH  12   7
ENDBRANCH  10  12
TORSDOF 8
ENDMDL
MODEL 10
REMARK VINA RESULT:      -6.0      4.658      6.793
REMARK  Name = 75536600
REMARK  9 active torsions:
REMARK  status: ('A' for Active; 'I' for Inactive)
REMARK    1  A    between atoms: O_3  and  C_9
REMARK    2  A    between atoms: O_5  and  C_21
REMARK    3  A    between atoms: O_5  and  C_25
REMARK    4  A    between atoms: N_6  and  C_8
REMARK    5  A    between atoms: N_6  and  C_13
REMARK    6  A    between atoms: N_7  and  C_12
REMARK    7  A    between atoms: C_10  and  C_12
REMARK    8  A    between atoms: C_13  and  C_14
REMARK    9  A    between atoms: C_15  and  C_18
REMARK                            x       y       z     vdW  Elec       q    Type
REMARK                         _______ _______ _______ _____ _____    ______ ____
ROOT
ATOM      2  O   UNL     1      12.084   9.180  20.478  0.00  0.00    -0.371 OA
ATOM      8  C   UNL     1      12.229   9.178  18.107  0.00  0.00    +0.111 C 
ATOM      9  C   UNL     1      12.524   7.781  18.623  0.00  0.00    +0.164 C 
ATOM     10  C   UNL     1      11.886   7.838  20.004  0.00  0.00    +0.165 C 
ATOM     11  C   UNL     1      12.442  10.013  19.360  0.00  0.00    +0.181 C 
ENDROOT
BRANCH   9   3
ATOM      3  O   UNL     1      11.950   6.770  17.817  0.00  0.00    -0.388 OA
ATOM     27  H   UNL     1      12.331   6.838  16.925  0.00  0.00    +0.210 HD
ENDBRANCH   9   3
BRANCH   8   6
ATOM      6  N   UNL     1      13.084   9.587  17.004  0.00  0.00    -0.305 NA
ATOM     26  H   UNL     1      12.620  10.330  16.482  0.00  0.00    +0.123 HD
BRANCH   6  13
ATOM     13  C   UNL     1      14.367  10.081  17.490  0.00  0.00    +0.116 C 
BRANCH  13  14
ATOM     14  C   UNL     1      15.069  10.923  16.458  0.00  0.00    -0.033 A 
ATOM     16  C   UNL     1      15.033  10.554  15.113  0.00  0.00    +0.008 A 
ATOM     17  C   UNL     1      15.757  12.072  16.847  0.00  0.00    +0.008 A 
ATOM     19  C   UNL     1      15.684  11.334  14.158  0.00  0.00    +0.046 A 
ATOM     20  C   UNL     1      16.408  12.853  15.892  0.00  0.00    +0.046 A 
ATOM     21  C   UNL     1      16.371  12.484  14.547  0.00  0.00    +0.120 A 
BRANCH  21   5
ATOM      5  O   UNL     1      17.006  13.246  13.615  0.00  0.00    -0.495 OA
ATOM     25  C   UNL     1      17.442  14.541  14.023  0.00  0.00    +0.277 C 
ENDBRANCH  21   5
ENDBRANCH  13  14
ENDBRANCH   6  13
ENDBRANCH   8   6
BRANCH  10  12
ATOM     12  C   UNL     1      12.494   6.852  20.986  0.00  0.00    +0.138 C 
BRANCH  12   7
ATOM      4  O   UNL     1      14.884   7.917  22.170  0.00  0.00    -0.270 OA
ATOM      7  N   UNL     1      13.846   6.527  20.629  0.00  0.00    -0.308 N 
ATOM     15  C   UNL     1      14.949   7.095  21.260  0.00  0.00    +0.251 C 
ATOM     28  H   UNL     1      13.975   5.863  19.873  0.00  0.00    +0.149 HD
BRANCH  15  18
ATOM      1  S   UNL     1      16.440   6.191  19.121  0.00  0.00    -0.092 S 
ATOM     18  C   UNL     1      16.281   6.673  20.756  0.00  0.00    +0.074 A 
ATOM     22  C   UNL     1      17.479   6.605  21.434  0.00  0.00    +0.021 A 
ATOM     23  C   UNL     1      18.540   6.151  20.599  0.00  0.00    +0.008 A 
ATOM     24  C   UNL     1      18.114   5.889  19.317  0.00  0.00    +0.046 A 
ENDBRANCH  15  18
ENDBRANCH  12   7
ENDBRANCH  10  12
TORSDOF 8
ENDMDL
