MODEL 1
REMARK VINA RESULT:      -7.4      0.000      0.000
REMARK  Name = 45361205
REMARK  7 active torsions:
REMARK  status: ('A' for Active; 'I' for Inactive)
REMARK    1  A    between atoms: O_4  and  C_26
REMARK    2  A    between atoms: N_5  and  C_18
REMARK    3  A    between atoms: N_6  and  C_17
REMARK    4  A    between atoms: C_12  and  C_16
REMARK    5  A    between atoms: C_16  and  C_19
REMARK    6  A    between atoms: C_17  and  C_20
REMARK    7  A    between atoms: C_19  and  C_21
REMARK                            x       y       z     vdW  Elec       q    Type
REMARK                         _______ _______ _______ _____ _____    ______ ____
ROOT
ATOM      2  O   UNL     1      20.142   6.302  23.775  0.00  0.00    -0.274 OA
ATOM      5  N   UNL     1      17.803   6.837  20.735  0.00  0.00    -0.296 NA
ATOM      6  N   UNL     1      21.100   5.402  21.415  0.00  0.00    -0.286 NA
ATOM      7  N   UNL     1      19.170   8.177  22.894  0.00  0.00    -0.312 N 
ATOM      9  C   UNL     1      19.173   6.427  20.354  0.00  0.00    +0.084 C 
ATOM     10  C   UNL     1      20.327   6.657  21.373  0.00  0.00    +0.161 C 
ATOM     11  C   UNL     1      19.312   4.924  20.046  0.00  0.00    +0.036 C 
ATOM     12  C   UNL     1      17.637   8.302  20.953  0.00  0.00    +0.074 C 
ATOM     13  C   UNL     1      20.798   4.671  20.190  0.00  0.00    +0.087 C 
ATOM     14  C   UNL     1      18.772   8.972  21.749  0.00  0.00    +0.123 C 
ATOM     15  C   UNL     1      19.878   6.995  22.792  0.00  0.00    +0.232 C 
ATOM     18  C   UNL     1      16.818   6.352  19.754  0.00  0.00    +0.105 C 
ATOM     32  H   UNL     1      18.911   8.499  23.822  0.00  0.00    +0.149 HD
ENDROOT
BRANCH  12  16
ATOM     16  C   UNL     1      16.315   8.590  21.697  0.00  0.00    +0.029 C 
BRANCH  16  19
ATOM     19  C   UNL     1      15.775   9.970  21.377  0.00  0.00    +0.097 C 
BRANCH  19  21
ATOM      3  O   UNL     1      14.705  10.743  23.346  0.00  0.00    -0.276 OA
ATOM      8  N   UNL     1      13.317  10.025  21.626  0.00  0.00    -0.301 N 
ATOM     21  C   UNL     1      14.557  10.284  22.210  0.00  0.00    +0.216 C 
ATOM     22  C   UNL     1      13.111   9.480  20.277  0.00  0.00    +0.110 C 
ATOM     23  C   UNL     1      12.088  10.347  22.354  0.00  0.00    +0.110 C 
ATOM     24  C   UNL     1      12.211   8.249  20.325  0.00  0.00    +0.050 C 
ATOM     25  C   UNL     1      11.171   9.132  22.439  0.00  0.00    +0.050 C 
ATOM     26  C   UNL     1      10.900   8.546  21.052  0.00  0.00    +0.118 C 
BRANCH  26   4
ATOM      4  O   UNL     1      10.159   7.338  21.175  0.00  0.00    -0.392 OA
ATOM     33  H   UNL     1       9.310   7.467  20.720  0.00  0.00    +0.210 HD
ENDBRANCH  26   4
ENDBRANCH  19  21
ENDBRANCH  16  19
ENDBRANCH  12  16
BRANCH   6  17
ATOM     17  C   UNL     1      22.531   5.610  21.590  0.00  0.00    +0.120 C 
BRANCH  17  20
ATOM      1 CL   UNL     1      23.902   0.930  23.427  0.00  0.00    -0.084 Cl
ATOM     20  C   UNL     1      23.311   4.335  21.412  0.00  0.00    -0.032 A 
ATOM     27  C   UNL     1      23.252   3.339  22.388  0.00  0.00    +0.025 A 
ATOM     28  C   UNL     1      24.090   4.147  20.271  0.00  0.00    +0.005 A 
ATOM     29  C   UNL     1      23.973   2.157  22.223  0.00  0.00    +0.041 A 
ATOM     30  C   UNL     1      24.812   2.965  20.106  0.00  0.00    +0.002 A 
ATOM     31  C   UNL     1      24.752   1.970  21.081  0.00  0.00    +0.020 A 
ENDBRANCH  17  20
ENDBRANCH   6  17
TORSDOF 6
ENDMDL
MODEL 2
REMARK VINA RESULT:      -7.3      1.934      2.347
REMARK  Name = 45361205
REMARK  7 active torsions:
REMARK  status: ('A' for Active; 'I' for Inactive)
REMARK    1  A    between atoms: O_4  and  C_26
REMARK    2  A    between atoms: N_5  and  C_18
REMARK    3  A    between atoms: N_6  and  C_17
REMARK    4  A    between atoms: C_12  and  C_16
REMARK    5  A    between atoms: C_16  and  C_19
REMARK    6  A    between atoms: C_17  and  C_20
REMARK    7  A    between atoms: C_19  and  C_21
REMARK                            x       y       z     vdW  Elec       q    Type
REMARK                         _______ _______ _______ _____ _____    ______ ____
ROOT
ATOM      2  O   UNL     1      19.854   6.548  23.392  0.00  0.00    -0.274 OA
ATOM      5  N   UNL     1      17.159   7.079  20.663  0.00  0.00    -0.296 NA
ATOM      6  N   UNL     1      20.464   5.536  20.963  0.00  0.00    -0.286 NA
ATOM      7  N   UNL     1      18.842   8.431  22.577  0.00  0.00    -0.312 N 
ATOM      9  C   UNL     1      18.452   6.603  20.123  0.00  0.00    +0.084 C 
ATOM     10  C   UNL     1      19.736   6.819  20.976  0.00  0.00    +0.161 C 
ATOM     11  C   UNL     1      18.497   5.087  19.855  0.00  0.00    +0.036 C 
ATOM     12  C   UNL     1      17.074   8.555  20.846  0.00  0.00    +0.074 C 
ATOM     13  C   UNL     1      19.979   4.780  19.814  0.00  0.00    +0.087 C 
ATOM     14  C   UNL     1      18.327   9.205  21.465  0.00  0.00    +0.123 C 
ATOM     15  C   UNL     1      19.489   7.219  22.428  0.00  0.00    +0.232 C 
ATOM     18  C   UNL     1      16.038   6.602  19.835  0.00  0.00    +0.105 C 
ATOM     32  H   UNL     1      18.717   8.792  23.518  0.00  0.00    +0.149 HD
ENDROOT
BRANCH  12  16
ATOM     16  C   UNL     1      15.872   8.919  21.744  0.00  0.00    +0.029 C 
BRANCH  16  19
ATOM     19  C   UNL     1      14.905   9.855  21.044  0.00  0.00    +0.097 C 
BRANCH  19  21
ATOM      3  O   UNL     1      13.189   8.249  21.348  0.00  0.00    -0.276 OA
ATOM      8  N   UNL     1      13.100   9.504  19.395  0.00  0.00    -0.301 N 
ATOM     21  C   UNL     1      13.655   9.127  20.618  0.00  0.00    +0.216 C 
ATOM     22  C   UNL     1      13.633  10.544  18.505  0.00  0.00    +0.110 C 
ATOM     23  C   UNL     1      11.860   8.875  18.933  0.00  0.00    +0.110 C 
ATOM     24  C   UNL     1      13.833   9.997  17.094  0.00  0.00    +0.050 C 
ATOM     25  C   UNL     1      12.030   8.298  17.532  0.00  0.00    +0.050 C 
ATOM     26  C   UNL     1      12.553   9.356  16.559  0.00  0.00    +0.118 C 
BRANCH  26   4
ATOM      4  O   UNL     1      12.832   8.757  15.300  0.00  0.00    -0.392 OA
ATOM     33  H   UNL     1      12.713   9.439  14.617  0.00  0.00    +0.210 HD
ENDBRANCH  26   4
ENDBRANCH  19  21
ENDBRANCH  16  19
ENDBRANCH  12  16
BRANCH   6  17
ATOM     17  C   UNL     1      21.912   5.694  20.944  0.00  0.00    +0.120 C 
BRANCH  17  20
ATOM      1 CL   UNL     1      22.378   1.953  24.542  0.00  0.00    -0.084 Cl
ATOM     20  C   UNL     1      22.618   4.456  21.431  0.00  0.00    -0.032 A 
ATOM     27  C   UNL     1      22.218   3.848  22.622  0.00  0.00    +0.025 A 
ATOM     28  C   UNL     1      23.670   3.916  20.693  0.00  0.00    +0.005 A 
ATOM     29  C   UNL     1      22.871   2.701  23.073  0.00  0.00    +0.041 A 
ATOM     30  C   UNL     1      24.324   2.769  21.144  0.00  0.00    +0.002 A 
ATOM     31  C   UNL     1      23.923   2.161  22.333  0.00  0.00    +0.020 A 
ENDBRANCH  17  20
ENDBRANCH   6  17
TORSDOF 6
ENDMDL
MODEL 3
REMARK VINA RESULT:      -7.0     28.156     31.790
REMARK  Name = 45361205
REMARK  7 active torsions:
REMARK  status: ('A' for Active; 'I' for Inactive)
REMARK    1  A    between atoms: O_4  and  C_26
REMARK    2  A    between atoms: N_5  and  C_18
REMARK    3  A    between atoms: N_6  and  C_17
REMARK    4  A    between atoms: C_12  and  C_16
REMARK    5  A    between atoms: C_16  and  C_19
REMARK    6  A    between atoms: C_17  and  C_20
REMARK    7  A    between atoms: C_19  and  C_21
REMARK                            x       y       z     vdW  Elec       q    Type
REMARK                         _______ _______ _______ _____ _____    ______ ____
ROOT
ATOM      2  O   UNL     1      -5.884  -9.220  16.144  0.00  0.00    -0.274 OA
ATOM      5  N   UNL     1      -8.995 -10.377  18.138  0.00  0.00    -0.296 NA
ATOM      6  N   UNL     1      -5.860 -11.810  16.909  0.00  0.00    -0.286 NA
ATOM      7  N   UNL     1      -8.122  -9.173  15.666  0.00  0.00    -0.312 N 
ATOM      9  C   UNL     1      -8.135 -11.497  17.694  0.00  0.00    +0.084 C 
ATOM     10  C   UNL     1      -7.165 -11.259  16.500  0.00  0.00    +0.161 C 
ATOM     11  C   UNL     1      -7.180 -12.020  18.783  0.00  0.00    +0.036 C 
ATOM     12  C   UNL     1      -9.982  -9.919  17.121  0.00  0.00    +0.074 C 
ATOM     13  C   UNL     1      -6.113 -12.750  17.995  0.00  0.00    +0.087 C 
ATOM     14  C   UNL     1      -9.429  -9.798  15.688  0.00  0.00    +0.123 C 
ATOM     15  C   UNL     1      -6.970  -9.797  16.107  0.00  0.00    +0.232 C 
ATOM     18  C   UNL     1      -9.679 -10.709  19.399  0.00  0.00    +0.105 C 
ATOM     32  H   UNL     1      -8.044  -8.222  15.316  0.00  0.00    +0.149 HD
ENDROOT
BRANCH  12  16
ATOM     16  C   UNL     1     -10.560  -8.542  17.512  0.00  0.00    +0.029 C 
BRANCH  16  19
ATOM     19  C   UNL     1     -11.842  -8.231  16.763  0.00  0.00    +0.097 C 
BRANCH  19  21
ATOM      3  O   UNL     1     -10.997  -6.040  16.442  0.00  0.00    -0.276 OA
ATOM      8  N   UNL     1     -12.477  -6.827  14.833  0.00  0.00    -0.301 N 
ATOM     21  C   UNL     1     -11.728  -6.933  16.004  0.00  0.00    +0.216 C 
ATOM     22  C   UNL     1     -13.354  -7.872  14.288  0.00  0.00    +0.110 C 
ATOM     23  C   UNL     1     -12.384  -5.615  14.016  0.00  0.00    +0.110 C 
ATOM     24  C   UNL     1     -14.755  -7.322  14.033  0.00  0.00    +0.050 C 
ATOM     25  C   UNL     1     -13.766  -5.025  13.757  0.00  0.00    +0.050 C 
ATOM     26  C   UNL     1     -14.709  -6.070  13.157  0.00  0.00    +0.118 C 
BRANCH  26   4
ATOM      4  O   UNL     1     -16.022  -5.532  13.057  0.00  0.00    -0.392 OA
ATOM     33  H   UNL     1     -16.416  -5.552  13.946  0.00  0.00    +0.210 HD
ENDBRANCH  26   4
ENDBRANCH  19  21
ENDBRANCH  16  19
ENDBRANCH  12  16
BRANCH   6  17
ATOM     17  C   UNL     1      -5.122 -12.424  15.813  0.00  0.00    +0.120 C 
BRANCH  17  20
ATOM      1 CL   UNL     1      -1.972 -10.354  12.215  0.00  0.00    -0.084 Cl
ATOM     20  C   UNL     1      -3.865 -11.664  15.487  0.00  0.00    -0.032 A 
ATOM     27  C   UNL     1      -3.538 -11.393  14.157  0.00  0.00    +0.025 A 
ATOM     28  C   UNL     1      -3.026 -11.230  16.512  0.00  0.00    +0.005 A 
ATOM     29  C   UNL     1      -2.374 -10.687  13.854  0.00  0.00    +0.041 A 
ATOM     30  C   UNL     1      -1.860 -10.525  16.210  0.00  0.00    +0.002 A 
ATOM     31  C   UNL     1      -1.535 -10.253  14.881  0.00  0.00    +0.020 A 
ENDBRANCH  17  20
ENDBRANCH   6  17
TORSDOF 6
ENDMDL
MODEL 4
REMARK VINA RESULT:      -7.0     28.741     31.361
REMARK  Name = 45361205
REMARK  7 active torsions:
REMARK  status: ('A' for Active; 'I' for Inactive)
REMARK    1  A    between atoms: O_4  and  C_26
REMARK    2  A    between atoms: N_5  and  C_18
REMARK    3  A    between atoms: N_6  and  C_17
REMARK    4  A    between atoms: C_12  and  C_16
REMARK    5  A    between atoms: C_16  and  C_19
REMARK    6  A    between atoms: C_17  and  C_20
REMARK    7  A    between atoms: C_19  and  C_21
REMARK                            x       y       z     vdW  Elec       q    Type
REMARK                         _______ _______ _______ _____ _____    ______ ____
ROOT
ATOM      2  O   UNL     1      -5.582  -9.849  14.848  0.00  0.00    -0.274 OA
ATOM      5  N   UNL     1      -3.710 -13.223  14.518  0.00  0.00    -0.296 NA
ATOM      6  N   UNL     1      -6.097 -11.644  16.799  0.00  0.00    -0.286 NA
ATOM      7  N   UNL     1      -3.358 -10.364  14.683  0.00  0.00    -0.312 N 
ATOM      9  C   UNL     1      -4.365 -13.044  15.833  0.00  0.00    +0.084 C 
ATOM     10  C   UNL     1      -4.711 -11.598  16.299  0.00  0.00    +0.161 C 
ATOM     11  C   UNL     1      -5.727 -13.753  15.954  0.00  0.00    +0.036 C 
ATOM     12  C   UNL     1      -2.355 -12.612  14.417  0.00  0.00    +0.074 C 
ATOM     13  C   UNL     1      -6.395 -13.037  17.109  0.00  0.00    +0.087 C 
ATOM     14  C   UNL     1      -2.230 -11.204  15.030  0.00  0.00    +0.123 C 
ATOM     15  C   UNL     1      -4.624 -10.531  15.211  0.00  0.00    +0.232 C 
ATOM     18  C   UNL     1      -3.657 -14.647  14.149  0.00  0.00    +0.105 C 
ATOM     32  H   UNL     1      -3.218  -9.615  14.011  0.00  0.00    +0.149 HD
ENDROOT
BRANCH  12  16
ATOM     16  C   UNL     1      -1.915 -12.516  12.941  0.00  0.00    +0.029 C 
BRANCH  16  19
ATOM     19  C   UNL     1      -3.075 -12.178  12.025  0.00  0.00    +0.097 C 
BRANCH  19  21
ATOM      3  O   UNL     1      -1.914 -10.138  11.699  0.00  0.00    -0.276 OA
ATOM      8  N   UNL     1      -3.825 -10.460  10.416  0.00  0.00    -0.301 N 
ATOM     21  C   UNL     1      -2.878 -10.834  11.370  0.00  0.00    +0.216 C 
ATOM     22  C   UNL     1      -4.981 -11.267  10.006  0.00  0.00    +0.110 C 
ATOM     23  C   UNL     1      -3.677  -9.189   9.703  0.00  0.00    +0.110 C 
ATOM     24  C   UNL     1      -6.272 -10.461  10.127  0.00  0.00    +0.050 C 
ATOM     25  C   UNL     1      -4.943  -8.347   9.820  0.00  0.00    +0.050 C 
ATOM     26  C   UNL     1      -6.174  -9.136   9.371  0.00  0.00    +0.118 C 
BRANCH  26   4
ATOM      4  O   UNL     1      -7.351  -8.378   9.622  0.00  0.00    -0.392 OA
ATOM     33  H   UNL     1      -7.662  -8.605  10.515  0.00  0.00    +0.210 HD
ENDBRANCH  26   4
ENDBRANCH  19  21
ENDBRANCH  16  19
ENDBRANCH  12  16
BRANCH   6  17
ATOM     17  C   UNL     1      -6.329 -10.766  17.939  0.00  0.00    +0.120 C 
BRANCH  17  20
ATOM      1 CL   UNL     1      -9.847  -7.369  16.138  0.00  0.00    -0.084 Cl
ATOM     20  C   UNL     1      -7.738 -10.238  17.963  0.00  0.00    -0.032 A 
ATOM     27  C   UNL     1      -8.098  -9.173  17.136  0.00  0.00    +0.025 A 
ATOM     28  C   UNL     1      -8.685 -10.812  18.811  0.00  0.00    +0.005 A 
ATOM     29  C   UNL     1      -9.404  -8.683  17.157  0.00  0.00    +0.041 A 
ATOM     30  C   UNL     1      -9.991 -10.322  18.832  0.00  0.00    +0.002 A 
ATOM     31  C   UNL     1     -10.350  -9.259  18.005  0.00  0.00    +0.020 A 
ENDBRANCH  17  20
ENDBRANCH   6  17
TORSDOF 6
ENDMDL
MODEL 5
REMARK VINA RESULT:      -6.9     28.860     31.330
REMARK  Name = 45361205
REMARK  7 active torsions:
REMARK  status: ('A' for Active; 'I' for Inactive)
REMARK    1  A    between atoms: O_4  and  C_26
REMARK    2  A    between atoms: N_5  and  C_18
REMARK    3  A    between atoms: N_6  and  C_17
REMARK    4  A    between atoms: C_12  and  C_16
REMARK    5  A    between atoms: C_16  and  C_19
REMARK    6  A    between atoms: C_17  and  C_20
REMARK    7  A    between atoms: C_19  and  C_21
REMARK                            x       y       z     vdW  Elec       q    Type
REMARK                         _______ _______ _______ _____ _____    ______ ____
ROOT
ATOM      2  O   UNL     1      -6.880 -10.331  13.730  0.00  0.00    -0.274 OA
ATOM      5  N   UNL     1      -6.887 -10.824  17.571  0.00  0.00    -0.296 NA
ATOM      6  N   UNL     1      -4.495 -11.000  14.807  0.00  0.00    -0.286 NA
ATOM      7  N   UNL     1      -8.108 -11.689  15.104  0.00  0.00    -0.312 N 
ATOM      9  C   UNL     1      -5.646 -11.303  16.922  0.00  0.00    +0.084 C 
ATOM     10  C   UNL     1      -5.685 -11.636  15.402  0.00  0.00    +0.161 C 
ATOM     11  C   UNL     1      -4.475 -10.306  17.001  0.00  0.00    +0.036 C 
ATOM     12  C   UNL     1      -8.000 -11.814  17.575  0.00  0.00    +0.074 C 
ATOM     13  C   UNL     1      -3.550 -10.759  15.891  0.00  0.00    +0.087 C 
ATOM     14  C   UNL     1      -8.200 -12.572  16.249  0.00  0.00    +0.123 C 
ATOM     15  C   UNL     1      -6.922 -11.135  14.662  0.00  0.00    +0.232 C 
ATOM     18  C   UNL     1      -6.615 -10.355  18.940  0.00  0.00    +0.105 C 
ATOM     32  H   UNL     1      -8.959 -11.456  14.601  0.00  0.00    +0.149 HD
ENDROOT
BRANCH  12  16
ATOM     16  C   UNL     1      -9.336 -11.121  17.918  0.00  0.00    +0.029 C 
BRANCH  16  19
ATOM     19  C   UNL     1      -9.469  -9.774  17.233  0.00  0.00    +0.097 C 
BRANCH  19  21
ATOM      3  O   UNL     1     -11.094 -10.757  15.815  0.00  0.00    -0.276 OA
ATOM      8  N   UNL     1     -11.325  -8.483  16.237  0.00  0.00    -0.301 N 
ATOM     21  C   UNL     1     -10.701  -9.725  16.365  0.00  0.00    +0.216 C 
ATOM     22  C   UNL     1     -10.879  -7.239  16.878  0.00  0.00    +0.110 C 
ATOM     23  C   UNL     1     -12.553  -8.364  15.447  0.00  0.00    +0.110 C 
ATOM     24  C   UNL     1     -10.714  -6.128  15.844  0.00  0.00    +0.050 C 
ATOM     25  C   UNL     1     -12.416  -7.275  14.389  0.00  0.00    +0.050 C 
ATOM     26  C   UNL     1     -11.985  -5.947  15.015  0.00  0.00    +0.118 C 
BRANCH  26   4
ATOM      4  O   UNL     1     -11.732  -4.992  13.992  0.00  0.00    -0.392 OA
ATOM     33  H   UNL     1     -11.990  -5.394  13.145  0.00  0.00    +0.210 HD
ENDBRANCH  26   4
ENDBRANCH  19  21
ENDBRANCH  16  19
ENDBRANCH  12  16
BRANCH   6  17
ATOM     17  C   UNL     1      -3.903 -11.778  13.726  0.00  0.00    +0.120 C 
BRANCH  17  20
ATOM      1 CL   UNL     1      -0.390  -8.932  11.135  0.00  0.00    -0.084 Cl
ATOM     20  C   UNL     1      -3.566 -10.921  12.536  0.00  0.00    -0.032 A 
ATOM     27  C   UNL     1      -2.284 -10.386  12.402  0.00  0.00    +0.025 A 
ATOM     28  C   UNL     1      -4.533 -10.662  11.566  0.00  0.00    +0.005 A 
ATOM     29  C   UNL     1      -1.970  -9.593  11.298  0.00  0.00    +0.041 A 
ATOM     30  C   UNL     1      -4.220  -9.867  10.462  0.00  0.00    +0.002 A 
ATOM     31  C   UNL     1      -2.939  -9.334  10.329  0.00  0.00    +0.020 A 
ENDBRANCH  17  20
ENDBRANCH   6  17
TORSDOF 6
ENDMDL
MODEL 6
REMARK VINA RESULT:      -6.8     29.225     32.029
REMARK  Name = 45361205
REMARK  7 active torsions:
REMARK  status: ('A' for Active; 'I' for Inactive)
REMARK    1  A    between atoms: O_4  and  C_26
REMARK    2  A    between atoms: N_5  and  C_18
REMARK    3  A    between atoms: N_6  and  C_17
REMARK    4  A    between atoms: C_12  and  C_16
REMARK    5  A    between atoms: C_16  and  C_19
REMARK    6  A    between atoms: C_17  and  C_20
REMARK    7  A    between atoms: C_19  and  C_21
REMARK                            x       y       z     vdW  Elec       q    Type
REMARK                         _______ _______ _______ _____ _____    ______ ____
ROOT
ATOM      2  O   UNL     1      -6.975  -9.253  16.566  0.00  0.00    -0.274 OA
ATOM      5  N   UNL     1      -4.978 -12.421  15.578  0.00  0.00    -0.296 NA
ATOM      6  N   UNL     1      -7.783 -11.539  17.756  0.00  0.00    -0.286 NA
ATOM      7  N   UNL     1      -4.744  -9.757  16.660  0.00  0.00    -0.312 N 
ATOM      9  C   UNL     1      -5.866 -12.630  16.744  0.00  0.00    +0.084 C 
ATOM     10  C   UNL     1      -6.331 -11.383  17.553  0.00  0.00    +0.161 C 
ATOM     11  C   UNL     1      -7.206 -13.304  16.397  0.00  0.00    +0.036 C 
ATOM     12  C   UNL     1      -3.645 -11.848  15.914  0.00  0.00    +0.074 C 
ATOM     13  C   UNL     1      -8.093 -12.952  17.572  0.00  0.00    +0.087 C 
ATOM     14  C   UNL     1      -3.673 -10.694  16.935  0.00  0.00    +0.123 C 
ATOM     15  C   UNL     1      -6.080 -10.040  16.874  0.00  0.00    +0.232 C 
ATOM     18  C   UNL     1      -4.819 -13.669  14.812  0.00  0.00    +0.105 C 
ATOM     32  H   UNL     1      -4.505  -8.844  16.282  0.00  0.00    +0.149 HD
ENDROOT
BRANCH  12  16
ATOM     16  C   UNL     1      -2.948 -11.322  14.641  0.00  0.00    +0.029 C 
BRANCH  16  19
ATOM     19  C   UNL     1      -3.931 -10.683  13.679  0.00  0.00    +0.097 C 
BRANCH  19  21
ATOM      3  O   UNL     1      -2.071 -10.453  12.228  0.00  0.00    -0.276 OA
ATOM      8  N   UNL     1      -4.174 -10.259  11.257  0.00  0.00    -0.301 N 
ATOM     21  C   UNL     1      -3.301 -10.457  12.327  0.00  0.00    +0.216 C 
ATOM     22  C   UNL     1      -5.640 -10.258  11.346  0.00  0.00    +0.110 C 
ATOM     23  C   UNL     1      -3.639 -10.078   9.906  0.00  0.00    +0.110 C 
ATOM     24  C   UNL     1      -6.217  -8.983  10.737  0.00  0.00    +0.050 C 
ATOM     25  C   UNL     1      -4.179  -8.801   9.272  0.00  0.00    +0.050 C 
ATOM     26  C   UNL     1      -5.708  -8.769   9.311  0.00  0.00    +0.118 C 
BRANCH  26   4
ATOM      4  O   UNL     1      -6.176  -7.510   8.843  0.00  0.00    -0.392 OA
ATOM     33  H   UNL     1      -5.396  -6.963   8.644  0.00  0.00    +0.210 HD
ENDBRANCH  26   4
ENDBRANCH  19  21
ENDBRANCH  16  19
ENDBRANCH  12  16
BRANCH   6  17
ATOM     17  C   UNL     1      -8.243 -11.041  19.046  0.00  0.00    +0.120 C 
BRANCH  17  20
ATOM      1 CL   UNL     1     -12.996 -10.723  21.159  0.00  0.00    -0.084 Cl
ATOM     20  C   UNL     1      -9.651 -10.513  18.975  0.00  0.00    -0.032 A 
ATOM     27  C   UNL     1     -10.565 -10.826  19.982  0.00  0.00    +0.025 A 
ATOM     28  C   UNL     1     -10.042  -9.711  17.904  0.00  0.00    +0.005 A 
ATOM     29  C   UNL     1     -11.870 -10.335  19.917  0.00  0.00    +0.041 A 
ATOM     30  C   UNL     1     -11.347  -9.221  17.838  0.00  0.00    +0.002 A 
ATOM     31  C   UNL     1     -12.260  -9.533  18.846  0.00  0.00    +0.020 A 
ENDBRANCH  17  20
ENDBRANCH   6  17
TORSDOF 6
ENDMDL
MODEL 7
REMARK VINA RESULT:      -6.7     20.356     23.040
REMARK  Name = 45361205
REMARK  7 active torsions:
REMARK  status: ('A' for Active; 'I' for Inactive)
REMARK    1  A    between atoms: O_4  and  C_26
REMARK    2  A    between atoms: N_5  and  C_18
REMARK    3  A    between atoms: N_6  and  C_17
REMARK    4  A    between atoms: C_12  and  C_16
REMARK    5  A    between atoms: C_16  and  C_19
REMARK    6  A    between atoms: C_17  and  C_20
REMARK    7  A    between atoms: C_19  and  C_21
REMARK                            x       y       z     vdW  Elec       q    Type
REMARK                         _______ _______ _______ _____ _____    ______ ____
ROOT
ATOM      2  O   UNL     1      10.854   4.026   3.746  0.00  0.00    -0.274 OA
ATOM      5  N   UNL     1      12.884   5.824   0.981  0.00  0.00    -0.296 NA
ATOM      6  N   UNL     1      10.653   6.720   3.740  0.00  0.00    -0.286 NA
ATOM      7  N   UNL     1      10.865   3.821   1.466  0.00  0.00    -0.312 N 
ATOM      9  C   UNL     1      11.922   6.712   1.671  0.00  0.00    +0.084 C 
ATOM     10  C   UNL     1      10.721   6.064   2.421  0.00  0.00    +0.161 C 
ATOM     11  C   UNL     1      12.555   7.583   2.772  0.00  0.00    +0.036 C 
ATOM     12  C   UNL     1      12.300   5.039  -0.143  0.00  0.00    +0.074 C 
ATOM     13  C   UNL     1      11.372   7.983   3.628  0.00  0.00    +0.087 C 
ATOM     14  C   UNL     1      10.920   4.418   0.147  0.00  0.00    +0.123 C 
ATOM     15  C   UNL     1      10.830   4.557   2.635  0.00  0.00    +0.232 C 
ATOM     18  C   UNL     1      14.058   6.583   0.518  0.00  0.00    +0.105 C 
ATOM     32  H   UNL     1      10.858   2.808   1.541  0.00  0.00    +0.149 HD
ENDROOT
BRANCH  12  16
ATOM     16  C   UNL     1      13.249   3.891  -0.549  0.00  0.00    +0.029 C 
BRANCH  16  19
ATOM     19  C   UNL     1      12.595   2.934  -1.527  0.00  0.00    +0.097 C 
BRANCH  19  21
ATOM      3  O   UNL     1      13.767   4.034  -3.269  0.00  0.00    -0.276 OA
ATOM      8  N   UNL     1      11.698   3.133  -3.820  0.00  0.00    -0.301 N 
ATOM     21  C   UNL     1      12.748   3.418  -2.947  0.00  0.00    +0.216 C 
ATOM     22  C   UNL     1      10.473   2.403  -3.465  0.00  0.00    +0.110 C 
ATOM     23  C   UNL     1      11.792   3.529  -5.227  0.00  0.00    +0.110 C 
ATOM     24  C   UNL     1       9.235   3.207  -3.852  0.00  0.00    +0.050 C 
ATOM     25  C   UNL     1      10.579   4.354  -5.643  0.00  0.00    +0.050 C 
ATOM     26  C   UNL     1       9.276   3.619  -5.323  0.00  0.00    +0.118 C 
BRANCH  26   4
ATOM      4  O   UNL     1       8.166   4.466  -5.593  0.00  0.00    -0.392 OA
ATOM     33  H   UNL     1       8.515   5.351  -5.798  0.00  0.00    +0.210 HD
ENDBRANCH  26   4
ENDBRANCH  19  21
ENDBRANCH  16  19
ENDBRANCH  12  16
BRANCH   6  17
ATOM     17  C   UNL     1       9.291   6.904   4.224  0.00  0.00    +0.120 C 
BRANCH  17  20
ATOM      1 CL   UNL     1       9.709   4.056   8.568  0.00  0.00    -0.084 Cl
ATOM     20  C   UNL     1       9.213   6.827   5.725  0.00  0.00    -0.032 A 
ATOM     27  C   UNL     1       9.467   5.618   6.375  0.00  0.00    +0.025 A 
ATOM     28  C   UNL     1       8.888   7.962   6.467  0.00  0.00    +0.005 A 
ATOM     29  C   UNL     1       9.397   5.546   7.767  0.00  0.00    +0.041 A 
ATOM     30  C   UNL     1       8.816   7.890   7.858  0.00  0.00    +0.002 A 
ATOM     31  C   UNL     1       9.071   6.682   8.508  0.00  0.00    +0.020 A 
ENDBRANCH  17  20
ENDBRANCH   6  17
TORSDOF 6
ENDMDL
MODEL 8
REMARK VINA RESULT:      -6.6     18.784     20.894
REMARK  Name = 45361205
REMARK  7 active torsions:
REMARK  status: ('A' for Active; 'I' for Inactive)
REMARK    1  A    between atoms: O_4  and  C_26
REMARK    2  A    between atoms: N_5  and  C_18
REMARK    3  A    between atoms: N_6  and  C_17
REMARK    4  A    between atoms: C_12  and  C_16
REMARK    5  A    between atoms: C_16  and  C_19
REMARK    6  A    between atoms: C_17  and  C_20
REMARK    7  A    between atoms: C_19  and  C_21
REMARK                            x       y       z     vdW  Elec       q    Type
REMARK                         _______ _______ _______ _____ _____    ______ ____
ROOT
ATOM      2  O   UNL     1      11.367   6.043  -0.355  0.00  0.00    -0.274 OA
ATOM      5  N   UNL     1      12.231   7.674   3.050  0.00  0.00    -0.296 NA
ATOM      6  N   UNL     1      13.590   5.088   0.845  0.00  0.00    -0.286 NA
ATOM      7  N   UNL     1      10.176   6.275   1.586  0.00  0.00    -0.312 N 
ATOM      9  C   UNL     1      13.019   6.453   2.769  0.00  0.00    +0.084 C 
ATOM     10  C   UNL     1      12.463   5.434   1.731  0.00  0.00    +0.161 C 
ATOM     11  C   UNL     1      14.430   6.732   2.220  0.00  0.00    +0.036 C 
ATOM     12  C   UNL     1      10.896   7.418   3.661  0.00  0.00    +0.074 C 
ATOM     13  C   UNL     1      14.816   5.426   1.559  0.00  0.00    +0.087 C 
ATOM     14  C   UNL     1      10.107   6.254   3.033  0.00  0.00    +0.123 C 
ATOM     15  C   UNL     1      11.313   5.949   0.871  0.00  0.00    +0.232 C 
ATOM     18  C   UNL     1      13.001   8.615   3.880  0.00  0.00    +0.105 C 
ATOM     32  H   UNL     1       9.348   6.549   1.064  0.00  0.00    +0.149 HD
ENDROOT
BRANCH  12  16
ATOM     16  C   UNL     1      10.011   8.680   3.570  0.00  0.00    +0.029 C 
BRANCH  16  19
ATOM     19  C   UNL     1       8.710   8.515   4.332  0.00  0.00    +0.097 C 
BRANCH  19  21
ATOM      3  O   UNL     1       9.243   9.678   6.327  0.00  0.00    -0.276 OA
ATOM      8  N   UNL     1       8.783   7.410   6.540  0.00  0.00    -0.301 N 
ATOM     21  C   UNL     1       8.936   8.595   5.820  0.00  0.00    +0.216 C 
ATOM     22  C   UNL     1       8.419   6.109   5.964  0.00  0.00    +0.110 C 
ATOM     23  C   UNL     1       8.941   7.417   7.996  0.00  0.00    +0.110 C 
ATOM     24  C   UNL     1       9.427   5.038   6.372  0.00  0.00    +0.050 C 
ATOM     25  C   UNL     1       9.958   6.370   8.439  0.00  0.00    +0.050 C 
ATOM     26  C   UNL     1       9.602   4.988   7.889  0.00  0.00    +0.118 C 
BRANCH  26   4
ATOM      4  O   UNL     1      10.639   4.065   8.201  0.00  0.00    -0.392 OA
ATOM     33  H   UNL     1      11.098   3.848   7.371  0.00  0.00    +0.210 HD
ENDBRANCH  26   4
ENDBRANCH  19  21
ENDBRANCH  16  19
ENDBRANCH  12  16
BRANCH   6  17
ATOM     17  C   UNL     1      13.576   3.699   0.407  0.00  0.00    +0.120 C 
BRANCH  17  20
ATOM      1 CL   UNL     1      10.341   1.844  -3.233  0.00  0.00    -0.084 Cl
ATOM     20  C   UNL     1      13.212   3.572  -1.048  0.00  0.00    -0.032 A 
ATOM     27  C   UNL     1      12.078   2.851  -1.423  0.00  0.00    +0.025 A 
ATOM     28  C   UNL     1      14.006   4.176  -2.022  0.00  0.00    +0.005 A 
ATOM     29  C   UNL     1      11.738   2.735  -2.772  0.00  0.00    +0.041 A 
ATOM     30  C   UNL     1      13.668   4.060  -3.370  0.00  0.00    +0.002 A 
ATOM     31  C   UNL     1      12.534   3.339  -3.744  0.00  0.00    +0.020 A 
ENDBRANCH  17  20
ENDBRANCH   6  17
TORSDOF 6
ENDMDL
MODEL 9
REMARK VINA RESULT:      -6.6     30.518     33.001
REMARK  Name = 45361205
REMARK  7 active torsions:
REMARK  status: ('A' for Active; 'I' for Inactive)
REMARK    1  A    between atoms: O_4  and  C_26
REMARK    2  A    between atoms: N_5  and  C_18
REMARK    3  A    between atoms: N_6  and  C_17
REMARK    4  A    between atoms: C_12  and  C_16
REMARK    5  A    between atoms: C_16  and  C_19
REMARK    6  A    between atoms: C_17  and  C_20
REMARK    7  A    between atoms: C_19  and  C_21
REMARK                            x       y       z     vdW  Elec       q    Type
REMARK                         _______ _______ _______ _____ _____    ______ ____
ROOT
ATOM      2  O   UNL     1     -10.132  -8.484  18.025  0.00  0.00    -0.274 OA
ATOM      5  N   UNL     1     -11.446  -8.452  14.383  0.00  0.00    -0.296 NA
ATOM      6  N   UNL     1      -8.492  -9.617  16.202  0.00  0.00    -0.286 NA
ATOM      7  N   UNL     1     -10.816  -6.786  16.652  0.00  0.00    -0.312 N 
ATOM      9  C   UNL     1     -10.020  -8.833  14.486  0.00  0.00    +0.084 C 
ATOM     10  C   UNL     1      -9.232  -8.419  15.764  0.00  0.00    +0.161 C 
ATOM     11  C   UNL     1      -9.774 -10.353  14.438  0.00  0.00    +0.036 C 
ATOM     12  C   UNL     1     -11.689  -6.982  14.343  0.00  0.00    +0.074 C 
ATOM     13  C   UNL     1      -8.399 -10.507  15.051  0.00  0.00    +0.087 C 
ATOM     14  C   UNL     1     -10.858  -6.160  15.346  0.00  0.00    +0.123 C 
ATOM     15  C   UNL     1     -10.095  -7.933  16.926  0.00  0.00    +0.232 C 
ATOM     18  C   UNL     1     -12.081  -9.106  13.226  0.00  0.00    +0.105 C 
ATOM     32  H   UNL     1     -11.349  -6.367  17.409  0.00  0.00    +0.149 HD
ENDROOT
BRANCH  12  16
ATOM     16  C   UNL     1     -13.178  -6.675  14.613  0.00  0.00    +0.029 C 
BRANCH  16  19
ATOM     19  C   UNL     1     -13.519  -5.226  14.320  0.00  0.00    +0.097 C 
BRANCH  19  21
ATOM      3  O   UNL     1     -15.518  -5.741  13.155  0.00  0.00    -0.276 OA
ATOM      8  N   UNL     1     -14.042  -4.294  12.093  0.00  0.00    -0.301 N 
ATOM     21  C   UNL     1     -14.455  -5.115  13.143  0.00  0.00    +0.216 C 
ATOM     22  C   UNL     1     -12.784  -3.538  12.051  0.00  0.00    +0.110 C 
ATOM     23  C   UNL     1     -14.917  -4.098  10.935  0.00  0.00    +0.110 C 
ATOM     24  C   UNL     1     -12.011  -3.847  10.771  0.00  0.00    +0.050 C 
ATOM     25  C   UNL     1     -14.183  -4.418   9.637  0.00  0.00    +0.050 C 
ATOM     26  C   UNL     1     -12.878  -3.627   9.531  0.00  0.00    +0.118 C 
BRANCH  26   4
ATOM      4  O   UNL     1     -12.151  -4.049   8.383  0.00  0.00    -0.392 OA
ATOM     33  H   UNL     1     -12.083  -3.286   7.783  0.00  0.00    +0.210 HD
ENDBRANCH  26   4
ENDBRANCH  19  21
ENDBRANCH  16  19
ENDBRANCH  12  16
BRANCH   6  17
ATOM     17  C   UNL     1      -7.184  -9.313  16.768  0.00  0.00    +0.120 C 
BRANCH  17  20
ATOM      1 CL   UNL     1      -3.493 -11.993  19.288  0.00  0.00    -0.084 Cl
ATOM     20  C   UNL     1      -6.813 -10.269  17.869  0.00  0.00    -0.032 A 
ATOM     27  C   UNL     1      -5.480 -10.644  18.048  0.00  0.00    +0.025 A 
ATOM     28  C   UNL     1      -7.799 -10.780  18.712  0.00  0.00    +0.005 A 
ATOM     29  C   UNL     1      -5.136 -11.529  19.070  0.00  0.00    +0.041 A 
ATOM     30  C   UNL     1      -7.455 -11.666  19.734  0.00  0.00    +0.002 A 
ATOM     31  C   UNL     1      -6.123 -12.040  19.912  0.00  0.00    +0.020 A 
ENDBRANCH  17  20
ENDBRANCH   6  17
TORSDOF 6
ENDMDL
MODEL 10
REMARK VINA RESULT:      -6.6     29.527     31.630
REMARK  Name = 45361205
REMARK  7 active torsions:
REMARK  status: ('A' for Active; 'I' for Inactive)
REMARK    1  A    between atoms: O_4  and  C_26
REMARK    2  A    between atoms: N_5  and  C_18
REMARK    3  A    between atoms: N_6  and  C_17
REMARK    4  A    between atoms: C_12  and  C_16
REMARK    5  A    between atoms: C_16  and  C_19
REMARK    6  A    between atoms: C_17  and  C_20
REMARK    7  A    between atoms: C_19  and  C_21
REMARK                            x       y       z     vdW  Elec       q    Type
REMARK                         _______ _______ _______ _____ _____    ______ ____
ROOT
ATOM      2  O   UNL     1      -5.879  -8.965  12.541  0.00  0.00    -0.274 OA
ATOM      5  N   UNL     1      -5.122 -11.319   9.561  0.00  0.00    -0.296 NA
ATOM      6  N   UNL     1      -4.438 -11.166  13.153  0.00  0.00    -0.286 NA
ATOM      7  N   UNL     1      -4.859  -8.612  10.523  0.00  0.00    -0.312 N 
ATOM      9  C   UNL     1      -4.339 -11.643  10.775  0.00  0.00    +0.084 C 
ATOM     10  C   UNL     1      -4.150 -10.534  11.852  0.00  0.00    +0.161 C 
ATOM     11  C   UNL     1      -4.924 -12.800  11.606  0.00  0.00    +0.036 C 
ATOM     12  C   UNL     1      -4.520 -10.259   8.704  0.00  0.00    +0.074 C 
ATOM     13  C   UNL     1      -4.297 -12.605  12.970  0.00  0.00    +0.087 C 
ATOM     14  C   UNL     1      -3.961  -9.045   9.471  0.00  0.00    +0.123 C 
ATOM     15  C   UNL     1      -5.058  -9.318  11.694  0.00  0.00    +0.232 C 
ATOM     18  C   UNL     1      -5.380 -12.532   8.766  0.00  0.00    +0.105 C 
ATOM     32  H   UNL     1      -5.377  -7.748  10.393  0.00  0.00    +0.149 HD
ENDROOT
BRANCH  12  16
ATOM     16  C   UNL     1      -5.558  -9.730   7.692  0.00  0.00    +0.029 C 
BRANCH  16  19
ATOM     19  C   UNL     1      -6.979  -9.909   8.191  0.00  0.00    +0.097 C 
BRANCH  19  21
ATOM      3  O   UNL     1      -7.620  -8.187   9.688  0.00  0.00    -0.276 OA
ATOM      8  N   UNL     1      -8.163  -7.871   7.451  0.00  0.00    -0.301 N 
ATOM     21  C   UNL     1      -7.612  -8.580   8.518  0.00  0.00    +0.216 C 
ATOM     22  C   UNL     1      -8.169  -8.315   6.050  0.00  0.00    +0.110 C 
ATOM     23  C   UNL     1      -8.755  -6.552   7.681  0.00  0.00    +0.110 C 
ATOM     24  C   UNL     1      -9.585  -8.286   5.481  0.00  0.00    +0.050 C 
ATOM     25  C   UNL     1     -10.180  -6.492   7.142  0.00  0.00    +0.050 C 
ATOM     26  C   UNL     1     -10.233  -6.915   5.672  0.00  0.00    +0.118 C 
BRANCH  26   4
ATOM      4  O   UNL     1     -11.586  -6.983   5.239  0.00  0.00    -0.392 OA
ATOM     33  H   UNL     1     -11.800  -7.920   5.093  0.00  0.00    +0.210 HD
ENDBRANCH  26   4
ENDBRANCH  19  21
ENDBRANCH  16  19
ENDBRANCH  12  16
BRANCH   6  17
ATOM     17  C   UNL     1      -3.601 -10.666  14.236  0.00  0.00    +0.120 C 
BRANCH  17  20
ATOM      1 CL   UNL     1      -3.788 -12.045  19.257  0.00  0.00    -0.084 Cl
ATOM     20  C   UNL     1      -4.335 -10.646  15.550  0.00  0.00    -0.032 A 
ATOM     27  C   UNL     1      -3.786 -11.281  16.665  0.00  0.00    +0.025 A 
ATOM     28  C   UNL     1      -5.563  -9.994  15.653  0.00  0.00    +0.005 A 
ATOM     29  C   UNL     1      -4.465 -11.261  17.883  0.00  0.00    +0.041 A 
ATOM     30  C   UNL     1      -6.243  -9.975  16.872  0.00  0.00    +0.002 A 
ATOM     31  C   UNL     1      -5.693 -10.608  17.986  0.00  0.00    +0.020 A 
ENDBRANCH  17  20
ENDBRANCH   6  17
TORSDOF 6
ENDMDL
