REMARK  Name = 51137592
REMARK  6 active torsions:
REMARK  status: ('A' for Active; 'I' for Inactive)
REMARK    1  A    between atoms: O_4  and  C_18
REMARK    2  A    between atoms: O_4  and  C_22
REMARK    3  A    between atoms: N_5  and  C_12
REMARK    4  A    between atoms: C_8  and  C_13
REMARK    5  A    between atoms: C_12  and  C_14
REMARK    6  A    between atoms: C_15  and  C_18
REMARK                            x       y       z     vdW  Elec       q    Type
REMARK                         _______ _______ _______ _____ _____    ______ ____
ROOT
ATOM      3  O   UNL     1       1.290   0.044  -0.347  0.00  0.00    -0.421 OA
ATOM      6  N   UNL     1       0.347   2.073  -0.341  0.00  0.00    -0.112 NA
ATOM      7  N   UNL     1       1.692   2.228  -0.622  0.00  0.00    -0.109 NA
ATOM     13  C   UNL     1       0.158   0.783  -0.188  0.00  0.00    +0.222 A 
ATOM     15  C   UNL     1       2.202   1.018  -0.615  0.00  0.00    +0.254 A 
ENDROOT
BRANCH  13   8
ATOM      5  N   UNL     1      -3.439   0.086  -0.147  0.00  0.00    -0.297 NA
ATOM      8  C   UNL     1      -1.111   0.027   0.130  0.00  0.00    +0.092 C 
ATOM      9  C   UNL     1      -1.778   0.414   1.461  0.00  0.00    +0.029 C 
ATOM     10  C   UNL     1      -2.207   0.226  -0.926  0.00  0.00    +0.097 C 
ATOM     11  C   UNL     1      -3.193   0.835   1.086  0.00  0.00    +0.085 C 
BRANCH   5  12
ATOM     12  C   UNL     1      -4.609   0.571  -0.865  0.00  0.00    +0.121 C 
BRANCH  12  14
ATOM      1 CL   UNL     1      -5.384  -2.358  -1.465  0.00  0.00    -0.083 Cl
ATOM     14  C   UNL     1      -5.888   0.042  -0.275  0.00  0.00    -0.015 A 
ATOM     16  C   UNL     1      -6.310  -1.269  -0.498  0.00  0.00    +0.045 A 
ATOM     17  C   UNL     1      -6.659   0.898   0.512  0.00  0.00    +0.006 A 
ATOM     19  C   UNL     1      -7.503  -1.723   0.066  0.00  0.00    +0.020 A 
ATOM     20  C   UNL     1      -7.851   0.444   1.076  0.00  0.00    +0.000 A 
ATOM     21  C   UNL     1      -8.273  -0.867   0.853  0.00  0.00    +0.001 A 
ENDBRANCH  12  14
ENDBRANCH   5  12
ENDBRANCH  13   8
BRANCH  15  18
ATOM     18  C   UNL     1       3.585   0.585  -0.853  0.00  0.00    +0.326 C 
BRANCH  18   4
ATOM      4  O   UNL     1       4.211   0.226   0.382  0.00  0.00    -0.483 OA
BRANCH   4  22
ATOM      2  F   UNL     1       9.502  -1.234   0.108  0.00  0.00    -0.205 F 
ATOM     22  C   UNL     1       5.527  -0.137   0.314  0.00  0.00    +0.121 A 
ATOM     23  C   UNL     1       6.186  -0.142  -0.915  0.00  0.00    +0.048 A 
ATOM     24  C   UNL     1       6.210  -0.503   1.474  0.00  0.00    +0.048 A 
ATOM     25  C   UNL     1       7.529  -0.514  -0.985  0.00  0.00    +0.042 A 
ATOM     26  C   UNL     1       7.553  -0.874   1.404  0.00  0.00    +0.042 A 
ATOM     27  C   UNL     1       8.212  -0.880   0.175  0.00  0.00    +0.124 A 
ENDBRANCH   4  22
ENDBRANCH  18   4
ENDBRANCH  15  18
TORSDOF 6
