MODEL 1
REMARK VINA RESULT:      -8.5      0.000      0.000
REMARK  Name = 26743848
REMARK  6 active torsions:
REMARK  status: ('A' for Active; 'I' for Inactive)
REMARK    1  A    between atoms: O_1  and  C_9
REMARK    2  A    between atoms: N_3  and  C_11
REMARK    3  A    between atoms: C_7  and  C_12
REMARK    4  A    between atoms: C_11  and  C_13
REMARK    5  A    between atoms: C_17  and  C_20
REMARK    6  A    between atoms: C_25  and  C_28
REMARK                            x       y       z     vdW  Elec       q    Type
REMARK                         _______ _______ _______ _____ _____    ______ ____
ROOT
ATOM      3  N   UNL     1      13.364   8.226  20.638  0.00  0.00    -0.285 NA
ATOM      7  C   UNL     1      12.127   8.857  20.134  0.00  0.00    +0.149 C 
ATOM      8  C   UNL     1      10.989   7.944  20.626  0.00  0.00    +0.061 C 
ATOM      9  C   UNL     1      11.687   6.804  21.358  0.00  0.00    +0.130 C 
ATOM     10  C   UNL     1      13.080   6.798  20.757  0.00  0.00    +0.116 C 
ENDROOT
BRANCH   7  12
ATOM      2  O   UNL     1      12.725  11.220  19.956  0.00  0.00    -0.336 OA
ATOM      4  N   UNL     1      11.209  10.777  21.545  0.00  0.00    -0.190 NA
ATOM      6  N   UNL     1      12.415  12.449  20.552  0.00  0.00    -0.056 NA
ATOM     12  C   UNL     1      11.972  10.289  20.599  0.00  0.00    +0.245 A 
ATOM     17  C   UNL     1      11.515  12.105  21.479  0.00  0.00    +0.202 A 
BRANCH  17  20
ATOM     20  C   UNL     1      10.902  13.063  22.353  0.00  0.00    +0.023 A 
ATOM     23  C   UNL     1      11.036  12.933  23.735  0.00  0.00    +0.015 A 
ATOM     24  C   UNL     1      10.173  14.126  21.821  0.00  0.00    +0.012 A 
ATOM     25  C   UNL     1      10.442  13.866  24.585  0.00  0.00    -0.050 A 
ATOM     26  C   UNL     1       9.579  15.060  22.670  0.00  0.00    +0.001 A 
ATOM     27  C   UNL     1       9.714  14.930  24.052  0.00  0.00    +0.003 A 
ATOM     28  C   UNL     1      10.585  13.728  26.063  0.00  0.00    +0.044 C 
ENDBRANCH  17  20
ENDBRANCH   7  12
BRANCH   9   1
ATOM      1  O   UNL     1      11.014   5.579  21.138  0.00  0.00    -0.390 OA
ATOM     29  H   UNL     1      10.195   5.780  20.655  0.00  0.00    +0.210 HD
ENDBRANCH   9   1
BRANCH   3  11
ATOM     11  C   UNL     1      14.526   8.487  19.799  0.00  0.00    +0.122 C 
BRANCH  11  13
ATOM      5  N   UNL     1      17.437   8.662  22.042  0.00  0.00    -0.360 N 
ATOM     13  C   UNL     1      15.813   8.336  20.563  0.00  0.00    -0.008 A 
ATOM     14  C   UNL     1      16.835   7.375  20.322  0.00  0.00    +0.004 A 
ATOM     15  C   UNL     1      16.213   9.114  21.626  0.00  0.00    +0.088 A 
ATOM     16  C   UNL     1      17.841   7.601  21.263  0.00  0.00    +0.047 A 
ATOM     18  C   UNL     1      16.999   6.330  19.391  0.00  0.00    +0.010 A 
ATOM     19  C   UNL     1      19.009   6.831  21.320  0.00  0.00    +0.026 A 
ATOM     21  C   UNL     1      18.162   5.553  19.435  0.00  0.00    +0.001 A 
ATOM     22  C   UNL     1      19.150   5.801  20.386  0.00  0.00    +0.002 A 
ATOM     30  H   UNL     1      17.968   9.050  22.810  0.00  0.00    +0.165 HD
ENDBRANCH  11  13
ENDBRANCH   3  11
TORSDOF 5
ENDMDL
MODEL 2
REMARK VINA RESULT:      -7.8      3.574      5.482
REMARK  Name = 26743848
REMARK  6 active torsions:
REMARK  status: ('A' for Active; 'I' for Inactive)
REMARK    1  A    between atoms: O_1  and  C_9
REMARK    2  A    between atoms: N_3  and  C_11
REMARK    3  A    between atoms: C_7  and  C_12
REMARK    4  A    between atoms: C_11  and  C_13
REMARK    5  A    between atoms: C_17  and  C_20
REMARK    6  A    between atoms: C_25  and  C_28
REMARK                            x       y       z     vdW  Elec       q    Type
REMARK                         _______ _______ _______ _____ _____    ______ ____
ROOT
ATOM      3  N   UNL     1      13.218   7.993  20.112  0.00  0.00    -0.285 NA
ATOM      7  C   UNL     1      12.253   7.902  18.997  0.00  0.00    +0.149 C 
ATOM      8  C   UNL     1      10.930   8.439  19.575  0.00  0.00    +0.061 C 
ATOM      9  C   UNL     1      11.240   8.765  21.031  0.00  0.00    +0.130 C 
ATOM     10  C   UNL     1      12.438   7.888  21.343  0.00  0.00    +0.116 C 
ENDROOT
BRANCH   7  12
ATOM      2  O   UNL     1      12.263   8.197  16.572  0.00  0.00    -0.336 OA
ATOM      4  N   UNL     1      13.476   9.718  17.683  0.00  0.00    -0.190 NA
ATOM      6  N   UNL     1      12.807   9.048  15.600  0.00  0.00    -0.056 NA
ATOM     12  C   UNL     1      12.706   8.662  17.770  0.00  0.00    +0.245 A 
ATOM     17  C   UNL     1      13.509   9.918  16.334  0.00  0.00    +0.202 A 
BRANCH  17  20
ATOM     20  C   UNL     1      14.251  10.997  15.750  0.00  0.00    +0.023 A 
ATOM     23  C   UNL     1      15.407  11.466  16.374  0.00  0.00    +0.015 A 
ATOM     24  C   UNL     1      13.818  11.576  14.558  0.00  0.00    +0.012 A 
ATOM     25  C   UNL     1      16.130  12.515  15.805  0.00  0.00    -0.050 A 
ATOM     26  C   UNL     1      14.540  12.625  13.988  0.00  0.00    +0.001 A 
ATOM     27  C   UNL     1      15.697  13.094  14.612  0.00  0.00    +0.003 A 
ATOM     28  C   UNL     1      17.366  13.017  16.471  0.00  0.00    +0.044 C 
ENDBRANCH  17  20
ENDBRANCH   7  12
BRANCH   9   1
ATOM      1  O   UNL     1      10.135   8.459  21.861  0.00  0.00    -0.390 OA
ATOM     29  H   UNL     1      10.120   7.494  21.980  0.00  0.00    +0.210 HD
ENDBRANCH   9   1
BRANCH   3  11
ATOM     11  C   UNL     1      14.273   6.991  20.042  0.00  0.00    +0.122 C 
BRANCH  11  13
ATOM      5  N   UNL     1      16.959   8.627  21.951  0.00  0.00    -0.360 N 
ATOM     13  C   UNL     1      15.542   7.467  20.695  0.00  0.00    -0.008 A 
ATOM     14  C   UNL     1      16.847   6.933  20.503  0.00  0.00    +0.004 A 
ATOM     15  C   UNL     1      15.644   8.508  21.590  0.00  0.00    +0.088 A 
ATOM     16  C   UNL     1      17.716   7.678  21.302  0.00  0.00    +0.047 A 
ATOM     18  C   UNL     1      17.372   5.882  19.725  0.00  0.00    +0.010 A 
ATOM     19  C   UNL     1      19.092   7.424  21.361  0.00  0.00    +0.026 A 
ATOM     21  C   UNL     1      18.746   5.617  19.773  0.00  0.00    +0.001 A 
ATOM     22  C   UNL     1      19.591   6.377  20.579  0.00  0.00    +0.002 A 
ATOM     30  H   UNL     1      17.323   9.311  22.599  0.00  0.00    +0.165 HD
ENDBRANCH  11  13
ENDBRANCH   3  11
TORSDOF 5
ENDMDL
MODEL 3
REMARK VINA RESULT:      -7.8     26.422     28.735
REMARK  Name = 26743848
REMARK  6 active torsions:
REMARK  status: ('A' for Active; 'I' for Inactive)
REMARK    1  A    between atoms: O_1  and  C_9
REMARK    2  A    between atoms: N_3  and  C_11
REMARK    3  A    between atoms: C_7  and  C_12
REMARK    4  A    between atoms: C_11  and  C_13
REMARK    5  A    between atoms: C_17  and  C_20
REMARK    6  A    between atoms: C_25  and  C_28
REMARK                            x       y       z     vdW  Elec       q    Type
REMARK                         _______ _______ _______ _____ _____    ______ ____
ROOT
ATOM      3  N   UNL     1      -3.870 -10.731  15.001  0.00  0.00    -0.285 NA
ATOM      7  C   UNL     1      -3.952 -11.417  16.306  0.00  0.00    +0.149 C 
ATOM      8  C   UNL     1      -2.598 -11.136  16.985  0.00  0.00    +0.061 C 
ATOM      9  C   UNL     1      -1.808 -10.324  15.967  0.00  0.00    +0.130 C 
ATOM     10  C   UNL     1      -2.454 -10.689  14.643  0.00  0.00    +0.116 C 
ENDROOT
BRANCH   7  12
ATOM      2  O   UNL     1      -4.904 -10.778  18.464  0.00  0.00    -0.336 OA
ATOM      4  N   UNL     1      -6.357 -10.692  16.761  0.00  0.00    -0.190 NA
ATOM      6  N   UNL     1      -6.122 -10.355  19.012  0.00  0.00    -0.056 NA
ATOM     12  C   UNL     1      -5.130 -10.954  17.135  0.00  0.00    +0.245 A 
ATOM     17  C   UNL     1      -6.928 -10.329  17.946  0.00  0.00    +0.202 A 
BRANCH  17  20
ATOM     20  C   UNL     1      -8.307  -9.943  18.031  0.00  0.00    +0.023 A 
ATOM     23  C   UNL     1      -8.763  -8.825  17.334  0.00  0.00    +0.015 A 
ATOM     24  C   UNL     1      -9.193 -10.689  18.809  0.00  0.00    +0.012 A 
ATOM     25  C   UNL     1     -10.105  -8.451  17.415  0.00  0.00    -0.050 A 
ATOM     26  C   UNL     1     -10.535 -10.315  18.891  0.00  0.00    +0.001 A 
ATOM     27  C   UNL     1     -10.990  -9.196  18.193  0.00  0.00    +0.003 A 
ATOM     28  C   UNL     1     -10.593  -7.254  16.671  0.00  0.00    +0.044 C 
ENDBRANCH  17  20
ENDBRANCH   7  12
BRANCH   9   1
ATOM      1  O   UNL     1      -0.438 -10.676  15.997  0.00  0.00    -0.390 OA
ATOM     29  H   UNL     1      -0.316 -11.423  15.387  0.00  0.00    +0.210 HD
ENDBRANCH   9   1
BRANCH   3  11
ATOM     11  C   UNL     1      -4.679 -11.364  13.967  0.00  0.00    +0.122 C 
BRANCH  11  13
ATOM      5  N   UNL     1      -6.707  -8.861  12.191  0.00  0.00    -0.360 N 
ATOM     13  C   UNL     1      -5.300 -10.352  13.043  0.00  0.00    -0.008 A 
ATOM     14  C   UNL     1      -4.772  -9.901  11.801  0.00  0.00    +0.004 A 
ATOM     15  C   UNL     1      -6.491  -9.695  13.255  0.00  0.00    +0.088 A 
ATOM     16  C   UNL     1      -5.674  -8.967  11.287  0.00  0.00    +0.047 A 
ATOM     18  C   UNL     1      -3.610 -10.199  11.063  0.00  0.00    +0.010 A 
ATOM     19  C   UNL     1      -5.471  -8.313  10.066  0.00  0.00    +0.026 A 
ATOM     21  C   UNL     1      -3.393  -9.553   9.840  0.00  0.00    +0.001 A 
ATOM     22  C   UNL     1      -4.310  -8.625   9.351  0.00  0.00    +0.002 A 
ATOM     30  H   UNL     1      -7.509  -8.255  12.083  0.00  0.00    +0.165 HD
ENDBRANCH  11  13
ENDBRANCH   3  11
TORSDOF 5
ENDMDL
MODEL 4
REMARK VINA RESULT:      -7.3      2.155      8.394
REMARK  Name = 26743848
REMARK  6 active torsions:
REMARK  status: ('A' for Active; 'I' for Inactive)
REMARK    1  A    between atoms: O_1  and  C_9
REMARK    2  A    between atoms: N_3  and  C_11
REMARK    3  A    between atoms: C_7  and  C_12
REMARK    4  A    between atoms: C_11  and  C_13
REMARK    5  A    between atoms: C_17  and  C_20
REMARK    6  A    between atoms: C_25  and  C_28
REMARK                            x       y       z     vdW  Elec       q    Type
REMARK                         _______ _______ _______ _____ _____    ______ ____
ROOT
ATOM      3  N   UNL     1      13.811   9.161  19.564  0.00  0.00    -0.285 NA
ATOM      7  C   UNL     1      13.774   7.710  19.841  0.00  0.00    +0.149 C 
ATOM      8  C   UNL     1      12.765   7.141  18.826  0.00  0.00    +0.061 C 
ATOM      9  C   UNL     1      12.257   8.352  18.053  0.00  0.00    +0.130 C 
ATOM     10  C   UNL     1      12.508   9.509  19.002  0.00  0.00    +0.116 C 
ENDROOT
BRANCH   7  12
ATOM      2  O   UNL     1      15.381   6.339  18.614  0.00  0.00    -0.336 OA
ATOM      4  N   UNL     1      16.136   7.091  20.584  0.00  0.00    -0.190 NA
ATOM      6  N   UNL     1      16.685   5.844  18.746  0.00  0.00    -0.056 NA
ATOM     12  C   UNL     1      15.137   7.062  19.739  0.00  0.00    +0.245 A 
ATOM     17  C   UNL     1      17.063   6.331  19.933  0.00  0.00    +0.202 A 
BRANCH  17  20
ATOM     20  C   UNL     1      18.358   6.076  20.494  0.00  0.00    +0.023 A 
ATOM     23  C   UNL     1      18.771   6.763  21.635  0.00  0.00    +0.015 A 
ATOM     24  C   UNL     1      19.204   5.141  19.899  0.00  0.00    +0.012 A 
ATOM     25  C   UNL     1      20.031   6.515  22.182  0.00  0.00    -0.050 A 
ATOM     26  C   UNL     1      20.464   4.891  20.445  0.00  0.00    +0.001 A 
ATOM     27  C   UNL     1      20.876   5.579  21.587  0.00  0.00    +0.003 A 
ATOM     28  C   UNL     1      20.473   7.249  23.402  0.00  0.00    +0.044 C 
ENDBRANCH  17  20
ENDBRANCH   7  12
BRANCH   9   1
ATOM      1  O   UNL     1      10.883   8.212  17.747  0.00  0.00    -0.390 OA
ATOM     29  H   UNL     1      10.430   7.939  18.563  0.00  0.00    +0.210 HD
ENDBRANCH   9   1
BRANCH   3  11
ATOM     11  C   UNL     1      14.135   9.962  20.737  0.00  0.00    +0.122 C 
BRANCH  11  13
ATOM      5  N   UNL     1      11.443   9.284  23.151  0.00  0.00    -0.360 N 
ATOM     13  C   UNL     1      13.011   9.970  21.737  0.00  0.00    -0.008 A 
ATOM     14  C   UNL     1      12.365  11.118  22.277  0.00  0.00    +0.004 A 
ATOM     15  C   UNL     1      12.421   8.858  22.293  0.00  0.00    +0.088 A 
ATOM     16  C   UNL     1      11.386  10.659  23.161  0.00  0.00    +0.047 A 
ATOM     18  C   UNL     1      12.521  12.506  22.099  0.00  0.00    +0.010 A 
ATOM     19  C   UNL     1      10.551  11.524  23.878  0.00  0.00    +0.026 A 
ATOM     21  C   UNL     1      11.693  13.383  22.809  0.00  0.00    +0.001 A 
ATOM     22  C   UNL     1      10.724  12.898  23.684  0.00  0.00    +0.002 A 
ATOM     30  H   UNL     1      10.848   8.678  23.699  0.00  0.00    +0.165 HD
ENDBRANCH  11  13
ENDBRANCH   3  11
TORSDOF 5
ENDMDL
MODEL 5
REMARK VINA RESULT:      -7.3     27.084     29.446
REMARK  Name = 26743848
REMARK  6 active torsions:
REMARK  status: ('A' for Active; 'I' for Inactive)
REMARK    1  A    between atoms: O_1  and  C_9
REMARK    2  A    between atoms: N_3  and  C_11
REMARK    3  A    between atoms: C_7  and  C_12
REMARK    4  A    between atoms: C_11  and  C_13
REMARK    5  A    between atoms: C_17  and  C_20
REMARK    6  A    between atoms: C_25  and  C_28
REMARK                            x       y       z     vdW  Elec       q    Type
REMARK                         _______ _______ _______ _____ _____    ______ ____
ROOT
ATOM      3  N   UNL     1      -4.612 -10.871  15.249  0.00  0.00    -0.285 NA
ATOM      7  C   UNL     1      -5.031 -11.531  16.502  0.00  0.00    +0.149 C 
ATOM      8  C   UNL     1      -3.832 -11.367  17.454  0.00  0.00    +0.061 C 
ATOM      9  C   UNL     1      -2.773 -10.643  16.633  0.00  0.00    +0.130 C 
ATOM     10  C   UNL     1      -3.155 -10.964  15.200  0.00  0.00    +0.116 C 
ENDROOT
BRANCH   7  12
ATOM      2  O   UNL     1      -6.526  -9.628  16.843  0.00  0.00    -0.336 OA
ATOM      4  N   UNL     1      -7.259 -11.541  17.750  0.00  0.00    -0.190 NA
ATOM      6  N   UNL     1      -7.753  -9.327  17.450  0.00  0.00    -0.056 NA
ATOM     12  C   UNL     1      -6.311 -10.951  17.066  0.00  0.00    +0.245 A 
ATOM     17  C   UNL     1      -8.121 -10.505  17.963  0.00  0.00    +0.202 A 
BRANCH  17  20
ATOM     20  C   UNL     1      -9.345 -10.681  18.691  0.00  0.00    +0.023 A 
ATOM     23  C   UNL     1      -9.532 -11.818  19.475  0.00  0.00    +0.015 A 
ATOM     24  C   UNL     1     -10.345  -9.712  18.616  0.00  0.00    +0.012 A 
ATOM     25  C   UNL     1     -10.722 -11.988  20.185  0.00  0.00    -0.050 A 
ATOM     26  C   UNL     1     -11.535  -9.881  19.325  0.00  0.00    +0.001 A 
ATOM     27  C   UNL     1     -11.723 -11.020  20.110  0.00  0.00    +0.003 A 
ATOM     28  C   UNL     1     -10.924 -13.204  21.024  0.00  0.00    +0.044 C 
ENDBRANCH  17  20
ENDBRANCH   7  12
BRANCH   9   1
ATOM      1  O   UNL     1      -1.479 -11.119  16.950  0.00  0.00    -0.390 OA
ATOM     29  H   UNL     1      -1.577 -11.779  17.658  0.00  0.00    +0.210 HD
ENDBRANCH   9   1
BRANCH   3  11
ATOM     11  C   UNL     1      -5.238 -11.440  14.062  0.00  0.00    +0.122 C 
BRANCH  11  13
ATOM      5  N   UNL     1      -6.775  -8.769  12.053  0.00  0.00    -0.360 N 
ATOM     13  C   UNL     1      -5.635 -10.378  13.074  0.00  0.00    -0.008 A 
ATOM     14  C   UNL     1      -4.903  -9.975  11.921  0.00  0.00    +0.004 A 
ATOM     15  C   UNL     1      -6.782  -9.618  13.127  0.00  0.00    +0.088 A 
ATOM     16  C   UNL     1      -5.640  -8.966  11.300  0.00  0.00    +0.047 A 
ATOM     18  C   UNL     1      -3.680 -10.375  11.348  0.00  0.00    +0.010 A 
ATOM     19  C   UNL     1      -5.213  -8.333  10.126  0.00  0.00    +0.026 A 
ATOM     21  C   UNL     1      -3.241  -9.751  10.174  0.00  0.00    +0.001 A 
ATOM     22  C   UNL     1      -3.996  -8.746   9.574  0.00  0.00    +0.002 A 
ATOM     30  H   UNL     1      -7.498  -8.095  11.842  0.00  0.00    +0.165 HD
ENDBRANCH  11  13
ENDBRANCH   3  11
TORSDOF 5
ENDMDL
MODEL 6
REMARK VINA RESULT:      -7.3     16.687     18.428
REMARK  Name = 26743848
REMARK  6 active torsions:
REMARK  status: ('A' for Active; 'I' for Inactive)
REMARK    1  A    between atoms: O_1  and  C_9
REMARK    2  A    between atoms: N_3  and  C_11
REMARK    3  A    between atoms: C_7  and  C_12
REMARK    4  A    between atoms: C_11  and  C_13
REMARK    5  A    between atoms: C_17  and  C_20
REMARK    6  A    between atoms: C_25  and  C_28
REMARK                            x       y       z     vdW  Elec       q    Type
REMARK                         _______ _______ _______ _____ _____    ______ ____
ROOT
ATOM      3  N   UNL     1      12.046   5.776   0.927  0.00  0.00    -0.285 NA
ATOM      7  C   UNL     1      10.631   5.856   1.345  0.00  0.00    +0.149 C 
ATOM      8  C   UNL     1       9.896   4.847   0.443  0.00  0.00    +0.061 C 
ATOM      9  C   UNL     1      10.972   4.284  -0.477  0.00  0.00    +0.130 C 
ATOM     10  C   UNL     1      12.041   5.361  -0.474  0.00  0.00    +0.116 C 
ENDROOT
BRANCH   7  12
ATOM      2  O   UNL     1      10.741   4.311   3.235  0.00  0.00    -0.336 OA
ATOM      4  N   UNL     1      10.025   6.364   3.772  0.00  0.00    -0.190 NA
ATOM      6  N   UNL     1      10.490   4.288   4.613  0.00  0.00    -0.056 NA
ATOM     12  C   UNL     1      10.442   5.570   2.819  0.00  0.00    +0.245 A 
ATOM     17  C   UNL     1      10.071   5.535   4.854  0.00  0.00    +0.202 A 
BRANCH  17  20
ATOM     20  C   UNL     1       9.693   5.982   6.163  0.00  0.00    +0.023 A 
ATOM     23  C   UNL     1       9.697   5.088   7.234  0.00  0.00    +0.015 A 
ATOM     24  C   UNL     1       9.322   7.311   6.366  0.00  0.00    +0.012 A 
ATOM     25  C   UNL     1       9.331   5.524   8.508  0.00  0.00    -0.050 A 
ATOM     26  C   UNL     1       8.956   7.747   7.640  0.00  0.00    +0.001 A 
ATOM     27  C   UNL     1       8.961   6.853   8.711  0.00  0.00    +0.003 A 
ATOM     28  C   UNL     1       9.335   4.569   9.654  0.00  0.00    +0.044 C 
ENDBRANCH  17  20
ENDBRANCH   7  12
BRANCH   9   1
ATOM      1  O   UNL     1      10.456   4.060  -1.776  0.00  0.00    -0.390 OA
ATOM     29  H   UNL     1      10.679   4.838  -2.315  0.00  0.00    +0.210 HD
ENDBRANCH   9   1
BRANCH   3  11
ATOM     11  C   UNL     1      12.776   7.020   1.129  0.00  0.00    +0.122 C 
BRANCH  11  13
ATOM      5  N   UNL     1      15.417   6.398   3.614  0.00  0.00    -0.360 N 
ATOM     13  C   UNL     1      13.702   6.941   2.312  0.00  0.00    -0.008 A 
ATOM     14  C   UNL     1      13.540   7.603   3.562  0.00  0.00    +0.004 A 
ATOM     15  C   UNL     1      14.865   6.207   2.375  0.00  0.00    +0.088 A 
ATOM     16  C   UNL     1      14.629   7.245   4.359  0.00  0.00    +0.047 A 
ATOM     18  C   UNL     1      12.569   8.476   4.090  0.00  0.00    +0.010 A 
ATOM     19  C   UNL     1      14.795   7.719   5.666  0.00  0.00    +0.026 A 
ATOM     21  C   UNL     1      12.722   8.957   5.396  0.00  0.00    +0.001 A 
ATOM     22  C   UNL     1      13.818   8.583   6.170  0.00  0.00    +0.002 A 
ATOM     30  H   UNL     1      16.278   5.978   3.936  0.00  0.00    +0.165 HD
ENDBRANCH  11  13
ENDBRANCH   3  11
TORSDOF 5
ENDMDL
MODEL 7
REMARK VINA RESULT:      -7.2      2.391      8.280
REMARK  Name = 26743848
REMARK  6 active torsions:
REMARK  status: ('A' for Active; 'I' for Inactive)
REMARK    1  A    between atoms: O_1  and  C_9
REMARK    2  A    between atoms: N_3  and  C_11
REMARK    3  A    between atoms: C_7  and  C_12
REMARK    4  A    between atoms: C_11  and  C_13
REMARK    5  A    between atoms: C_17  and  C_20
REMARK    6  A    between atoms: C_25  and  C_28
REMARK                            x       y       z     vdW  Elec       q    Type
REMARK                         _______ _______ _______ _____ _____    ______ ____
ROOT
ATOM      3  N   UNL     1      14.248   9.411  18.364  0.00  0.00    -0.285 NA
ATOM      7  C   UNL     1      14.090   8.287  19.309  0.00  0.00    +0.149 C 
ATOM      8  C   UNL     1      12.857   7.516  18.803  0.00  0.00    +0.061 C 
ATOM      9  C   UNL     1      12.365   8.308  17.597  0.00  0.00    +0.130 C 
ATOM     10  C   UNL     1      12.916   9.701  17.840  0.00  0.00    +0.116 C 
ENDROOT
BRANCH   7  12
ATOM      2  O   UNL     1      15.413   6.395  18.506  0.00  0.00    -0.336 OA
ATOM      4  N   UNL     1      16.348   7.507  20.211  0.00  0.00    -0.190 NA
ATOM      6  N   UNL     1      16.625   5.746  18.777  0.00  0.00    -0.056 NA
ATOM     12  C   UNL     1      15.328   7.420  19.395  0.00  0.00    +0.245 A 
ATOM     17  C   UNL     1      17.117   6.460  19.794  0.00  0.00    +0.202 A 
BRANCH  17  20
ATOM     20  C   UNL     1      18.374   6.154  20.414  0.00  0.00    +0.023 A 
ATOM     23  C   UNL     1      18.758   6.820  21.578  0.00  0.00    +0.015 A 
ATOM     24  C   UNL     1      19.211   5.190  19.854  0.00  0.00    +0.012 A 
ATOM     25  C   UNL     1      19.980   6.521  22.182  0.00  0.00    -0.050 A 
ATOM     26  C   UNL     1      20.433   4.890  20.457  0.00  0.00    +0.001 A 
ATOM     27  C   UNL     1      20.817   5.556  21.622  0.00  0.00    +0.003 A 
ATOM     28  C   UNL     1      20.392   7.232  23.426  0.00  0.00    +0.044 C 
ENDBRANCH  17  20
ENDBRANCH   7  12
BRANCH   9   1
ATOM      1  O   UNL     1      10.951   8.305  17.537  0.00  0.00    -0.390 OA
ATOM     29  H   UNL     1      10.623   8.528  18.425  0.00  0.00    +0.210 HD
ENDBRANCH   9   1
BRANCH   3  11
ATOM     11  C   UNL     1      14.869  10.584  18.966  0.00  0.00    +0.122 C 
BRANCH  11  13
ATOM      5  N   UNL     1      12.565  13.397  19.531  0.00  0.00    -0.360 N 
ATOM     13  C   UNL     1      13.844  11.585  19.428  0.00  0.00    -0.008 A 
ATOM     14  C   UNL     1      13.012  11.478  20.578  0.00  0.00    +0.004 A 
ATOM     15  C   UNL     1      13.546  12.776  18.806  0.00  0.00    +0.088 A 
ATOM     16  C   UNL     1      12.220  12.626  20.619  0.00  0.00    +0.047 A 
ATOM     18  C   UNL     1      12.857  10.509  21.589  0.00  0.00    +0.010 A 
ATOM     19  C   UNL     1      11.276  12.856  21.627  0.00  0.00    +0.026 A 
ATOM     21  C   UNL     1      11.917  10.726  22.603  0.00  0.00    +0.001 A 
ATOM     22  C   UNL     1      11.140  11.882  22.620  0.00  0.00    +0.002 A 
ATOM     30  H   UNL     1      12.152  14.290  19.303  0.00  0.00    +0.165 HD
ENDBRANCH  11  13
ENDBRANCH   3  11
TORSDOF 5
ENDMDL
MODEL 8
REMARK VINA RESULT:      -7.2     27.411     29.175
REMARK  Name = 26743848
REMARK  6 active torsions:
REMARK  status: ('A' for Active; 'I' for Inactive)
REMARK    1  A    between atoms: O_1  and  C_9
REMARK    2  A    between atoms: N_3  and  C_11
REMARK    3  A    between atoms: C_7  and  C_12
REMARK    4  A    between atoms: C_11  and  C_13
REMARK    5  A    between atoms: C_17  and  C_20
REMARK    6  A    between atoms: C_25  and  C_28
REMARK                            x       y       z     vdW  Elec       q    Type
REMARK                         _______ _______ _______ _____ _____    ______ ____
ROOT
ATOM      3  N   UNL     1      -3.324 -11.806  14.663  0.00  0.00    -0.285 NA
ATOM      7  C   UNL     1      -2.243 -11.750  13.657  0.00  0.00    +0.149 C 
ATOM      8  C   UNL     1      -1.927 -13.222  13.335  0.00  0.00    +0.061 C 
ATOM      9  C   UNL     1      -2.849 -14.030  14.240  0.00  0.00    +0.130 C 
ATOM     10  C   UNL     1      -3.162 -13.072  15.374  0.00  0.00    +0.116 C 
ENDROOT
BRANCH   7  12
ATOM      2  O   UNL     1      -1.656 -10.181  11.878  0.00  0.00    -0.336 OA
ATOM      4  N   UNL     1      -3.780 -10.888  11.809  0.00  0.00    -0.190 NA
ATOM      6  N   UNL     1      -2.241  -9.548  10.774  0.00  0.00    -0.056 NA
ATOM     12  C   UNL     1      -2.629 -10.952  12.431  0.00  0.00    +0.245 A 
ATOM     17  C   UNL     1      -3.494 -10.015  10.800  0.00  0.00    +0.202 A 
BRANCH  17  20
ATOM     20  C   UNL     1      -4.481  -9.631   9.833  0.00  0.00    +0.023 A 
ATOM     23  C   UNL     1      -4.547 -10.289   8.605  0.00  0.00    +0.015 A 
ATOM     24  C   UNL     1      -5.376  -8.601  10.122  0.00  0.00    +0.012 A 
ATOM     25  C   UNL     1      -5.509  -9.917   7.665  0.00  0.00    -0.050 A 
ATOM     26  C   UNL     1      -6.337  -8.228   9.182  0.00  0.00    +0.001 A 
ATOM     27  C   UNL     1      -6.404  -8.886   7.954  0.00  0.00    +0.003 A 
ATOM     28  C   UNL     1      -5.580 -10.619   6.352  0.00  0.00    +0.044 C 
ENDBRANCH  17  20
ENDBRANCH   7  12
BRANCH   9   1
ATOM      1  O   UNL     1      -2.200 -15.198  14.704  0.00  0.00    -0.390 OA
ATOM     29  H   UNL     1      -2.387 -15.277  15.655  0.00  0.00    +0.210 HD
ENDBRANCH   9   1
BRANCH   3  11
ATOM     11  C   UNL     1      -3.327 -10.664  15.568  0.00  0.00    +0.122 C 
BRANCH  11  13
ATOM      5  N   UNL     1      -6.811  -9.677  16.220  0.00  0.00    -0.360 N 
ATOM     13  C   UNL     1      -4.706 -10.371  16.095  0.00  0.00    -0.008 A 
ATOM     14  C   UNL     1      -5.197 -10.669  17.397  0.00  0.00    +0.004 A 
ATOM     15  C   UNL     1      -5.722  -9.760  15.395  0.00  0.00    +0.088 A 
ATOM     16  C   UNL     1      -6.519 -10.224  17.449  0.00  0.00    +0.047 A 
ATOM     18  C   UNL     1      -4.640 -11.279  18.539  0.00  0.00    +0.010 A 
ATOM     19  C   UNL     1      -7.316 -10.358  18.592  0.00  0.00    +0.026 A 
ATOM     21  C   UNL     1      -5.426 -11.419  19.689  0.00  0.00    +0.001 A 
ATOM     22  C   UNL     1      -6.743 -10.965  19.713  0.00  0.00    +0.002 A 
ATOM     30  H   UNL     1      -7.702  -9.273  15.965  0.00  0.00    +0.165 HD
ENDBRANCH  11  13
ENDBRANCH   3  11
TORSDOF 5
ENDMDL
MODEL 9
REMARK VINA RESULT:      -7.0     26.796     29.617
REMARK  Name = 26743848
REMARK  6 active torsions:
REMARK  status: ('A' for Active; 'I' for Inactive)
REMARK    1  A    between atoms: O_1  and  C_9
REMARK    2  A    between atoms: N_3  and  C_11
REMARK    3  A    between atoms: C_7  and  C_12
REMARK    4  A    between atoms: C_11  and  C_13
REMARK    5  A    between atoms: C_17  and  C_20
REMARK    6  A    between atoms: C_25  and  C_28
REMARK                            x       y       z     vdW  Elec       q    Type
REMARK                         _______ _______ _______ _____ _____    ______ ____
ROOT
ATOM      3  N   UNL     1     -15.259   4.889  21.676  0.00  0.00    -0.285 NA
ATOM      7  C   UNL     1     -16.212   5.177  22.768  0.00  0.00    +0.149 C 
ATOM      8  C   UNL     1     -17.567   5.378  22.065  0.00  0.00    +0.061 C 
ATOM      9  C   UNL     1     -17.267   5.228  20.579  0.00  0.00    +0.130 C 
ATOM     10  C   UNL     1     -15.787   5.546  20.482  0.00  0.00    +0.116 C 
ENDROOT
BRANCH   7  12
ATOM      2  O   UNL     1     -16.251   2.805  23.351  0.00  0.00    -0.336 OA
ATOM      4  N   UNL     1     -16.284   4.181  25.117  0.00  0.00    -0.190 NA
ATOM      6  N   UNL     1     -16.290   1.982  24.484  0.00  0.00    -0.056 NA
ATOM     12  C   UNL     1     -16.250   4.083  23.812  0.00  0.00    +0.245 A 
ATOM     17  C   UNL     1     -16.307   2.868  25.486  0.00  0.00    +0.202 A 
BRANCH  17  20
ATOM     20  C   UNL     1     -16.347   2.473  26.864  0.00  0.00    +0.023 A 
ATOM     23  C   UNL     1     -15.773   3.287  27.840  0.00  0.00    +0.015 A 
ATOM     24  C   UNL     1     -16.961   1.275  27.228  0.00  0.00    +0.012 A 
ATOM     25  C   UNL     1     -15.813   2.903  29.181  0.00  0.00    -0.050 A 
ATOM     26  C   UNL     1     -17.001   0.890  28.569  0.00  0.00    +0.001 A 
ATOM     27  C   UNL     1     -16.427   1.705  29.545  0.00  0.00    +0.003 A 
ATOM     28  C   UNL     1     -15.199   3.773  30.226  0.00  0.00    +0.044 C 
ENDBRANCH  17  20
ENDBRANCH   7  12
BRANCH   9   1
ATOM      1  O   UNL     1     -18.048   6.127  19.815  0.00  0.00    -0.390 OA
ATOM     29  H   UNL     1     -18.169   5.731  18.935  0.00  0.00    +0.210 HD
ENDBRANCH   9   1
BRANCH   3  11
ATOM     11  C   UNL     1     -13.896   5.309  21.977  0.00  0.00    +0.122 C 
BRANCH  11  13
ATOM      5  N   UNL     1     -14.037   8.978  22.208  0.00  0.00    -0.360 N 
ATOM     13  C   UNL     1     -13.737   6.802  21.883  0.00  0.00    -0.008 A 
ATOM     14  C   UNL     1     -12.793   7.506  21.084  0.00  0.00    +0.004 A 
ATOM     15  C   UNL     1     -14.488   7.735  22.562  0.00  0.00    +0.088 A 
ATOM     16  C   UNL     1     -13.003   8.868  21.306  0.00  0.00    +0.047 A 
ATOM     18  C   UNL     1     -11.777   7.112  20.191  0.00  0.00    +0.010 A 
ATOM     19  C   UNL     1     -12.243   9.861  20.676  0.00  0.00    +0.026 A 
ATOM     21  C   UNL     1     -11.010   8.094  19.553  0.00  0.00    +0.001 A 
ATOM     22  C   UNL     1     -11.241   9.447  19.793  0.00  0.00    +0.002 A 
ATOM     30  H   UNL     1     -14.408   9.851  22.556  0.00  0.00    +0.165 HD
ENDBRANCH  11  13
ENDBRANCH   3  11
TORSDOF 5
ENDMDL
MODEL 10
REMARK VINA RESULT:      -6.9     20.248     22.257
REMARK  Name = 26743848
REMARK  6 active torsions:
REMARK  status: ('A' for Active; 'I' for Inactive)
REMARK    1  A    between atoms: O_1  and  C_9
REMARK    2  A    between atoms: N_3  and  C_11
REMARK    3  A    between atoms: C_7  and  C_12
REMARK    4  A    between atoms: C_11  and  C_13
REMARK    5  A    between atoms: C_17  and  C_20
REMARK    6  A    between atoms: C_25  and  C_28
REMARK                            x       y       z     vdW  Elec       q    Type
REMARK                         _______ _______ _______ _____ _____    ______ ____
ROOT
ATOM      3  N   UNL     1      13.487   3.933  -0.541  0.00  0.00    -0.285 NA
ATOM      7  C   UNL     1      13.671   3.732   0.911  0.00  0.00    +0.149 C 
ATOM      8  C   UNL     1      14.946   4.523   1.260  0.00  0.00    +0.061 C 
ATOM      9  C   UNL     1      15.430   5.096  -0.067  0.00  0.00    +0.130 C 
ATOM     10  C   UNL     1      14.817   4.167  -1.098  0.00  0.00    +0.116 C 
ENDROOT
BRANCH   7  12
ATOM      2  O   UNL     1      11.850   3.214   2.456  0.00  0.00    -0.336 OA
ATOM      4  N   UNL     1      11.923   5.359   1.814  0.00  0.00    -0.190 NA
ATOM      6  N   UNL     1      10.784   3.851   3.104  0.00  0.00    -0.056 NA
ATOM     12  C   UNL     1      12.469   4.173   1.717  0.00  0.00    +0.245 A 
ATOM     17  C   UNL     1      10.894   5.113   2.674  0.00  0.00    +0.202 A 
BRANCH  17  20
ATOM     20  C   UNL     1       9.992   6.149   3.087  0.00  0.00    +0.023 A 
ATOM     23  C   UNL     1       9.554   6.206   4.410  0.00  0.00    +0.015 A 
ATOM     24  C   UNL     1       9.555   7.100   2.166  0.00  0.00    +0.012 A 
ATOM     25  C   UNL     1       8.679   7.216   4.812  0.00  0.00    -0.050 A 
ATOM     26  C   UNL     1       8.679   8.110   2.567  0.00  0.00    +0.001 A 
ATOM     27  C   UNL     1       8.241   8.167   3.891  0.00  0.00    +0.003 A 
ATOM     28  C   UNL     1       8.210   7.278   6.226  0.00  0.00    +0.044 C 
ENDBRANCH  17  20
ENDBRANCH   7  12
BRANCH   9   1
ATOM      1  O   UNL     1      16.843   5.092  -0.130  0.00  0.00    -0.390 OA
ATOM     29  H   UNL     1      17.174   5.338   0.750  0.00  0.00    +0.210 HD
ENDBRANCH   9   1
BRANCH   3  11
ATOM     11  C   UNL     1      12.806   2.821  -1.193  0.00  0.00    +0.122 C 
BRANCH  11  13
ATOM      5  N   UNL     1      11.158   3.538  -4.403  0.00  0.00    -0.360 N 
ATOM     13  C   UNL     1      11.961   3.283  -2.349  0.00  0.00    -0.008 A 
ATOM     14  C   UNL     1      10.864   4.188  -2.290  0.00  0.00    +0.004 A 
ATOM     15  C   UNL     1      12.118   2.902  -3.663  0.00  0.00    +0.088 A 
ATOM     16  C   UNL     1      10.379   4.329  -3.591  0.00  0.00    +0.047 A 
ATOM     18  C   UNL     1      10.235   4.899  -1.249  0.00  0.00    +0.010 A 
ATOM     19  C   UNL     1       9.291   5.152  -3.905  0.00  0.00    +0.026 A 
ATOM     21  C   UNL     1       9.146   5.727  -1.549  0.00  0.00    +0.001 A 
ATOM     22  C   UNL     1       8.683   5.850  -2.856  0.00  0.00    +0.002 A 
ATOM     30  H   UNL     1      11.038   3.441  -5.402  0.00  0.00    +0.165 HD
ENDBRANCH  11  13
ENDBRANCH   3  11
TORSDOF 5
ENDMDL
