MODEL 1
REMARK VINA RESULT:      -6.3      0.000      0.000
REMARK  Name = 11879719
REMARK  11 active torsions:
REMARK  status: ('A' for Active; 'I' for Inactive)
REMARK    1  A    between atoms: O_4  and  C_20
REMARK    2  A    between atoms: O_4  and  C_29
REMARK    3  A    between atoms: O_5  and  C_22
REMARK    4  A    between atoms: O_5  and  C_33
REMARK    5  A    between atoms: N_9  and  C_19
REMARK    6  A    between atoms: N_10  and  C_24
REMARK    7  A    between atoms: C_12  and  C_16
REMARK    8  A    between atoms: C_17  and  C_20
REMARK    9  A    between atoms: C_19  and  C_21
REMARK   10  A    between atoms: C_19  and  C_22
REMARK   11  A    between atoms: C_21  and  C_23
REMARK                            x       y       z     vdW  Elec       q    Type
REMARK                         _______ _______ _______ _____ _____    ______ ____
ROOT
ATOM      2  O   UNL     1     -13.505  -6.545  16.338  0.00  0.00    -0.273 OA
ATOM      3  O   UNL     1      -7.641 -10.649  14.777  0.00  0.00    -0.252 OA
ATOM      7  N   UNL     1     -11.736  -7.745  15.423  0.00  0.00    -0.285 N 
ATOM      8  N   UNL     1      -9.158  -9.114  15.615  0.00  0.00    -0.282 N 
ATOM     10  N   UNL     1      -7.040  -9.362  16.622  0.00  0.00    -0.269 N 
ATOM     12  C   UNL     1     -11.060  -7.885  16.713  0.00  0.00    +0.179 C 
ATOM     13  C   UNL     1      -9.550  -8.091  16.596  0.00  0.00    +0.141 C 
ATOM     14  C   UNL     1     -11.054  -8.296  14.246  0.00  0.00    +0.127 C 
ATOM     15  C   UNL     1     -10.140  -9.462  14.589  0.00  0.00    +0.128 C 
ATOM     17  C   UNL     1     -12.925  -7.011  15.355  0.00  0.00    +0.242 C 
ATOM     18  C   UNL     1      -7.911  -9.786  15.615  0.00  0.00    +0.307 C 
ATOM     37  H   UNL     1      -7.144  -8.412  16.966  0.00  0.00    +0.156 HD
ENDROOT
BRANCH  10  24
ATOM     24  C   UNL     1      -6.043 -10.124  17.280  0.00  0.00    +0.035 A 
ATOM     27  C   UNL     1      -6.312 -10.699  18.522  0.00  0.00    +0.023 A 
ATOM     28  C   UNL     1      -4.793 -10.299  16.685  0.00  0.00    +0.023 A 
ATOM     31  C   UNL     1      -5.330 -11.450  19.170  0.00  0.00    +0.002 A 
ATOM     32  C   UNL     1      -3.812 -11.049  17.334  0.00  0.00    +0.002 A 
ATOM     35  C   UNL     1      -4.081 -11.626  18.576  0.00  0.00    +0.000 A 
ENDBRANCH  10  24
BRANCH  12  16
ATOM      1  O   UNL     1     -12.641  -9.661  16.965  0.00  0.00    -0.274 OA
ATOM      9  N   UNL     1     -11.126  -9.246  18.685  0.00  0.00    -0.301 N 
ATOM     16  C   UNL     1     -11.702  -9.030  17.444  0.00  0.00    +0.236 C 
ATOM     36  H   UNL     1     -10.356  -8.659  18.979  0.00  0.00    +0.150 HD
BRANCH   9  19
ATOM     19  C   UNL     1     -11.577 -10.275  19.595  0.00  0.00    +0.186 C 
BRANCH  19  22
ATOM      6  O   UNL     1      -9.275 -10.816  20.094  0.00  0.00    -0.249 OA
ATOM     22  C   UNL     1     -10.442 -11.192  20.032  0.00  0.00    +0.328 C 
BRANCH  22   5
ATOM      5  O   UNL     1     -10.878 -12.450  20.318  0.00  0.00    -0.467 OA
ATOM     33  C   UNL     1      -9.858 -13.443  20.465  0.00  0.00    +0.280 C 
ENDBRANCH  22   5
ENDBRANCH  19  22
BRANCH  19  21
ATOM     21  C   UNL     1     -12.332  -9.684  20.795  0.00  0.00    +0.070 C 
BRANCH  21  23
ATOM     11  N   UNL     1     -15.418 -11.830  21.291  0.00  0.00    -0.263 NA
ATOM     23  C   UNL     1     -13.785 -10.094  20.892  0.00  0.00    -0.027 A 
ATOM     25  C   UNL     1     -14.804  -9.172  20.683  0.00  0.00    +0.006 A 
ATOM     26  C   UNL     1     -14.141 -11.399  21.191  0.00  0.00    +0.114 A 
ATOM     30  C   UNL     1     -16.130  -9.578  20.777  0.00  0.00    +0.020 A 
ATOM     34  C   UNL     1     -16.383 -10.907  21.081  0.00  0.00    +0.111 A 
ENDBRANCH  21  23
ENDBRANCH  19  21
ENDBRANCH   9  19
ENDBRANCH  12  16
BRANCH  17  20
ATOM     20  C   UNL     1     -13.507  -6.804  13.979  0.00  0.00    +0.255 C 
BRANCH  20   4
ATOM      4  O   UNL     1     -13.654  -5.415  13.811  0.00  0.00    -0.374 OA
ATOM     29  C   UNL     1     -12.456  -4.803  13.335  0.00  0.00    +0.194 C 
ENDBRANCH  20   4
ENDBRANCH  17  20
TORSDOF 9
ENDMDL
MODEL 2
REMARK VINA RESULT:      -6.0     29.002     32.663
REMARK  Name = 11879719
REMARK  11 active torsions:
REMARK  status: ('A' for Active; 'I' for Inactive)
REMARK    1  A    between atoms: O_4  and  C_20
REMARK    2  A    between atoms: O_4  and  C_29
REMARK    3  A    between atoms: O_5  and  C_22
REMARK    4  A    between atoms: O_5  and  C_33
REMARK    5  A    between atoms: N_9  and  C_19
REMARK    6  A    between atoms: N_10  and  C_24
REMARK    7  A    between atoms: C_12  and  C_16
REMARK    8  A    between atoms: C_17  and  C_20
REMARK    9  A    between atoms: C_19  and  C_21
REMARK   10  A    between atoms: C_19  and  C_22
REMARK   11  A    between atoms: C_21  and  C_23
REMARK                            x       y       z     vdW  Elec       q    Type
REMARK                         _______ _______ _______ _____ _____    ______ ____
ROOT
ATOM      2  O   UNL     1      10.909  10.146   7.598  0.00  0.00    -0.273 OA
ATOM      3  O   UNL     1      16.792   9.281   3.319  0.00  0.00    -0.252 OA
ATOM      7  N   UNL     1      12.582  10.174   5.982  0.00  0.00    -0.285 N 
ATOM      8  N   UNL     1      15.302   9.619   5.057  0.00  0.00    -0.282 N 
ATOM     10  N   UNL     1      17.601   9.346   5.501  0.00  0.00    -0.269 N 
ATOM     12  C   UNL     1      13.535   9.475   6.845  0.00  0.00    +0.179 C 
ATOM     13  C   UNL     1      14.998   9.745   6.490  0.00  0.00    +0.141 C 
ATOM     14  C   UNL     1      13.060  10.598   4.662  0.00  0.00    +0.127 C 
ATOM     15  C   UNL     1      14.176   9.712   4.128  0.00  0.00    +0.128 C 
ATOM     17  C   UNL     1      11.320  10.497   6.489  0.00  0.00    +0.242 C 
ATOM     18  C   UNL     1      16.598   9.396   4.531  0.00  0.00    +0.307 C 
ATOM     37  H   UNL     1      17.447   9.857   6.366  0.00  0.00    +0.156 HD
ENDROOT
BRANCH  10  24
ATOM     24  C   UNL     1      18.811   8.610   5.457  0.00  0.00    +0.035 A 
ATOM     27  C   UNL     1      19.159   7.908   4.303  0.00  0.00    +0.023 A 
ATOM     28  C   UNL     1      19.654   8.587   6.569  0.00  0.00    +0.023 A 
ATOM     31  C   UNL     1      20.350   7.183   4.259  0.00  0.00    +0.002 A 
ATOM     32  C   UNL     1      20.845   7.862   6.524  0.00  0.00    +0.002 A 
ATOM     35  C   UNL     1      21.194   7.161   5.370  0.00  0.00    +0.000 A 
ENDBRANCH  10  24
BRANCH  12  16
ATOM      1  O   UNL     1      14.087   7.153   6.985  0.00  0.00    -0.274 OA
ATOM      9  N   UNL     1      11.914   7.762   6.413  0.00  0.00    -0.301 N 
ATOM     16  C   UNL     1      13.229   8.005   6.768  0.00  0.00    +0.236 C 
ATOM     36  H   UNL     1      11.294   8.547   6.254  0.00  0.00    +0.150 HD
BRANCH   9  19
ATOM     19  C   UNL     1      11.373   6.432   6.248  0.00  0.00    +0.186 C 
BRANCH  19  22
ATOM      6  O   UNL     1      11.137   5.453   8.445  0.00  0.00    -0.249 OA
ATOM     22  C   UNL     1      10.595   5.973   7.474  0.00  0.00    +0.328 C 
BRANCH  22   5
ATOM      5  O   UNL     1       9.257   6.192   7.346  0.00  0.00    -0.467 OA
ATOM     33  C   UNL     1       8.760   7.382   7.967  0.00  0.00    +0.280 C 
ENDBRANCH  22   5
ENDBRANCH  19  22
BRANCH  19  21
ATOM     21  C   UNL     1      10.543   6.308   4.962  0.00  0.00    +0.070 C 
BRANCH  21  23
ATOM     11  N   UNL     1      12.940   5.674   2.092  0.00  0.00    -0.263 NA
ATOM     23  C   UNL     1      11.249   5.612   3.818  0.00  0.00    -0.027 A 
ATOM     25  C   UNL     1      10.891   4.326   3.433  0.00  0.00    +0.006 A 
ATOM     26  C   UNL     1      12.270   6.238   3.122  0.00  0.00    +0.114 A 
ATOM     30  C   UNL     1      11.556   3.712   2.378  0.00  0.00    +0.020 A 
ATOM     34  C   UNL     1      12.565   4.422   1.745  0.00  0.00    +0.111 A 
ENDBRANCH  21  23
ENDBRANCH  19  21
ENDBRANCH   9  19
ENDBRANCH  12  16
BRANCH  17  20
ATOM     20  C   UNL     1      10.429  11.322   5.593  0.00  0.00    +0.255 C 
BRANCH  20   4
ATOM      4  O   UNL     1       9.161  10.714   5.618  0.00  0.00    -0.374 OA
ATOM     29  C   UNL     1       9.037   9.693   4.629  0.00  0.00    +0.194 C 
ENDBRANCH  20   4
ENDBRANCH  17  20
TORSDOF 9
ENDMDL
MODEL 3
REMARK VINA RESULT:      -6.0      3.463      7.318
REMARK  Name = 11879719
REMARK  11 active torsions:
REMARK  status: ('A' for Active; 'I' for Inactive)
REMARK    1  A    between atoms: O_4  and  C_20
REMARK    2  A    between atoms: O_4  and  C_29
REMARK    3  A    between atoms: O_5  and  C_22
REMARK    4  A    between atoms: O_5  and  C_33
REMARK    5  A    between atoms: N_9  and  C_19
REMARK    6  A    between atoms: N_10  and  C_24
REMARK    7  A    between atoms: C_12  and  C_16
REMARK    8  A    between atoms: C_17  and  C_20
REMARK    9  A    between atoms: C_19  and  C_21
REMARK   10  A    between atoms: C_19  and  C_22
REMARK   11  A    between atoms: C_21  and  C_23
REMARK                            x       y       z     vdW  Elec       q    Type
REMARK                         _______ _______ _______ _____ _____    ______ ____
ROOT
ATOM      2  O   UNL     1     -10.900  -9.377  18.028  0.00  0.00    -0.273 OA
ATOM      3  O   UNL     1      -7.903 -11.230  11.606  0.00  0.00    -0.252 OA
ATOM      7  N   UNL     1     -10.366 -10.042  15.864  0.00  0.00    -0.285 N 
ATOM      8  N   UNL     1      -8.550 -10.203  13.576  0.00  0.00    -0.282 N 
ATOM     10  N   UNL     1      -6.786  -9.307  12.294  0.00  0.00    -0.269 N 
ATOM     12  C   UNL     1      -9.007  -9.507  15.952  0.00  0.00    +0.179 C 
ATOM     13  C   UNL     1      -8.398  -9.153  14.595  0.00  0.00    +0.141 C 
ATOM     14  C   UNL     1     -10.773 -10.631  14.584  0.00  0.00    +0.127 C 
ATOM     15  C   UNL     1      -9.600 -11.196  13.797  0.00  0.00    +0.128 C 
ATOM     17  C   UNL     1     -11.233  -9.871  16.948  0.00  0.00    +0.242 C 
ATOM     18  C   UNL     1      -7.741 -10.318  12.420  0.00  0.00    +0.307 C 
ATOM     37  H   UNL     1      -6.989  -8.410  12.726  0.00  0.00    +0.156 HD
ENDROOT
BRANCH  10  24
ATOM     24  C   UNL     1      -5.515  -9.390  11.675  0.00  0.00    +0.035 A 
ATOM     27  C   UNL     1      -5.264  -8.687  10.496  0.00  0.00    +0.023 A 
ATOM     28  C   UNL     1      -4.512 -10.176  12.244  0.00  0.00    +0.023 A 
ATOM     31  C   UNL     1      -4.012  -8.770   9.887  0.00  0.00    +0.002 A 
ATOM     32  C   UNL     1      -3.260 -10.258  11.634  0.00  0.00    +0.002 A 
ATOM     35  C   UNL     1      -3.010  -9.555  10.456  0.00  0.00    +0.000 A 
ENDBRANCH  10  24
BRANCH  12  16
ATOM      1  O   UNL     1      -8.554 -11.666  16.872  0.00  0.00    -0.274 OA
ATOM      9  N   UNL     1      -6.946  -9.995  17.074  0.00  0.00    -0.301 N 
ATOM     16  C   UNL     1      -8.161 -10.520  16.670  0.00  0.00    +0.236 C 
ATOM     36  H   UNL     1      -6.729  -9.030  16.854  0.00  0.00    +0.150 HD
BRANCH   9  19
ATOM     19  C   UNL     1      -5.960 -10.758  17.805  0.00  0.00    +0.186 C 
BRANCH  19  22
ATOM      6  O   UNL     1      -6.583 -10.299  20.094  0.00  0.00    -0.249 OA
ATOM     22  C   UNL     1      -6.442 -11.129  19.201  0.00  0.00    +0.328 C 
BRANCH  22   5
ATOM      5  O   UNL     1      -6.670 -12.465  19.329  0.00  0.00    -0.467 OA
ATOM     33  C   UNL     1      -7.886 -12.828  19.992  0.00  0.00    +0.280 C 
ENDBRANCH  22   5
ENDBRANCH  19  22
BRANCH  19  21
ATOM     21  C   UNL     1      -5.489 -11.988  17.015  0.00  0.00    +0.070 C 
BRANCH  21  23
ATOM     11  N   UNL     1      -2.699 -12.504  14.498  0.00  0.00    -0.263 NA
ATOM     23  C   UNL     1      -4.185 -11.800  16.270  0.00  0.00    -0.027 A 
ATOM     25  C   UNL     1      -3.289 -10.802  16.636  0.00  0.00    +0.006 A 
ATOM     26  C   UNL     1      -3.847 -12.618  15.204  0.00  0.00    +0.114 A 
ATOM     30  C   UNL     1      -2.099 -10.654  15.934  0.00  0.00    +0.020 A 
ATOM     34  C   UNL     1      -1.853 -11.522  14.882  0.00  0.00    +0.111 A 
ENDBRANCH  21  23
ENDBRANCH  19  21
ENDBRANCH   9  19
ENDBRANCH  12  16
BRANCH  17  20
ATOM     20  C   UNL     1     -12.654 -10.338  16.750  0.00  0.00    +0.255 C 
BRANCH  20   4
ATOM      4  O   UNL     1     -12.916 -11.271  17.770  0.00  0.00    -0.374 OA
ATOM     29  C   UNL     1     -12.369 -12.555  17.476  0.00  0.00    +0.194 C 
ENDBRANCH  20   4
ENDBRANCH  17  20
TORSDOF 9
ENDMDL
MODEL 4
REMARK VINA RESULT:      -5.8     29.454     33.168
REMARK  Name = 11879719
REMARK  11 active torsions:
REMARK  status: ('A' for Active; 'I' for Inactive)
REMARK    1  A    between atoms: O_4  and  C_20
REMARK    2  A    between atoms: O_4  and  C_29
REMARK    3  A    between atoms: O_5  and  C_22
REMARK    4  A    between atoms: O_5  and  C_33
REMARK    5  A    between atoms: N_9  and  C_19
REMARK    6  A    between atoms: N_10  and  C_24
REMARK    7  A    between atoms: C_12  and  C_16
REMARK    8  A    between atoms: C_17  and  C_20
REMARK    9  A    between atoms: C_19  and  C_21
REMARK   10  A    between atoms: C_19  and  C_22
REMARK   11  A    between atoms: C_21  and  C_23
REMARK                            x       y       z     vdW  Elec       q    Type
REMARK                         _______ _______ _______ _____ _____    ______ ____
ROOT
ATOM      2  O   UNL     1      11.047   7.955   6.521  0.00  0.00    -0.273 OA
ATOM      3  O   UNL     1      17.742  10.782   5.597  0.00  0.00    -0.252 OA
ATOM      7  N   UNL     1      13.016   9.192   6.463  0.00  0.00    -0.285 N 
ATOM      8  N   UNL     1      15.900   9.456   6.053  0.00  0.00    -0.282 N 
ATOM     10  N   UNL     1      18.069   8.531   6.097  0.00  0.00    -0.269 N 
ATOM     12  C   UNL     1      13.812   8.050   6.015  0.00  0.00    +0.179 C 
ATOM     13  C   UNL     1      15.294   8.156   6.376  0.00  0.00    +0.141 C 
ATOM     14  C   UNL     1      13.729  10.449   6.716  0.00  0.00    +0.127 C 
ATOM     15  C   UNL     1      14.991  10.588   5.878  0.00  0.00    +0.128 C 
ATOM     17  C   UNL     1      11.655   9.007   6.730  0.00  0.00    +0.242 C 
ATOM     18  C   UNL     1      17.290   9.671   5.885  0.00  0.00    +0.307 C 
ATOM     37  H   UNL     1      17.702   7.819   6.721  0.00  0.00    +0.156 HD
ENDROOT
BRANCH  10  24
ATOM     24  C   UNL     1      19.309   8.207   5.493  0.00  0.00    +0.035 A 
ATOM     27  C   UNL     1      20.485   8.266   6.240  0.00  0.00    +0.023 A 
ATOM     28  C   UNL     1      19.353   7.829   4.150  0.00  0.00    +0.023 A 
ATOM     31  C   UNL     1      21.706   7.946   5.645  0.00  0.00    +0.002 A 
ATOM     32  C   UNL     1      20.574   7.510   3.556  0.00  0.00    +0.002 A 
ATOM     35  C   UNL     1      21.751   7.568   4.304  0.00  0.00    +0.000 A 
ENDBRANCH  10  24
BRANCH  12  16
ATOM      1  O   UNL     1      13.951   8.822   3.756  0.00  0.00    -0.274 OA
ATOM      9  N   UNL     1      13.061   6.711   4.174  0.00  0.00    -0.301 N 
ATOM     16  C   UNL     1      13.632   7.921   4.529  0.00  0.00    +0.236 C 
ATOM     36  H   UNL     1      12.834   6.042   4.900  0.00  0.00    +0.150 HD
BRANCH   9  19
ATOM     19  C   UNL     1      12.761   6.350   2.807  0.00  0.00    +0.186 C 
BRANCH  19  22
ATOM      6  O   UNL     1      14.990   6.378   1.876  0.00  0.00    -0.249 OA
ATOM     22  C   UNL     1      13.964   5.743   2.097  0.00  0.00    +0.328 C 
BRANCH  22   5
ATOM      5  O   UNL     1      13.748   4.448   1.735  0.00  0.00    -0.467 OA
ATOM     33  C   UNL     1      14.901   3.600   1.742  0.00  0.00    +0.280 C 
ENDBRANCH  22   5
ENDBRANCH  19  22
BRANCH  19  21
ATOM     21  C   UNL     1      11.522   5.446   2.713  0.00  0.00    +0.070 C 
BRANCH  21  23
ATOM     11  N   UNL     1       8.819   5.540   5.371  0.00  0.00    -0.263 NA
ATOM     23  C   UNL     1      10.335   5.914   3.526  0.00  0.00    -0.027 A 
ATOM     25  C   UNL     1       9.671   7.093   3.209  0.00  0.00    +0.006 A 
ATOM     26  C   UNL     1       9.874   5.179   4.606  0.00  0.00    +0.114 A 
ATOM     30  C   UNL     1       8.582   7.498   3.973  0.00  0.00    +0.020 A 
ATOM     34  C   UNL     1       8.199   6.693   5.034  0.00  0.00    +0.111 A 
ENDBRANCH  21  23
ENDBRANCH  19  21
ENDBRANCH   9  19
ENDBRANCH  12  16
BRANCH  17  20
ATOM     20  C   UNL     1      10.917  10.192   7.303  0.00  0.00    +0.255 C 
BRANCH  20   4
ATOM      4  O   UNL     1      10.732   9.927   8.672  0.00  0.00    -0.374 OA
ATOM     29  C   UNL     1      10.654  11.124   9.444  0.00  0.00    +0.194 C 
ENDBRANCH  20   4
ENDBRANCH  17  20
TORSDOF 9
ENDMDL
MODEL 5
REMARK VINA RESULT:      -5.8     28.609     32.084
REMARK  Name = 11879719
REMARK  11 active torsions:
REMARK  status: ('A' for Active; 'I' for Inactive)
REMARK    1  A    between atoms: O_4  and  C_20
REMARK    2  A    between atoms: O_4  and  C_29
REMARK    3  A    between atoms: O_5  and  C_22
REMARK    4  A    between atoms: O_5  and  C_33
REMARK    5  A    between atoms: N_9  and  C_19
REMARK    6  A    between atoms: N_10  and  C_24
REMARK    7  A    between atoms: C_12  and  C_16
REMARK    8  A    between atoms: C_17  and  C_20
REMARK    9  A    between atoms: C_19  and  C_21
REMARK   10  A    between atoms: C_19  and  C_22
REMARK   11  A    between atoms: C_21  and  C_23
REMARK                            x       y       z     vdW  Elec       q    Type
REMARK                         _______ _______ _______ _____ _____    ______ ____
ROOT
ATOM      2  O   UNL     1      10.426   9.838   7.511  0.00  0.00    -0.273 OA
ATOM      3  O   UNL     1      16.344   8.869   3.303  0.00  0.00    -0.252 OA
ATOM      7  N   UNL     1      12.085   9.778   5.882  0.00  0.00    -0.285 N 
ATOM      8  N   UNL     1      14.838   9.321   5.001  0.00  0.00    -0.282 N 
ATOM     10  N   UNL     1      17.153   9.299   5.444  0.00  0.00    -0.269 N 
ATOM     12  C   UNL     1      13.095   9.283   6.818  0.00  0.00    +0.179 C 
ATOM     13  C   UNL     1      14.529   9.619   6.408  0.00  0.00    +0.141 C 
ATOM     14  C   UNL     1      12.522  10.053   4.509  0.00  0.00    +0.127 C 
ATOM     15  C   UNL     1      13.705   9.195   4.085  0.00  0.00    +0.128 C 
ATOM     17  C   UNL     1      10.802  10.065   6.358  0.00  0.00    +0.242 C 
ATOM     18  C   UNL     1      16.146   9.134   4.491  0.00  0.00    +0.307 C 
ATOM     37  H   UNL     1      16.961   9.909   6.233  0.00  0.00    +0.156 HD
ENDROOT
BRANCH  10  24
ATOM     24  C   UNL     1      18.419   8.663   5.483  0.00  0.00    +0.035 A 
ATOM     27  C   UNL     1      18.900   7.997   4.356  0.00  0.00    +0.023 A 
ATOM     28  C   UNL     1      19.184   8.703   6.649  0.00  0.00    +0.023 A 
ATOM     31  C   UNL     1      20.146   7.371   4.394  0.00  0.00    +0.002 A 
ATOM     32  C   UNL     1      20.430   8.077   6.687  0.00  0.00    +0.002 A 
ATOM     35  C   UNL     1      20.912   7.411   5.559  0.00  0.00    +0.000 A 
ENDBRANCH  10  24
BRANCH  12  16
ATOM      1  O   UNL     1      13.866   7.030   7.031  0.00  0.00    -0.274 OA
ATOM      9  N   UNL     1      11.575   7.433   6.935  0.00  0.00    -0.301 N 
ATOM     16  C   UNL     1      12.910   7.797   6.947  0.00  0.00    +0.236 C 
ATOM     36  H   UNL     1      10.869   8.154   6.857  0.00  0.00    +0.150 HD
BRANCH   9  19
ATOM     19  C   UNL     1      11.130   6.060   7.022  0.00  0.00    +0.186 C 
BRANCH  19  22
ATOM      6  O   UNL     1       9.211   6.748   8.320  0.00  0.00    -0.249 OA
ATOM     22  C   UNL     1      10.038   5.877   8.067  0.00  0.00    +0.328 C 
BRANCH  22   5
ATOM      5  O   UNL     1      10.110   4.661   8.678  0.00  0.00    -0.467 OA
ATOM     33  C   UNL     1       9.299   4.504   9.847  0.00  0.00    +0.280 C 
ENDBRANCH  22   5
ENDBRANCH  19  22
BRANCH  19  21
ATOM     21  C   UNL     1      10.712   5.508   5.651  0.00  0.00    +0.070 C 
BRANCH  21  23
ATOM     11  N   UNL     1       9.987   7.978   2.867  0.00  0.00    -0.263 NA
ATOM     23  C   UNL     1       9.970   6.491   4.773  0.00  0.00    -0.027 A 
ATOM     25  C   UNL     1       8.644   6.821   5.029  0.00  0.00    +0.006 A 
ATOM     26  C   UNL     1      10.591   7.091   3.689  0.00  0.00    +0.114 A 
ATOM     30  C   UNL     1       7.989   7.729   4.204  0.00  0.00    +0.020 A 
ATOM     34  C   UNL     1       8.698   8.274   3.146  0.00  0.00    +0.111 A 
ENDBRANCH  21  23
ENDBRANCH  19  21
ENDBRANCH   9  19
ENDBRANCH  12  16
BRANCH  17  20
ATOM     20  C   UNL     1       9.844  10.685   5.371  0.00  0.00    +0.255 C 
BRANCH  20   4
ATOM      4  O   UNL     1       9.410  11.896   5.939  0.00  0.00    -0.374 OA
ATOM     29  C   UNL     1      10.256  12.989   5.582  0.00  0.00    +0.194 C 
ENDBRANCH  20   4
ENDBRANCH  17  20
TORSDOF 9
ENDMDL
MODEL 6
REMARK VINA RESULT:      -5.8      5.229      9.575
REMARK  Name = 11879719
REMARK  11 active torsions:
REMARK  status: ('A' for Active; 'I' for Inactive)
REMARK    1  A    between atoms: O_4  and  C_20
REMARK    2  A    between atoms: O_4  and  C_29
REMARK    3  A    between atoms: O_5  and  C_22
REMARK    4  A    between atoms: O_5  and  C_33
REMARK    5  A    between atoms: N_9  and  C_19
REMARK    6  A    between atoms: N_10  and  C_24
REMARK    7  A    between atoms: C_12  and  C_16
REMARK    8  A    between atoms: C_17  and  C_20
REMARK    9  A    between atoms: C_19  and  C_21
REMARK   10  A    between atoms: C_19  and  C_22
REMARK   11  A    between atoms: C_21  and  C_23
REMARK                            x       y       z     vdW  Elec       q    Type
REMARK                         _______ _______ _______ _____ _____    ______ ____
ROOT
ATOM      2  O   UNL     1      -3.818 -12.812  14.895  0.00  0.00    -0.273 OA
ATOM      3  O   UNL     1      -3.727  -8.692   8.839  0.00  0.00    -0.252 OA
ATOM      7  N   UNL     1      -3.349 -11.532  13.010  0.00  0.00    -0.285 N 
ATOM      8  N   UNL     1      -4.095 -10.296  10.466  0.00  0.00    -0.282 N 
ATOM     10  N   UNL     1      -5.389 -10.286   8.494  0.00  0.00    -0.269 N 
ATOM     12  C   UNL     1      -4.719 -11.631  12.507  0.00  0.00    +0.179 C 
ATOM     13  C   UNL     1      -4.831 -11.455  10.992  0.00  0.00    +0.141 C 
ATOM     14  C   UNL     1      -2.379 -10.815  12.176  0.00  0.00    +0.127 C 
ATOM     15  C   UNL     1      -3.027  -9.751  11.302  0.00  0.00    +0.128 C 
ATOM     17  C   UNL     1      -3.009 -12.207  14.187  0.00  0.00    +0.242 C 
ATOM     18  C   UNL     1      -4.367  -9.673   9.223  0.00  0.00    +0.307 C 
ATOM     37  H   UNL     1      -5.552 -11.276   8.652  0.00  0.00    +0.156 HD
ENDROOT
BRANCH  10  24
ATOM     24  C   UNL     1      -6.287  -9.676   7.585  0.00  0.00    +0.035 A 
ATOM     27  C   UNL     1      -6.169  -9.921   6.217  0.00  0.00    +0.023 A 
ATOM     28  C   UNL     1      -7.291  -8.829   8.058  0.00  0.00    +0.023 A 
ATOM     31  C   UNL     1      -7.054  -9.320   5.321  0.00  0.00    +0.002 A 
ATOM     32  C   UNL     1      -8.175  -8.229   7.161  0.00  0.00    +0.002 A 
ATOM     35  C   UNL     1      -8.058  -8.475   5.793  0.00  0.00    +0.000 A 
ENDBRANCH  10  24
BRANCH  12  16
ATOM      1  O   UNL     1      -5.695  -9.466  12.786  0.00  0.00    -0.274 OA
ATOM      9  N   UNL     1      -6.073 -11.091  14.411  0.00  0.00    -0.301 N 
ATOM     16  C   UNL     1      -5.547 -10.603  13.227  0.00  0.00    +0.236 C 
ATOM     36  H   UNL     1      -5.881 -12.048  14.677  0.00  0.00    +0.150 HD
BRANCH   9  19
ATOM     19  C   UNL     1      -6.886 -10.293  15.301  0.00  0.00    +0.186 C 
BRANCH  19  22
ATOM      6  O   UNL     1      -7.876 -12.309  16.192  0.00  0.00    -0.249 OA
ATOM     22  C   UNL     1      -7.992 -11.111  15.954  0.00  0.00    +0.328 C 
BRANCH  22   5
ATOM      5  O   UNL     1      -9.100 -10.363  16.214  0.00  0.00    -0.467 OA
ATOM     33  C   UNL     1      -9.434  -9.382  15.226  0.00  0.00    +0.280 C 
ENDBRANCH  22   5
ENDBRANCH  19  22
BRANCH  19  21
ATOM     21  C   UNL     1      -6.034  -9.547  16.339  0.00  0.00    +0.070 C 
BRANCH  21  23
ATOM     11  N   UNL     1      -6.589 -10.721  19.902  0.00  0.00    -0.263 NA
ATOM     23  C   UNL     1      -5.840 -10.285  17.645  0.00  0.00    -0.027 A 
ATOM     25  C   UNL     1      -4.784 -11.173  17.816  0.00  0.00    +0.006 A 
ATOM     26  C   UNL     1      -6.707 -10.095  18.709  0.00  0.00    +0.114 A 
ATOM     30  C   UNL     1      -4.631 -11.836  19.028  0.00  0.00    +0.020 A 
ATOM     34  C   UNL     1      -5.552 -11.578  20.031  0.00  0.00    +0.111 A 
ENDBRANCH  21  23
ENDBRANCH  19  21
ENDBRANCH   9  19
ENDBRANCH  12  16
BRANCH  17  20
ATOM     20  C   UNL     1      -1.555 -12.164  14.588  0.00  0.00    +0.255 C 
BRANCH  20   4
ATOM      4  O   UNL     1      -1.489 -11.421  15.781  0.00  0.00    -0.374 OA
ATOM     29  C   UNL     1      -1.082 -10.073  15.550  0.00  0.00    +0.194 C 
ENDBRANCH  20   4
ENDBRANCH  17  20
TORSDOF 9
ENDMDL
MODEL 7
REMARK VINA RESULT:      -5.8     28.578     32.627
REMARK  Name = 11879719
REMARK  11 active torsions:
REMARK  status: ('A' for Active; 'I' for Inactive)
REMARK    1  A    between atoms: O_4  and  C_20
REMARK    2  A    between atoms: O_4  and  C_29
REMARK    3  A    between atoms: O_5  and  C_22
REMARK    4  A    between atoms: O_5  and  C_33
REMARK    5  A    between atoms: N_9  and  C_19
REMARK    6  A    between atoms: N_10  and  C_24
REMARK    7  A    between atoms: C_12  and  C_16
REMARK    8  A    between atoms: C_17  and  C_20
REMARK    9  A    between atoms: C_19  and  C_21
REMARK   10  A    between atoms: C_19  and  C_22
REMARK   11  A    between atoms: C_21  and  C_23
REMARK                            x       y       z     vdW  Elec       q    Type
REMARK                         _______ _______ _______ _____ _____    ______ ____
ROOT
ATOM      2  O   UNL     1      10.093   7.438  -3.198  0.00  0.00    -0.273 OA
ATOM      3  O   UNL     1      12.972   6.697   3.497  0.00  0.00    -0.252 OA
ATOM      7  N   UNL     1      11.322   7.473  -1.224  0.00  0.00    -0.285 N 
ATOM      8  N   UNL     1      11.615   7.045   1.655  0.00  0.00    -0.282 N 
ATOM     10  N   UNL     1      10.682   6.961   3.819  0.00  0.00    -0.269 N 
ATOM     12  C   UNL     1      10.228   6.899  -0.441  0.00  0.00    +0.179 C 
ATOM     13  C   UNL     1      10.291   7.245   1.047  0.00  0.00    +0.141 C 
ATOM     14  C   UNL     1      12.544   7.841  -0.500  0.00  0.00    +0.127 C 
ATOM     15  C   UNL     1      12.762   7.001   0.750  0.00  0.00    +0.128 C 
ATOM     17  C   UNL     1      11.116   7.743  -2.581  0.00  0.00    +0.242 C 
ATOM     18  C   UNL     1      11.840   6.878   3.043  0.00  0.00    +0.307 C 
ATOM     37  H   UNL     1       9.911   7.515   3.458  0.00  0.00    +0.156 HD
ENDROOT
BRANCH  10  24
ATOM     24  C   UNL     1      10.415   6.307   5.047  0.00  0.00    +0.035 A 
ATOM     27  C   UNL     1      10.073   4.955   5.059  0.00  0.00    +0.023 A 
ATOM     28  C   UNL     1      10.496   7.017   6.247  0.00  0.00    +0.023 A 
ATOM     31  C   UNL     1       9.811   4.312   6.269  0.00  0.00    +0.002 A 
ATOM     32  C   UNL     1      10.233   6.373   7.456  0.00  0.00    +0.002 A 
ATOM     35  C   UNL     1       9.892   5.020   7.468  0.00  0.00    +0.000 A 
ENDBRANCH  10  24
BRANCH  12  16
ATOM      1  O   UNL     1       9.612   4.648   0.075  0.00  0.00    -0.274 OA
ATOM      9  N   UNL     1      11.073   5.039  -1.695  0.00  0.00    -0.301 N 
ATOM     16  C   UNL     1      10.251   5.411  -0.645  0.00  0.00    +0.236 C 
ATOM     36  H   UNL     1      11.557   5.757  -2.220  0.00  0.00    +0.150 HD
BRANCH   9  19
ATOM     19  C   UNL     1      11.286   3.663  -2.081  0.00  0.00    +0.186 C 
BRANCH  19  22
ATOM      6  O   UNL     1      11.253   3.043  -4.417  0.00  0.00    -0.249 OA
ATOM     22  C   UNL     1      10.616   3.329  -3.408  0.00  0.00    +0.328 C 
BRANCH  22   5
ATOM      5  O   UNL     1       9.259   3.406  -3.332  0.00  0.00    -0.467 OA
ATOM     33  C   UNL     1       8.647   4.416  -4.143  0.00  0.00    +0.280 C 
ENDBRANCH  22   5
ENDBRANCH  19  22
BRANCH  19  21
ATOM     21  C   UNL     1      12.777   3.294  -2.083  0.00  0.00    +0.070 C 
BRANCH  21  23
ATOM     11  N   UNL     1      15.426   4.301   0.437  0.00  0.00    -0.263 NA
ATOM     23  C   UNL     1      13.482   3.508  -0.762  0.00  0.00    -0.027 A 
ATOM     25  C   UNL     1      12.887   3.131   0.437  0.00  0.00    +0.006 A 
ATOM     26  C   UNL     1      14.742   4.083  -0.709  0.00  0.00    +0.114 A 
ATOM     30  C   UNL     1      13.560   3.340   1.636  0.00  0.00    +0.020 A 
ATOM     34  C   UNL     1      14.816   3.923   1.582  0.00  0.00    +0.111 A 
ENDBRANCH  21  23
ENDBRANCH  19  21
ENDBRANCH   9  19
ENDBRANCH  12  16
BRANCH  17  20
ATOM     20  C   UNL     1      12.240   8.444  -3.303  0.00  0.00    +0.255 C 
BRANCH  20   4
ATOM      4  O   UNL     1      12.657   7.580  -4.332  0.00  0.00    -0.374 OA
ATOM     29  C   UNL     1      13.634   6.642  -3.880  0.00  0.00    +0.194 C 
ENDBRANCH  20   4
ENDBRANCH  17  20
TORSDOF 9
ENDMDL
MODEL 8
REMARK VINA RESULT:      -5.8      2.781      8.640
REMARK  Name = 11879719
REMARK  11 active torsions:
REMARK  status: ('A' for Active; 'I' for Inactive)
REMARK    1  A    between atoms: O_4  and  C_20
REMARK    2  A    between atoms: O_4  and  C_29
REMARK    3  A    between atoms: O_5  and  C_22
REMARK    4  A    between atoms: O_5  and  C_33
REMARK    5  A    between atoms: N_9  and  C_19
REMARK    6  A    between atoms: N_10  and  C_24
REMARK    7  A    between atoms: C_12  and  C_16
REMARK    8  A    between atoms: C_17  and  C_20
REMARK    9  A    between atoms: C_19  and  C_21
REMARK   10  A    between atoms: C_19  and  C_22
REMARK   11  A    between atoms: C_21  and  C_23
REMARK                            x       y       z     vdW  Elec       q    Type
REMARK                         _______ _______ _______ _____ _____    ______ ____
ROOT
ATOM      2  O   UNL     1      -7.840  -9.939  18.152  0.00  0.00    -0.273 OA
ATOM      3  O   UNL     1     -13.683  -7.544  14.438  0.00  0.00    -0.252 OA
ATOM      7  N   UNL     1      -9.923  -9.313  17.327  0.00  0.00    -0.285 N 
ATOM      8  N   UNL     1     -11.642  -7.814  15.495  0.00  0.00    -0.282 N 
ATOM     10  N   UNL     1     -12.036  -5.925  14.140  0.00  0.00    -0.269 N 
ATOM     12  C   UNL     1      -9.342  -8.489  16.267  0.00  0.00    +0.179 C 
ATOM     13  C   UNL     1     -10.268  -7.373  15.780  0.00  0.00    +0.141 C 
ATOM     14  C   UNL     1     -11.386  -9.329  17.438  0.00  0.00    +0.127 C 
ATOM     15  C   UNL     1     -12.079  -9.066  16.110  0.00  0.00    +0.128 C 
ATOM     17  C   UNL     1      -9.071  -9.947  18.237  0.00  0.00    +0.242 C 
ATOM     18  C   UNL     1     -12.546  -7.118  14.656  0.00  0.00    +0.307 C 
ATOM     37  H   UNL     1     -11.318  -5.448  14.676  0.00  0.00    +0.156 HD
ENDROOT
BRANCH  10  24
ATOM     24  C   UNL     1     -12.358  -5.310  12.905  0.00  0.00    +0.035 A 
ATOM     27  C   UNL     1     -12.417  -6.073  11.739  0.00  0.00    +0.023 A 
ATOM     28  C   UNL     1     -12.617  -3.939  12.855  0.00  0.00    +0.023 A 
ATOM     31  C   UNL     1     -12.735  -5.468  10.523  0.00  0.00    +0.002 A 
ATOM     32  C   UNL     1     -12.935  -3.334  11.638  0.00  0.00    +0.002 A 
ATOM     35  C   UNL     1     -12.994  -4.098  10.473  0.00  0.00    +0.000 A 
ENDBRANCH  10  24
BRANCH  12  16
ATOM      1  O   UNL     1      -9.801 -10.049  14.515  0.00  0.00    -0.274 OA
ATOM      9  N   UNL     1      -7.595  -9.421  14.917  0.00  0.00    -0.301 N 
ATOM     16  C   UNL     1      -8.962  -9.400  15.135  0.00  0.00    +0.236 C 
ATOM     36  H   UNL     1      -6.995  -8.845  15.495  0.00  0.00    +0.150 HD
BRANCH   9  19
ATOM     19  C   UNL     1      -6.970 -10.236  13.900  0.00  0.00    +0.186 C 
BRANCH  19  22
ATOM      6  O   UNL     1      -6.277  -8.658  12.206  0.00  0.00    -0.249 OA
ATOM     22  C   UNL     1      -7.022  -9.579  12.526  0.00  0.00    +0.328 C 
BRANCH  22   5
ATOM      5  O   UNL     1      -7.986 -10.122  11.732  0.00  0.00    -0.467 OA
ATOM     33  C   UNL     1      -7.876  -9.833  10.335  0.00  0.00    +0.280 C 
ENDBRANCH  22   5
ENDBRANCH  19  22
BRANCH  19  21
ATOM     21  C   UNL     1      -5.541 -10.640  14.290  0.00  0.00    +0.070 C 
BRANCH  21  23
ATOM     11  N   UNL     1      -6.019 -12.961  17.250  0.00  0.00    -0.263 NA
ATOM     23  C   UNL     1      -5.407 -11.232  15.675  0.00  0.00    -0.027 A 
ATOM     25  C   UNL     1      -4.593 -10.638  16.632  0.00  0.00    +0.006 A 
ATOM     26  C   UNL     1      -6.094 -12.382  16.030  0.00  0.00    +0.114 A 
ATOM     30  C   UNL     1      -4.490 -11.205  17.898  0.00  0.00    +0.020 A 
ATOM     34  C   UNL     1      -5.218 -12.357  18.155  0.00  0.00    +0.111 A 
ENDBRANCH  21  23
ENDBRANCH  19  21
ENDBRANCH   9  19
ENDBRANCH  12  16
BRANCH  17  20
ATOM     20  C   UNL     1      -9.733 -10.683  19.375  0.00  0.00    +0.255 C 
BRANCH  20   4
ATOM      4  O   UNL     1      -8.748 -11.507  19.949  0.00  0.00    -0.374 OA
ATOM     29  C   UNL     1      -9.140 -12.879  19.966  0.00  0.00    +0.194 C 
ENDBRANCH  20   4
ENDBRANCH  17  20
TORSDOF 9
ENDMDL
MODEL 9
REMARK VINA RESULT:      -5.8     30.935     33.705
REMARK  Name = 11879719
REMARK  11 active torsions:
REMARK  status: ('A' for Active; 'I' for Inactive)
REMARK    1  A    between atoms: O_4  and  C_20
REMARK    2  A    between atoms: O_4  and  C_29
REMARK    3  A    between atoms: O_5  and  C_22
REMARK    4  A    between atoms: O_5  and  C_33
REMARK    5  A    between atoms: N_9  and  C_19
REMARK    6  A    between atoms: N_10  and  C_24
REMARK    7  A    between atoms: C_12  and  C_16
REMARK    8  A    between atoms: C_17  and  C_20
REMARK    9  A    between atoms: C_19  and  C_21
REMARK   10  A    between atoms: C_19  and  C_22
REMARK   11  A    between atoms: C_21  and  C_23
REMARK                            x       y       z     vdW  Elec       q    Type
REMARK                         _______ _______ _______ _____ _____    ______ ____
ROOT
ATOM      2  O   UNL     1      10.507   6.791   4.063  0.00  0.00    -0.273 OA
ATOM      3  O   UNL     1      16.790  10.526   4.550  0.00  0.00    -0.252 OA
ATOM      7  N   UNL     1      12.240   8.324   4.299  0.00  0.00    -0.285 N 
ATOM      8  N   UNL     1      15.049   9.013   4.740  0.00  0.00    -0.282 N 
ATOM     10  N   UNL     1      17.156   8.523   5.679  0.00  0.00    -0.269 N 
ATOM     12  C   UNL     1      13.254   7.276   4.422  0.00  0.00    +0.179 C 
ATOM     13  C   UNL     1      14.506   7.719   5.180  0.00  0.00    +0.141 C 
ATOM     14  C   UNL     1      12.692   9.713   4.432  0.00  0.00    +0.127 C 
ATOM     15  C   UNL     1      14.143   9.901   4.014  0.00  0.00    +0.128 C 
ATOM     17  C   UNL     1      10.897   7.956   4.175  0.00  0.00    +0.242 C 
ATOM     18  C   UNL     1      16.383   9.435   4.957  0.00  0.00    +0.307 C 
ATOM     37  H   UNL     1      16.673   7.900   6.320  0.00  0.00    +0.156 HD
ENDROOT
BRANCH  10  24
ATOM     24  C   UNL     1      18.553   8.310   5.587  0.00  0.00    +0.035 A 
ATOM     27  C   UNL     1      19.114   7.865   4.390  0.00  0.00    +0.023 A 
ATOM     28  C   UNL     1      19.369   8.546   6.695  0.00  0.00    +0.023 A 
ATOM     31  C   UNL     1      20.491   7.656   4.299  0.00  0.00    +0.002 A 
ATOM     32  C   UNL     1      20.745   8.336   6.603  0.00  0.00    +0.002 A 
ATOM     35  C   UNL     1      21.306   7.892   5.406  0.00  0.00    +0.000 A 
ENDBRANCH  10  24
BRANCH  12  16
ATOM      1  O   UNL     1      14.157   7.554   2.225  0.00  0.00    -0.274 OA
ATOM      9  N   UNL     1      13.213   5.506   2.806  0.00  0.00    -0.301 N 
ATOM     16  C   UNL     1      13.604   6.814   3.036  0.00  0.00    +0.236 C 
ATOM     36  H   UNL     1      12.760   4.990   3.550  0.00  0.00    +0.150 HD
BRANCH   9  19
ATOM     19  C   UNL     1      13.414   4.832   1.543  0.00  0.00    +0.186 C 
BRANCH  19  22
ATOM      6  O   UNL     1      15.105   3.170   2.011  0.00  0.00    -0.249 OA
ATOM     22  C   UNL     1      14.801   4.212   1.438  0.00  0.00    +0.328 C 
BRANCH  22   5
ATOM      5  O   UNL     1      15.639   4.955   0.663  0.00  0.00    -0.467 OA
ATOM     33  C   UNL     1      16.187   4.286  -0.478  0.00  0.00    +0.280 C 
ENDBRANCH  22   5
ENDBRANCH  19  22
BRANCH  19  21
ATOM     21  C   UNL     1      12.304   3.808   1.259  0.00  0.00    +0.070 C 
BRANCH  21  23
ATOM     11  N   UNL     1      10.205   4.381  -1.846  0.00  0.00    -0.263 NA
ATOM     23  C   UNL     1      11.843   3.759  -0.180  0.00  0.00    -0.027 A 
ATOM     25  C   UNL     1      12.578   3.081  -1.146  0.00  0.00    +0.006 A 
ATOM     26  C   UNL     1      10.673   4.388  -0.578  0.00  0.00    +0.114 A 
ATOM     30  C   UNL     1      12.128   3.052  -2.461  0.00  0.00    +0.020 A 
ATOM     34  C   UNL     1      10.946   3.713  -2.757  0.00  0.00    +0.111 A 
ENDBRANCH  21  23
ENDBRANCH  19  21
ENDBRANCH   9  19
ENDBRANCH  12  16
BRANCH  17  20
ATOM     20  C   UNL     1       9.891   9.080   4.174  0.00  0.00    +0.255 C 
BRANCH  20   4
ATOM      4  O   UNL     1       9.300   9.092   5.451  0.00  0.00    -0.374 OA
ATOM     29  C   UNL     1       9.283  10.400   6.021  0.00  0.00    +0.194 C 
ENDBRANCH  20   4
ENDBRANCH  17  20
TORSDOF 9
ENDMDL
MODEL 10
REMARK VINA RESULT:      -5.8     27.120     30.763
REMARK  Name = 11879719
REMARK  11 active torsions:
REMARK  status: ('A' for Active; 'I' for Inactive)
REMARK    1  A    between atoms: O_4  and  C_20
REMARK    2  A    between atoms: O_4  and  C_29
REMARK    3  A    between atoms: O_5  and  C_22
REMARK    4  A    between atoms: O_5  and  C_33
REMARK    5  A    between atoms: N_9  and  C_19
REMARK    6  A    between atoms: N_10  and  C_24
REMARK    7  A    between atoms: C_12  and  C_16
REMARK    8  A    between atoms: C_17  and  C_20
REMARK    9  A    between atoms: C_19  and  C_21
REMARK   10  A    between atoms: C_19  and  C_22
REMARK   11  A    between atoms: C_21  and  C_23
REMARK                            x       y       z     vdW  Elec       q    Type
REMARK                         _______ _______ _______ _____ _____    ______ ____
ROOT
ATOM      2  O   UNL     1      13.054   7.400   6.207  0.00  0.00    -0.273 OA
ATOM      3  O   UNL     1      10.108   6.956  -0.485  0.00  0.00    -0.252 OA
ATOM      7  N   UNL     1      12.125   7.701   4.096  0.00  0.00    -0.285 N 
ATOM      8  N   UNL     1      11.399   6.755   1.425  0.00  0.00    -0.282 N 
ATOM     10  N   UNL     1      11.790   5.348  -0.427  0.00  0.00    -0.269 N 
ATOM     12  C   UNL     1      12.358   6.310   3.709  0.00  0.00    +0.179 C 
ATOM     13  C   UNL     1      12.465   6.102   2.199  0.00  0.00    +0.141 C 
ATOM     14  C   UNL     1      11.542   8.589   3.084  0.00  0.00    +0.127 C 
ATOM     15  C   UNL     1      10.677   7.846   2.078  0.00  0.00    +0.128 C 
ATOM     17  C   UNL     1      12.563   8.139   5.350  0.00  0.00    +0.242 C 
ATOM     18  C   UNL     1      11.022   6.383   0.111  0.00  0.00    +0.307 C 
ATOM     37  H   UNL     1      12.739   5.237  -0.084  0.00  0.00    +0.156 HD
ENDROOT
BRANCH  10  24
ATOM     24  C   UNL     1      11.385   4.372  -1.371  0.00  0.00    +0.035 A 
ATOM     27  C   UNL     1      12.051   3.148  -1.438  0.00  0.00    +0.023 A 
ATOM     28  C   UNL     1      10.320   4.636  -2.233  0.00  0.00    +0.023 A 
ATOM     31  C   UNL     1      11.652   2.187  -2.368  0.00  0.00    +0.002 A 
ATOM     32  C   UNL     1       9.922   3.674  -3.162  0.00  0.00    +0.002 A 
ATOM     35  C   UNL     1      10.587   2.450  -3.229  0.00  0.00    +0.000 A 
ENDBRANCH  10  24
BRANCH  12  16
ATOM      1  O   UNL     1      10.648   4.641   3.616  0.00  0.00    -0.274 OA
ATOM      9  N   UNL     1      10.980   5.804   5.605  0.00  0.00    -0.301 N 
ATOM     16  C   UNL     1      11.243   5.482   4.285  0.00  0.00    +0.236 C 
ATOM     36  H   UNL     1      11.535   6.521   6.057  0.00  0.00    +0.150 HD
BRANCH   9  19
ATOM     19  C   UNL     1       9.939   5.169   6.381  0.00  0.00    +0.186 C 
BRANCH  19  22
ATOM      6  O   UNL     1      11.268   5.660   8.338  0.00  0.00    -0.249 OA
ATOM     22  C   UNL     1      10.292   5.091   7.860  0.00  0.00    +0.328 C 
BRANCH  22   5
ATOM      5  O   UNL     1       9.418   4.313   8.557  0.00  0.00    -0.467 OA
ATOM     33  C   UNL     1       9.184   4.704   9.915  0.00  0.00    +0.280 C 
ENDBRANCH  22   5
ENDBRANCH  19  22
BRANCH  19  21
ATOM     21  C   UNL     1       8.572   5.829   6.151  0.00  0.00    +0.070 C 
BRANCH  21  23
ATOM     11  N   UNL     1       9.044   9.490   7.019  0.00  0.00    -0.263 NA
ATOM     23  C   UNL     1       8.613   7.335   6.013  0.00  0.00    -0.027 A 
ATOM     25  C   UNL     1       8.273   7.954   4.815  0.00  0.00    +0.006 A 
ATOM     26  C   UNL     1       8.988   8.141   7.076  0.00  0.00    +0.114 A 
ATOM     30  C   UNL     1       8.319   9.340   4.718  0.00  0.00    +0.020 A 
ATOM     34  C   UNL     1       8.708  10.057   5.839  0.00  0.00    +0.111 A 
ENDBRANCH  21  23
ENDBRANCH  19  21
ENDBRANCH   9  19
ENDBRANCH  12  16
BRANCH  17  20
ATOM     20  C   UNL     1      12.401   9.611   5.640  0.00  0.00    +0.255 C 
BRANCH  20   4
ATOM      4  O   UNL     1      13.666  10.083   6.036  0.00  0.00    -0.374 OA
ATOM     29  C   UNL     1      14.493  10.400   4.917  0.00  0.00    +0.194 C 
ENDBRANCH  20   4
ENDBRANCH  17  20
TORSDOF 9
ENDMDL
