MODEL 1
REMARK VINA RESULT:      -7.1      0.000      0.000
REMARK  Name = 71694325
REMARK  6 active torsions:
REMARK  status: ('A' for Active; 'I' for Inactive)
REMARK    1  A    between atoms: S_1  and  N_9
REMARK    2  A    between atoms: S_1  and  C_17
REMARK    3  A    between atoms: O_8  and  C_25
REMARK    4  A    between atoms: O_8  and  C_26
REMARK    5  A    between atoms: C_12  and  C_15
REMARK    6  A    between atoms: C_18  and  C_20
REMARK                            x       y       z     vdW  Elec       q    Type
REMARK                         _______ _______ _______ _____ _____    ______ ____
ROOT
ATOM     10  N   UNL     1      15.381   6.783  21.289  0.00  0.00    -0.340 N 
ATOM     11  N   UNL     1      14.217   7.210  19.447  0.00  0.00    -0.238 NA
ATOM     15  C   UNL     1      14.171   7.137  20.758  0.00  0.00    +0.129 A 
ATOM     18  C   UNL     1      16.252   6.619  20.249  0.00  0.00    +0.066 A 
ATOM     19  C   UNL     1      15.511   6.889  19.123  0.00  0.00    +0.139 A 
ATOM     27  H   UNL     1      15.587   6.677  22.273  0.00  0.00    +0.167 HD
ENDROOT
BRANCH  15  12
ATOM      5  O   UNL     1      10.667   6.699  22.061  0.00  0.00    -0.376 OA
ATOM      9  N   UNL     1      12.502   8.839  21.644  0.00  0.00    -0.167 NA
ATOM     12  C   UNL     1      12.968   7.400  21.643  0.00  0.00    +0.171 C 
ATOM     13  C   UNL     1      11.263   8.999  22.474  0.00  0.00    +0.138 C 
ATOM     14  C   UNL     1      11.797   6.503  21.208  0.00  0.00    +0.188 C 
ATOM     16  C   UNL     1      10.195   8.042  21.974  0.00  0.00    +0.177 C 
BRANCH   9   1
ATOM      1  S   UNL     1      13.699  10.038  21.962  0.00  0.00    +0.030 S 
ATOM      6  O   UNL     1      13.995  10.722  20.727  0.00  0.00    -0.158 OA
ATOM      7  O   UNL     1      14.728   9.444  22.780  0.00  0.00    -0.158 OA
ATOM     17  C   UNL     1      12.735  11.122  22.981  0.00  0.00    +0.215 C 
ENDBRANCH   9   1
ENDBRANCH  15  12
BRANCH  18  20
ATOM     20  C   UNL     1      17.631   6.244  20.423  0.00  0.00    +0.000 A 
ATOM     21  C   UNL     1      18.361   6.749  21.499  0.00  0.00    +0.013 A 
ATOM     22  C   UNL     1      18.237   5.376  19.515  0.00  0.00    +0.013 A 
ATOM     23  C   UNL     1      19.697   6.385  21.668  0.00  0.00    +0.046 A 
ATOM     24  C   UNL     1      19.573   5.012  19.683  0.00  0.00    +0.046 A 
ATOM     25  C   UNL     1      20.303   5.516  20.760  0.00  0.00    +0.130 A 
BRANCH  25   8
ATOM      8  O   UNL     1      21.605   5.159  20.926  0.00  0.00    -0.406 OA
BRANCH   8  26
ATOM      2  F   UNL     1      21.833   3.841  22.782  0.00  0.00    -0.133 F 
ATOM      3  F   UNL     1      23.143   3.512  21.064  0.00  0.00    -0.133 F 
ATOM      4  F   UNL     1      21.038   2.944  20.926  0.00  0.00    -0.133 F 
ATOM     26  C   UNL     1      21.889   3.860  21.432  0.00  0.00    +0.575 C 
ENDBRANCH   8  26
ENDBRANCH  25   8
ENDBRANCH  18  20
TORSDOF 5
ENDMDL
MODEL 2
REMARK VINA RESULT:      -7.1     17.540     19.579
REMARK  Name = 71694325
REMARK  6 active torsions:
REMARK  status: ('A' for Active; 'I' for Inactive)
REMARK    1  A    between atoms: S_1  and  N_9
REMARK    2  A    between atoms: S_1  and  C_17
REMARK    3  A    between atoms: O_8  and  C_25
REMARK    4  A    between atoms: O_8  and  C_26
REMARK    5  A    between atoms: C_12  and  C_15
REMARK    6  A    between atoms: C_18  and  C_20
REMARK                            x       y       z     vdW  Elec       q    Type
REMARK                         _______ _______ _______ _____ _____    ______ ____
ROOT
ATOM     10  N   UNL     1      11.790   5.170   3.129  0.00  0.00    -0.340 N 
ATOM     11  N   UNL     1      13.069   6.763   2.259  0.00  0.00    -0.238 NA
ATOM     15  C   UNL     1      12.567   5.563   2.074  0.00  0.00    +0.129 A 
ATOM     18  C   UNL     1      11.799   6.184   4.044  0.00  0.00    +0.066 A 
ATOM     19  C   UNL     1      12.595   7.156   3.484  0.00  0.00    +0.139 A 
ATOM     27  H   UNL     1      11.294   4.292   3.203  0.00  0.00    +0.167 HD
ENDROOT
BRANCH  15  12
ATOM      5  O   UNL     1      14.493   3.732  -0.593  0.00  0.00    -0.376 OA
ATOM      9  N   UNL     1      11.996   5.085  -0.358  0.00  0.00    -0.167 NA
ATOM     12  C   UNL     1      12.775   4.665   0.869  0.00  0.00    +0.171 C 
ATOM     13  C   UNL     1      12.319   4.200  -1.525  0.00  0.00    +0.138 C 
ATOM     14  C   UNL     1      14.269   4.613   0.510  0.00  0.00    +0.188 C 
ATOM     16  C   UNL     1      13.819   4.202  -1.759  0.00  0.00    +0.177 C 
BRANCH   9   1
ATOM      1  S   UNL     1      10.306   5.351  -0.146  0.00  0.00    +0.030 S 
ATOM      6  O   UNL     1      10.102   6.743   0.178  0.00  0.00    -0.158 OA
ATOM      7  O   UNL     1       9.778   4.285   0.670  0.00  0.00    -0.158 OA
ATOM     17  C   UNL     1       9.777   5.086  -1.817  0.00  0.00    +0.215 C 
ENDBRANCH   9   1
ENDBRANCH  15  12
BRANCH  18  20
ATOM     20  C   UNL     1      11.085   6.130   5.293  0.00  0.00    +0.000 A 
ATOM     21  C   UNL     1      11.725   6.496   6.477  0.00  0.00    +0.013 A 
ATOM     22  C   UNL     1       9.755   5.714   5.319  0.00  0.00    +0.013 A 
ATOM     23  C   UNL     1      11.034   6.445   7.688  0.00  0.00    +0.046 A 
ATOM     24  C   UNL     1       9.063   5.663   6.529  0.00  0.00    +0.046 A 
ATOM     25  C   UNL     1       9.703   6.028   7.713  0.00  0.00    +0.130 A 
BRANCH  25   8
ATOM      8  O   UNL     1       9.027   5.982   8.894  0.00  0.00    -0.406 OA
BRANCH   8  26
ATOM      2  F   UNL     1      10.311   4.957  10.485  0.00  0.00    -0.133 F 
ATOM      3  F   UNL     1       9.344   3.747   8.943  0.00  0.00    -0.133 F 
ATOM      4  F   UNL     1       8.124   4.648  10.517  0.00  0.00    -0.133 F 
ATOM     26  C   UNL     1       9.200   4.840   9.726  0.00  0.00    +0.575 C 
ENDBRANCH   8  26
ENDBRANCH  25   8
ENDBRANCH  18  20
TORSDOF 5
ENDMDL
MODEL 3
REMARK VINA RESULT:      -6.8      2.059      3.153
REMARK  Name = 71694325
REMARK  6 active torsions:
REMARK  status: ('A' for Active; 'I' for Inactive)
REMARK    1  A    between atoms: S_1  and  N_9
REMARK    2  A    between atoms: S_1  and  C_17
REMARK    3  A    between atoms: O_8  and  C_25
REMARK    4  A    between atoms: O_8  and  C_26
REMARK    5  A    between atoms: C_12  and  C_15
REMARK    6  A    between atoms: C_18  and  C_20
REMARK                            x       y       z     vdW  Elec       q    Type
REMARK                         _______ _______ _______ _____ _____    ______ ____
ROOT
ATOM     10  N   UNL     1      14.860   8.950  21.121  0.00  0.00    -0.340 N 
ATOM     11  N   UNL     1      14.014   9.503  19.143  0.00  0.00    -0.238 NA
ATOM     15  C   UNL     1      13.828   9.540  20.443  0.00  0.00    +0.129 A 
ATOM     18  C   UNL     1      15.760   8.510  20.192  0.00  0.00    +0.066 A 
ATOM     19  C   UNL     1      15.216   8.864  18.979  0.00  0.00    +0.139 A 
ATOM     27  H   UNL     1      14.938   8.871  22.125  0.00  0.00    +0.167 HD
ENDROOT
BRANCH  15  12
ATOM      5  O   UNL     1      12.028  11.857  22.802  0.00  0.00    -0.376 OA
ATOM      9  N   UNL     1      11.826   9.142  21.960  0.00  0.00    -0.167 NA
ATOM     12  C   UNL     1      12.645  10.143  21.176  0.00  0.00    +0.171 C 
ATOM     13  C   UNL     1      10.729   9.826  22.721  0.00  0.00    +0.138 C 
ATOM     14  C   UNL     1      13.132  11.240  22.137  0.00  0.00    +0.188 C 
ATOM     16  C   UNL     1      11.327  10.907  23.604  0.00  0.00    +0.177 C 
BRANCH   9   1
ATOM      1  S   UNL     1      11.297   7.740  21.107  0.00  0.00    +0.030 S 
ATOM      6  O   UNL     1      12.362   6.766  21.129  0.00  0.00    -0.158 OA
ATOM      7  O   UNL     1      10.668   8.167  19.881  0.00  0.00    -0.158 OA
ATOM     17  C   UNL     1      10.030   7.204  22.224  0.00  0.00    +0.215 C 
ENDBRANCH   9   1
ENDBRANCH  15  12
BRANCH  18  20
ATOM     20  C   UNL     1      16.984   7.834  20.534  0.00  0.00    +0.000 A 
ATOM     21  C   UNL     1      17.335   6.654  19.879  0.00  0.00    +0.013 A 
ATOM     22  C   UNL     1      17.819   8.360  21.519  0.00  0.00    +0.013 A 
ATOM     23  C   UNL     1      18.521   5.999  20.209  0.00  0.00    +0.046 A 
ATOM     24  C   UNL     1      19.006   7.705  21.850  0.00  0.00    +0.046 A 
ATOM     25  C   UNL     1      19.357   6.525  21.195  0.00  0.00    +0.130 A 
BRANCH  25   8
ATOM      8  O   UNL     1      20.516   5.888  21.515  0.00  0.00    -0.406 OA
BRANCH   8  26
ATOM      2  F   UNL     1      22.773   6.248  21.450  0.00  0.00    -0.133 F 
ATOM      3  F   UNL     1      21.482   7.265  20.009  0.00  0.00    -0.133 F 
ATOM      4  F   UNL     1      21.825   5.116  19.806  0.00  0.00    -0.133 F 
ATOM     26  C   UNL     1      21.659   6.115  20.699  0.00  0.00    +0.575 C 
ENDBRANCH   8  26
ENDBRANCH  25   8
ENDBRANCH  18  20
TORSDOF 5
ENDMDL
MODEL 4
REMARK VINA RESULT:      -6.6      2.124      2.563
REMARK  Name = 71694325
REMARK  6 active torsions:
REMARK  status: ('A' for Active; 'I' for Inactive)
REMARK    1  A    between atoms: S_1  and  N_9
REMARK    2  A    between atoms: S_1  and  C_17
REMARK    3  A    between atoms: O_8  and  C_25
REMARK    4  A    between atoms: O_8  and  C_26
REMARK    5  A    between atoms: C_12  and  C_15
REMARK    6  A    between atoms: C_18  and  C_20
REMARK                            x       y       z     vdW  Elec       q    Type
REMARK                         _______ _______ _______ _____ _____    ______ ____
ROOT
ATOM     10  N   UNL     1      15.545   8.303  20.913  0.00  0.00    -0.340 N 
ATOM     11  N   UNL     1      15.449  10.372  21.714  0.00  0.00    -0.238 NA
ATOM     15  C   UNL     1      14.747   9.360  21.255  0.00  0.00    +0.129 A 
ATOM     18  C   UNL     1      16.836   8.664  21.171  0.00  0.00    +0.066 A 
ATOM     19  C   UNL     1      16.752   9.945  21.665  0.00  0.00    +0.139 A 
ATOM     27  H   UNL     1      15.225   7.415  20.549  0.00  0.00    +0.167 HD
ENDROOT
BRANCH  15  12
ATOM      5  O   UNL     1      11.216   8.340  22.069  0.00  0.00    -0.376 OA
ATOM      9  N   UNL     1      12.781   8.817  19.736  0.00  0.00    -0.167 NA
ATOM     12  C   UNL     1      13.240   9.296  21.095  0.00  0.00    +0.171 C 
ATOM     13  C   UNL     1      11.287   8.702  19.686  0.00  0.00    +0.138 C 
ATOM     14  C   UNL     1      12.641   8.375  22.170  0.00  0.00    +0.188 C 
ATOM     16  C   UNL     1      10.813   7.801  20.812  0.00  0.00    +0.177 C 
BRANCH   9   1
ATOM      1  S   UNL     1      13.454   9.619  18.366  0.00  0.00    +0.030 S 
ATOM      6  O   UNL     1      14.689   8.961  18.015  0.00  0.00    -0.158 OA
ATOM      7  O   UNL     1      13.376  11.042  18.591  0.00  0.00    -0.158 OA
ATOM     17  C   UNL     1      12.228   9.179  17.164  0.00  0.00    +0.215 C 
ENDBRANCH   9   1
ENDBRANCH  15  12
BRANCH  18  20
ATOM     20  C   UNL     1      17.963   7.800  20.935  0.00  0.00    +0.000 A 
ATOM     21  C   UNL     1      19.242   8.201  21.321  0.00  0.00    +0.013 A 
ATOM     22  C   UNL     1      17.776   6.562  20.321  0.00  0.00    +0.013 A 
ATOM     23  C   UNL     1      20.334   7.364  21.094  0.00  0.00    +0.046 A 
ATOM     24  C   UNL     1      18.868   5.724  20.093  0.00  0.00    +0.046 A 
ATOM     25  C   UNL     1      20.146   6.125  20.480  0.00  0.00    +0.130 A 
BRANCH  25   8
ATOM      8  O   UNL     1      21.211   5.306  20.261  0.00  0.00    -0.406 OA
BRANCH   8  26
ATOM      2  F   UNL     1      21.131   4.639  22.447  0.00  0.00    -0.133 F 
ATOM      3  F   UNL     1      22.785   3.974  21.181  0.00  0.00    -0.133 F 
ATOM      4  F   UNL     1      20.790   3.140  20.860  0.00  0.00    -0.133 F 
ATOM     26  C   UNL     1      21.463   4.262  21.193  0.00  0.00    +0.575 C 
ENDBRANCH   8  26
ENDBRANCH  25   8
ENDBRANCH  18  20
TORSDOF 5
ENDMDL
MODEL 5
REMARK VINA RESULT:      -6.4      5.102      9.389
REMARK  Name = 71694325
REMARK  6 active torsions:
REMARK  status: ('A' for Active; 'I' for Inactive)
REMARK    1  A    between atoms: S_1  and  N_9
REMARK    2  A    between atoms: S_1  and  C_17
REMARK    3  A    between atoms: O_8  and  C_25
REMARK    4  A    between atoms: O_8  and  C_26
REMARK    5  A    between atoms: C_12  and  C_15
REMARK    6  A    between atoms: C_18  and  C_20
REMARK                            x       y       z     vdW  Elec       q    Type
REMARK                         _______ _______ _______ _____ _____    ______ ____
ROOT
ATOM     10  N   UNL     1      20.890   6.372  20.995  0.00  0.00    -0.340 N 
ATOM     11  N   UNL     1      21.373   6.698  23.138  0.00  0.00    -0.238 NA
ATOM     15  C   UNL     1      21.854   6.352  21.965  0.00  0.00    +0.129 A 
ATOM     18  C   UNL     1      19.720   6.755  21.588  0.00  0.00    +0.066 A 
ATOM     19  C   UNL     1      20.044   6.951  22.911  0.00  0.00    +0.139 A 
ATOM     27  H   UNL     1      21.030   6.154  20.018  0.00  0.00    +0.167 HD
ENDROOT
BRANCH  15  12
ATOM      5  O   UNL     1      25.326   6.766  20.570  0.00  0.00    -0.376 OA
ATOM      9  N   UNL     1      23.423   4.668  20.884  0.00  0.00    -0.167 NA
ATOM     12  C   UNL     1      23.286   5.966  21.648  0.00  0.00    +0.171 C 
ATOM     13  C   UNL     1      24.857   4.400  20.537  0.00  0.00    +0.138 C 
ATOM     14  C   UNL     1      23.960   7.087  20.838  0.00  0.00    +0.188 C 
ATOM     16  C   UNL     1      25.420   5.586  19.774  0.00  0.00    +0.177 C 
BRANCH   9   1
ATOM      1  S   UNL     1      22.610   3.296  21.540  0.00  0.00    +0.030 S 
ATOM      6  O   UNL     1      21.301   3.214  20.938  0.00  0.00    -0.158 OA
ATOM      7  O   UNL     1      22.801   3.298  22.970  0.00  0.00    -0.158 OA
ATOM     17  C   UNL     1      23.623   2.020  20.845  0.00  0.00    +0.215 C 
ENDBRANCH   9   1
ENDBRANCH  15  12
BRANCH  18  20
ATOM     20  C   UNL     1      18.478   6.890  20.874  0.00  0.00    +0.000 A 
ATOM     21  C   UNL     1      17.644   7.979  21.128  0.00  0.00    +0.013 A 
ATOM     22  C   UNL     1      18.108   5.934  19.929  0.00  0.00    +0.013 A 
ATOM     23  C   UNL     1      16.440   8.112  20.436  0.00  0.00    +0.046 A 
ATOM     24  C   UNL     1      16.904   6.065  19.237  0.00  0.00    +0.046 A 
ATOM     25  C   UNL     1      16.070   7.154  19.490  0.00  0.00    +0.130 A 
BRANCH  25   8
ATOM      8  O   UNL     1      14.897   7.285  18.813  0.00  0.00    -0.406 OA
BRANCH   8  26
ATOM      2  F   UNL     1      12.704   6.638  18.771  0.00  0.00    -0.133 F 
ATOM      3  F   UNL     1      13.282   8.397  19.932  0.00  0.00    -0.133 F 
ATOM      4  F   UNL     1      13.848   6.411  20.647  0.00  0.00    -0.133 F 
ATOM     26  C   UNL     1      13.681   7.165  19.541  0.00  0.00    +0.575 C 
ENDBRANCH   8  26
ENDBRANCH  25   8
ENDBRANCH  18  20
TORSDOF 5
ENDMDL
MODEL 6
REMARK VINA RESULT:      -6.3      5.039      9.102
REMARK  Name = 71694325
REMARK  6 active torsions:
REMARK  status: ('A' for Active; 'I' for Inactive)
REMARK    1  A    between atoms: S_1  and  N_9
REMARK    2  A    between atoms: S_1  and  C_17
REMARK    3  A    between atoms: O_8  and  C_25
REMARK    4  A    between atoms: O_8  and  C_26
REMARK    5  A    between atoms: C_12  and  C_15
REMARK    6  A    between atoms: C_18  and  C_20
REMARK                            x       y       z     vdW  Elec       q    Type
REMARK                         _______ _______ _______ _____ _____    ______ ____
ROOT
ATOM     10  N   UNL     1      19.849   5.940  20.358  0.00  0.00    -0.340 N 
ATOM     11  N   UNL     1      20.558   5.945  22.462  0.00  0.00    -0.238 NA
ATOM     15  C   UNL     1      20.852   5.609  21.226  0.00  0.00    +0.129 A 
ATOM     18  C   UNL     1      18.852   6.524  21.088  0.00  0.00    +0.066 A 
ATOM     19  C   UNL     1      19.314   6.516  22.383  0.00  0.00    +0.139 A 
ATOM     27  H   UNL     1      19.858   5.788  19.358  0.00  0.00    +0.167 HD
ENDROOT
BRANCH  15  12
ATOM      5  O   UNL     1      23.349   2.826  20.787  0.00  0.00    -0.376 OA
ATOM      9  N   UNL     1      23.394   5.652  21.147  0.00  0.00    -0.167 NA
ATOM     12  C   UNL     1      22.123   4.937  20.744  0.00  0.00    +0.171 C 
ATOM     13  C   UNL     1      24.604   4.883  20.706  0.00  0.00    +0.138 C 
ATOM     14  C   UNL     1      22.183   3.494  21.272  0.00  0.00    +0.188 C 
ATOM     16  C   UNL     1      24.532   3.471  21.257  0.00  0.00    +0.177 C 
BRANCH   9   1
ATOM      1  S   UNL     1      23.481   7.335  20.784  0.00  0.00    +0.030 S 
ATOM      6  O   UNL     1      23.545   8.065  22.028  0.00  0.00    -0.158 OA
ATOM      7  O   UNL     1      22.501   7.630  19.767  0.00  0.00    -0.158 OA
ATOM     17  C   UNL     1      25.087   7.370  20.036  0.00  0.00    +0.215 C 
ENDBRANCH   9   1
ENDBRANCH  15  12
BRANCH  18  20
ATOM     20  C   UNL     1      17.626   7.007  20.509  0.00  0.00    +0.000 A 
ATOM     21  C   UNL     1      17.115   8.247  20.893  0.00  0.00    +0.013 A 
ATOM     22  C   UNL     1      16.949   6.236  19.565  0.00  0.00    +0.013 A 
ATOM     23  C   UNL     1      15.928   8.716  20.332  0.00  0.00    +0.046 A 
ATOM     24  C   UNL     1      15.761   6.705  19.004  0.00  0.00    +0.046 A 
ATOM     25  C   UNL     1      15.250   7.945  19.388  0.00  0.00    +0.130 A 
BRANCH  25   8
ATOM      8  O   UNL     1      14.093   8.404  18.838  0.00  0.00    -0.406 OA
BRANCH   8  26
ATOM      2  F   UNL     1      12.461   6.856  18.422  0.00  0.00    -0.133 F 
ATOM      3  F   UNL     1      11.914   8.787  19.286  0.00  0.00    -0.133 F 
ATOM      4  F   UNL     1      12.975   7.327  20.518  0.00  0.00    -0.133 F 
ATOM     26  C   UNL     1      12.866   7.827  19.269  0.00  0.00    +0.575 C 
ENDBRANCH   8  26
ENDBRANCH  25   8
ENDBRANCH  18  20
TORSDOF 5
ENDMDL
MODEL 7
REMARK VINA RESULT:      -6.2     29.951     32.612
REMARK  Name = 71694325
REMARK  6 active torsions:
REMARK  status: ('A' for Active; 'I' for Inactive)
REMARK    1  A    between atoms: S_1  and  N_9
REMARK    2  A    between atoms: S_1  and  C_17
REMARK    3  A    between atoms: O_8  and  C_25
REMARK    4  A    between atoms: O_8  and  C_26
REMARK    5  A    between atoms: C_12  and  C_15
REMARK    6  A    between atoms: C_18  and  C_20
REMARK                            x       y       z     vdW  Elec       q    Type
REMARK                         _______ _______ _______ _____ _____    ______ ____
ROOT
ATOM     10  N   UNL     1     -13.163   6.851  33.136  0.00  0.00    -0.340 N 
ATOM     11  N   UNL     1     -14.735   8.418  33.104  0.00  0.00    -0.238 NA
ATOM     15  C   UNL     1     -13.447   8.186  33.221  0.00  0.00    +0.129 A 
ATOM     18  C   UNL     1     -14.345   6.191  32.954  0.00  0.00    +0.066 A 
ATOM     19  C   UNL     1     -15.301   7.180  32.937  0.00  0.00    +0.139 A 
ATOM     27  H   UNL     1     -12.241   6.438  33.187  0.00  0.00    +0.167 HD
ENDROOT
BRANCH  15  12
ATOM      5  O   UNL     1     -10.422  10.248  32.343  0.00  0.00    -0.376 OA
ATOM      9  N   UNL     1     -11.503   8.981  34.655  0.00  0.00    -0.167 NA
ATOM     12  C   UNL     1     -12.352   9.215  33.425  0.00  0.00    +0.171 C 
ATOM     13  C   UNL     1     -10.395   9.988  34.740  0.00  0.00    +0.138 C 
ATOM     14  C   UNL     1     -11.433   9.249  32.193  0.00  0.00    +0.188 C 
ATOM     16  C   UNL     1      -9.583   9.952  33.458  0.00  0.00    +0.177 C 
BRANCH   9   1
ATOM      1  S   UNL     1     -12.345   8.760  36.144  0.00  0.00    +0.030 S 
ATOM      6  O   UNL     1     -12.660   7.359  36.284  0.00  0.00    -0.158 OA
ATOM      7  O   UNL     1     -13.349   9.791  36.253  0.00  0.00    -0.158 OA
ATOM     17  C   UNL     1     -11.027   9.149  37.263  0.00  0.00    +0.215 C 
ENDBRANCH   9   1
ENDBRANCH  15  12
BRANCH  18  20
ATOM     20  C   UNL     1     -14.442   4.761  32.819  0.00  0.00    +0.000 A 
ATOM     21  C   UNL     1     -15.570   4.091  33.294  0.00  0.00    +0.013 A 
ATOM     22  C   UNL     1     -13.410   4.046  32.214  0.00  0.00    +0.013 A 
ATOM     23  C   UNL     1     -15.665   2.706  33.163  0.00  0.00    +0.046 A 
ATOM     24  C   UNL     1     -13.504   2.661  32.082  0.00  0.00    +0.046 A 
ATOM     25  C   UNL     1     -14.631   1.991  32.557  0.00  0.00    +0.130 A 
BRANCH  25   8
ATOM      8  O   UNL     1     -14.725   0.640  32.427  0.00  0.00    -0.406 OA
BRANCH   8  26
ATOM      2  F   UNL     1     -15.636  -1.079  31.223  0.00  0.00    -0.133 F 
ATOM      3  F   UNL     1     -13.811  -0.115  30.505  0.00  0.00    -0.133 F 
ATOM      4  F   UNL     1     -15.707   0.965  30.387  0.00  0.00    -0.133 F 
ATOM     26  C   UNL     1     -14.988   0.103  31.135  0.00  0.00    +0.575 C 
ENDBRANCH   8  26
ENDBRANCH  25   8
ENDBRANCH  18  20
TORSDOF 5
ENDMDL
MODEL 8
REMARK VINA RESULT:      -6.2     17.259     19.290
REMARK  Name = 71694325
REMARK  6 active torsions:
REMARK  status: ('A' for Active; 'I' for Inactive)
REMARK    1  A    between atoms: S_1  and  N_9
REMARK    2  A    between atoms: S_1  and  C_17
REMARK    3  A    between atoms: O_8  and  C_25
REMARK    4  A    between atoms: O_8  and  C_26
REMARK    5  A    between atoms: C_12  and  C_15
REMARK    6  A    between atoms: C_18  and  C_20
REMARK                            x       y       z     vdW  Elec       q    Type
REMARK                         _______ _______ _______ _____ _____    ______ ____
ROOT
ATOM     10  N   UNL     1      10.816   5.768   2.926  0.00  0.00    -0.340 N 
ATOM     11  N   UNL     1       9.789   7.139   1.512  0.00  0.00    -0.238 NA
ATOM     15  C   UNL     1      10.668   6.168   1.626  0.00  0.00    +0.129 A 
ATOM     18  C   UNL     1       9.978   6.532   3.688  0.00  0.00    +0.066 A 
ATOM     19  C   UNL     1       9.355   7.370   2.793  0.00  0.00    +0.139 A 
ATOM     27  H   UNL     1      11.427   5.031   3.251  0.00  0.00    +0.167 HD
ENDROOT
BRANCH  15  12
ATOM      5  O   UNL     1      11.567   3.531  -0.904  0.00  0.00    -0.376 OA
ATOM      9  N   UNL     1      12.933   5.360   0.800  0.00  0.00    -0.167 NA
ATOM     12  C   UNL     1      11.458   5.521   0.506  0.00  0.00    +0.171 C 
ATOM     13  C   UNL     1      13.626   4.639  -0.317  0.00  0.00    +0.138 C 
ATOM     14  C   UNL     1      10.868   4.138   0.183  0.00  0.00    +0.188 C 
ATOM     16  C   UNL     1      12.935   3.310  -0.565  0.00  0.00    +0.177 C 
BRANCH   9   1
ATOM      1  S   UNL     1      13.772   6.770   1.332  0.00  0.00    +0.030 S 
ATOM      6  O   UNL     1      13.744   6.798   2.774  0.00  0.00    -0.158 OA
ATOM      7  O   UNL     1      13.334   7.887   0.530  0.00  0.00    -0.158 OA
ATOM     17  C   UNL     1      15.408   6.323   0.816  0.00  0.00    +0.215 C 
ENDBRANCH   9   1
ENDBRANCH  15  12
BRANCH  18  20
ATOM     20  C   UNL     1       9.859   6.395   5.116  0.00  0.00    +0.000 A 
ATOM     21  C   UNL     1      10.994   6.147   5.889  0.00  0.00    +0.013 A 
ATOM     22  C   UNL     1       8.611   6.510   5.726  0.00  0.00    +0.013 A 
ATOM     23  C   UNL     1      10.880   6.015   7.272  0.00  0.00    +0.046 A 
ATOM     24  C   UNL     1       8.496   6.378   7.110  0.00  0.00    +0.046 A 
ATOM     25  C   UNL     1       9.630   6.130   7.883  0.00  0.00    +0.130 A 
BRANCH  25   8
ATOM      8  O   UNL     1       9.519   6.004   9.233  0.00  0.00    -0.406 OA
BRANCH   8  26
ATOM      2  F   UNL     1       8.028   4.712  10.390  0.00  0.00    -0.133 F 
ATOM      3  F   UNL     1      10.171   4.404  10.686  0.00  0.00    -0.133 F 
ATOM      4  F   UNL     1       9.250   3.774   8.807  0.00  0.00    -0.133 F 
ATOM     26  C   UNL     1       9.227   4.719   9.770  0.00  0.00    +0.575 C 
ENDBRANCH   8  26
ENDBRANCH  25   8
ENDBRANCH  18  20
TORSDOF 5
ENDMDL
MODEL 9
REMARK VINA RESULT:      -6.2     27.609     29.275
REMARK  Name = 71694325
REMARK  6 active torsions:
REMARK  status: ('A' for Active; 'I' for Inactive)
REMARK    1  A    between atoms: S_1  and  N_9
REMARK    2  A    between atoms: S_1  and  C_17
REMARK    3  A    between atoms: O_8  and  C_25
REMARK    4  A    between atoms: O_8  and  C_26
REMARK    5  A    between atoms: C_12  and  C_15
REMARK    6  A    between atoms: C_18  and  C_20
REMARK                            x       y       z     vdW  Elec       q    Type
REMARK                         _______ _______ _______ _____ _____    ______ ____
ROOT
ATOM     10  N   UNL     1      -4.805 -11.034  12.162  0.00  0.00    -0.340 N 
ATOM     11  N   UNL     1      -2.910 -10.737  11.042  0.00  0.00    -0.238 NA
ATOM     15  C   UNL     1      -4.190 -11.017  10.940  0.00  0.00    +0.129 A 
ATOM     18  C   UNL     1      -3.856 -10.747  13.102  0.00  0.00    +0.066 A 
ATOM     19  C   UNL     1      -2.695 -10.567  12.386  0.00  0.00    +0.139 A 
ATOM     27  H   UNL     1      -5.786 -11.215  12.327  0.00  0.00    +0.167 HD
ENDROOT
BRANCH  15  12
ATOM      5  O   UNL     1      -4.856 -12.515   7.551  0.00  0.00    -0.376 OA
ATOM      9  N   UNL     1      -5.363 -10.056   8.898  0.00  0.00    -0.167 NA
ATOM     12  C   UNL     1      -4.961 -11.296   9.664  0.00  0.00    +0.171 C 
ATOM     13  C   UNL     1      -6.045 -10.418   7.613  0.00  0.00    +0.138 C 
ATOM     14  C   UNL     1      -4.127 -12.198   8.739  0.00  0.00    +0.188 C 
ATOM     16  C   UNL     1      -5.143 -11.333   6.805  0.00  0.00    +0.177 C 
BRANCH   9   1
ATOM      1  S   UNL     1      -6.186  -8.830   9.790  0.00  0.00    +0.030 S 
ATOM      6  O   UNL     1      -5.219  -7.843  10.203  0.00  0.00    -0.158 OA
ATOM      7  O   UNL     1      -7.079  -9.473  10.723  0.00  0.00    -0.158 OA
ATOM     17  C   UNL     1      -7.156  -8.143   8.476  0.00  0.00    +0.215 C 
ENDBRANCH   9   1
ENDBRANCH  15  12
BRANCH  18  20
ATOM     20  C   UNL     1      -4.135 -10.675  14.512  0.00  0.00    +0.000 A 
ATOM     21  C   UNL     1      -3.144 -11.006  15.436  0.00  0.00    +0.013 A 
ATOM     22  C   UNL     1      -5.394 -10.273  14.955  0.00  0.00    +0.013 A 
ATOM     23  C   UNL     1      -3.412 -10.935  16.803  0.00  0.00    +0.046 A 
ATOM     24  C   UNL     1      -5.664 -10.202  16.321  0.00  0.00    +0.046 A 
ATOM     25  C   UNL     1      -4.673 -10.533  17.245  0.00  0.00    +0.130 A 
BRANCH  25   8
ATOM      8  O   UNL     1      -4.935 -10.461  18.579  0.00  0.00    -0.406 OA
BRANCH   8  26
ATOM      2  F   UNL     1      -5.588 -12.653  18.582  0.00  0.00    -0.133 F 
ATOM      3  F   UNL     1      -5.787 -11.471  20.410  0.00  0.00    -0.133 F 
ATOM      4  F   UNL     1      -3.797 -12.071  19.737  0.00  0.00    -0.133 F 
ATOM     26  C   UNL     1      -5.016 -11.675  19.317  0.00  0.00    +0.575 C 
ENDBRANCH   8  26
ENDBRANCH  25   8
ENDBRANCH  18  20
TORSDOF 5
ENDMDL
MODEL 10
REMARK VINA RESULT:      -6.2     26.886     29.660
REMARK  Name = 71694325
REMARK  6 active torsions:
REMARK  status: ('A' for Active; 'I' for Inactive)
REMARK    1  A    between atoms: S_1  and  N_9
REMARK    2  A    between atoms: S_1  and  C_17
REMARK    3  A    between atoms: O_8  and  C_25
REMARK    4  A    between atoms: O_8  and  C_26
REMARK    5  A    between atoms: C_12  and  C_15
REMARK    6  A    between atoms: C_18  and  C_20
REMARK                            x       y       z     vdW  Elec       q    Type
REMARK                         _______ _______ _______ _____ _____    ______ ____
ROOT
ATOM     10  N   UNL     1      -8.394  -8.786  15.529  0.00  0.00    -0.340 N 
ATOM     11  N   UNL     1      -9.526  -8.568  17.426  0.00  0.00    -0.238 NA
ATOM     15  C   UNL     1      -9.539  -8.342  16.132  0.00  0.00    +0.129 A 
ATOM     18  C   UNL     1      -7.602  -9.328  16.501  0.00  0.00    +0.066 A 
ATOM     19  C   UNL     1      -8.323  -9.183  17.663  0.00  0.00    +0.139 A 
ATOM     27  H   UNL     1      -8.186  -8.729  14.541  0.00  0.00    +0.167 HD
ENDROOT
BRANCH  15  12
ATOM      5  O   UNL     1     -11.895  -5.596  15.093  0.00  0.00    -0.376 OA
ATOM      9  N   UNL     1     -11.957  -8.434  15.349  0.00  0.00    -0.167 NA
ATOM     12  C   UNL     1     -10.645  -7.680  15.334  0.00  0.00    +0.171 C 
ATOM     13  C   UNL     1     -13.018  -7.675  14.611  0.00  0.00    +0.138 C 
ATOM     14  C   UNL     1     -10.890  -6.257  15.864  0.00  0.00    +0.188 C 
ATOM     16  C   UNL     1     -13.142  -6.280  15.198  0.00  0.00    +0.177 C 
BRANCH   9   1
ATOM      1  S   UNL     1     -11.891 -10.105  14.931  0.00  0.00    +0.030 S 
ATOM      6  O   UNL     1     -11.965 -10.881  16.145  0.00  0.00    -0.158 OA
ATOM      7  O   UNL     1     -10.838 -10.288  13.962  0.00  0.00    -0.158 OA
ATOM     17  C   UNL     1     -13.447 -10.236  14.091  0.00  0.00    +0.215 C 
ENDBRANCH   9   1
ENDBRANCH  15  12
BRANCH  18  20
ATOM     20  C   UNL     1      -6.308  -9.902  16.241  0.00  0.00    +0.000 A 
ATOM     21  C   UNL     1      -5.846 -10.012  14.930  0.00  0.00    +0.013 A 
ATOM     22  C   UNL     1      -5.517 -10.347  17.299  0.00  0.00    +0.013 A 
ATOM     23  C   UNL     1      -4.591 -10.567  14.677  0.00  0.00    +0.046 A 
ATOM     24  C   UNL     1      -4.263 -10.903  17.047  0.00  0.00    +0.046 A 
ATOM     25  C   UNL     1      -3.800 -11.013  15.736  0.00  0.00    +0.130 A 
BRANCH  25   8
ATOM      8  O   UNL     1      -2.575 -11.552  15.490  0.00  0.00    -0.406 OA
BRANCH   8  26
ATOM      2  F   UNL     1      -1.603  -9.535  15.957  0.00  0.00    -0.133 F 
ATOM      3  F   UNL     1      -1.500 -10.331  13.924  0.00  0.00    -0.133 F 
ATOM      4  F   UNL     1      -0.306 -11.264  15.499  0.00  0.00    -0.133 F 
ATOM     26  C   UNL     1      -1.488 -10.669  15.233  0.00  0.00    +0.575 C 
ENDBRANCH   8  26
ENDBRANCH  25   8
ENDBRANCH  18  20
TORSDOF 5
ENDMDL
