REMARK  Name = 40777567
REMARK  9 active torsions:
REMARK  status: ('A' for Active; 'I' for Inactive)
REMARK    1  A    between atoms: N_2  and  C_8
REMARK    2  A    between atoms: N_2  and  C_14
REMARK    3  A    between atoms: N_3  and  C_16
REMARK    4  A    between atoms: C_6  and  C_9
REMARK    5  A    between atoms: C_12  and  C_15
REMARK    6  A    between atoms: C_13  and  C_17
REMARK    7  A    between atoms: C_14  and  C_18
REMARK    8  A    between atoms: C_16  and  C_19
REMARK    9  A    between atoms: C_19  and  C_24
REMARK                            x       y       z     vdW  Elec       q    Type
REMARK                         _______ _______ _______ _____ _____    ______ ____
ROOT
ATOM      6  C   UNL     1       0.887  -0.784  -0.196  0.00  0.00    +0.047 C 
ATOM      7  C   UNL     1       0.346   0.586   0.254  0.00  0.00    +0.035 C 
ATOM      8  C   UNL     1      -0.844   0.901  -0.667  0.00  0.00    +0.078 C 
ATOM     10  C   UNL     1       0.383  -0.877  -1.607  0.00  0.00    -0.021 C 
ATOM     11  C   UNL     1      -0.563   0.035  -1.856  0.00  0.00    -0.012 C 
ENDROOT
BRANCH   6   9
ATOM      3  N   UNL     1       4.547  -0.638  -0.211  0.00  0.00    -0.267 N 
ATOM      4  N   UNL     1       4.427  -1.681   0.627  0.00  0.00    -0.176 NA
ATOM      9  C   UNL     1       2.386  -0.911  -0.051  0.00  0.00    +0.003 A 
ATOM     12  C   UNL     1       3.354  -0.140  -0.646  0.00  0.00    +0.040 A 
ATOM     13  C   UNL     1       3.105  -1.843   0.721  0.00  0.00    +0.064 A 
ATOM     15  C   UNL     1       3.255   1.005  -1.572  0.00  0.00    +0.065 C 
ATOM     17  C   UNL     1       2.565  -2.918   1.573  0.00  0.00    +0.068 C 
BRANCH   3  16
ATOM     16  C   UNL     1       5.866  -0.161  -0.559  0.00  0.00    +0.158 C 
BRANCH  16  19
ATOM     19  C   UNL     1       6.528   0.660   0.551  0.00  0.00    +0.141 C 
BRANCH  19  24
ATOM      5  N   UNL     1       5.115   2.783   1.198  0.00  0.00    -0.197 NA
ATOM     24  C   UNL     1       5.738   1.846   0.912  0.00  0.00    +0.064 C 
ENDBRANCH  19  24
ENDBRANCH  16  19
ENDBRANCH   3  16
ENDBRANCH   6   9
BRANCH   8   2
ATOM      2  N   UNL     1      -2.120   0.560  -0.049  0.00  0.00    -0.306 NA
ATOM     26  H   UNL     1      -2.136   0.913   0.907  0.00  0.00    +0.123 HD
BRANCH   2  14
ATOM     14  C   UNL     1      -3.232   1.145  -0.788  0.00  0.00    +0.117 C 
BRANCH  14  18
ATOM      1 CL   UNL     1      -6.997  -2.375  -0.019  0.00  0.00    -0.084 Cl
ATOM     18  C   UNL     1      -4.561   0.794  -0.173  0.00  0.00    -0.032 A 
ATOM     20  C   UNL     1      -5.100  -0.479  -0.359  0.00  0.00    +0.025 A 
ATOM     21  C   UNL     1      -5.252   1.741   0.583  0.00  0.00    +0.005 A 
ATOM     22  C   UNL     1      -6.330  -0.805   0.212  0.00  0.00    +0.041 A 
ATOM     23  C   UNL     1      -6.482   1.415   1.153  0.00  0.00    +0.002 A 
ATOM     25  C   UNL     1      -7.021   0.142   0.968  0.00  0.00    +0.020 A 
ENDBRANCH  14  18
ENDBRANCH   2  14
ENDBRANCH   8   2
TORSDOF 7
