MODEL 1
REMARK VINA RESULT:      -7.3      0.000      0.000
REMARK  Name = 25313526
REMARK  11 active torsions:
REMARK  status: ('A' for Active; 'I' for Inactive)
REMARK    1  A    between atoms: O_4  and  C_27
REMARK    2  A    between atoms: O_4  and  C_33
REMARK    3  A    between atoms: O_5  and  C_31
REMARK    4  A    between atoms: O_5  and  C_34
REMARK    5  A    between atoms: N_7  and  C_20
REMARK    6  A    between atoms: C_9  and  C_15
REMARK    7  A    between atoms: C_10  and  C_14
REMARK    8  A    between atoms: C_14  and  C_16
REMARK    9  A    between atoms: C_15  and  C_17
REMARK   10  A    between atoms: C_19  and  C_21
REMARK   11  A    between atoms: C_20  and  C_22
REMARK                            x       y       z     vdW  Elec       q    Type
REMARK                         _______ _______ _______ _____ _____    ______ ____
ROOT
ATOM      6  N   UNL     1      11.636   9.096  22.962  0.00  0.00    -0.316 NA
ATOM      9  C   UNL     1      11.975   7.777  20.344  0.00  0.00    +0.004 C 
ATOM     10  C   UNL     1      13.141   8.471  21.088  0.00  0.00    +0.012 C 
ATOM     11  C   UNL     1      10.906   7.356  21.368  0.00  0.00    +0.019 C 
ATOM     12  C   UNL     1      12.638   9.589  22.016  0.00  0.00    +0.085 C 
ATOM     13  C   UNL     1      10.486   8.508  22.280  0.00  0.00    +0.081 C 
ATOM     35  H   UNL     1      11.322   9.865  23.553  0.00  0.00    +0.122 HD
ENDROOT
BRANCH  10  14
ATOM     14  C   UNL     1      14.222   9.000  20.145  0.00  0.00    +0.064 C 
BRANCH  14  16
ATOM      3  O   UNL     1      16.634   6.442  19.374  0.00  0.00    -0.354 OA
ATOM      8  N   UNL     1      15.434   7.106  19.154  0.00  0.00    -0.083 NA
ATOM     16  C   UNL     1      15.397   8.068  20.081  0.00  0.00    +0.085 A 
ATOM     18  C   UNL     1      16.535   8.058  20.906  0.00  0.00    +0.076 A 
ATOM     19  C   UNL     1      17.281   7.018  20.419  0.00  0.00    +0.167 A 
BRANCH  19  21
ATOM      1  F   UNL     1      22.180   4.753  21.766  0.00  0.00    -0.205 F 
ATOM     21  C   UNL     1      18.544   6.435  20.766  0.00  0.00    +0.020 A 
ATOM     24  C   UNL     1      19.109   5.456  19.947  0.00  0.00    +0.014 A 
ATOM     25  C   UNL     1      19.208   6.845  21.922  0.00  0.00    +0.014 A 
ATOM     29  C   UNL     1      20.337   4.888  20.285  0.00  0.00    +0.039 A 
ATOM     30  C   UNL     1      20.436   6.277  22.260  0.00  0.00    +0.039 A 
ATOM     32  C   UNL     1      21.000   5.299  21.441  0.00  0.00    +0.123 A 
ENDBRANCH  19  21
ENDBRANCH  14  16
ENDBRANCH  10  14
BRANCH   9  15
ATOM     15  C   UNL     1      11.355   8.624  19.227  0.00  0.00    +0.099 C 
BRANCH  15  17
ATOM      2  O   UNL     1      12.154   7.244  17.407  0.00  0.00    -0.276 OA
ATOM      7  N   UNL     1      12.399   9.552  17.282  0.00  0.00    -0.311 N 
ATOM     17  C   UNL     1      12.004   8.366  17.883  0.00  0.00    +0.214 C 
ATOM     36  H   UNL     1      12.188  10.433  17.742  0.00  0.00    +0.149 HD
BRANCH   7  20
ATOM     20  C   UNL     1      13.049   9.604  15.993  0.00  0.00    +0.139 C 
BRANCH  20  22
ATOM     22  C   UNL     1      14.251  10.503  16.005  0.00  0.00    -0.027 A 
ATOM     23  C   UNL     1      14.549  11.253  17.142  0.00  0.00    +0.054 A 
ATOM     26  C   UNL     1      15.070  10.589  14.878  0.00  0.00    +0.009 A 
ATOM     27  C   UNL     1      15.666  12.089  17.153  0.00  0.00    +0.162 A 
ATOM     28  C   UNL     1      16.186  11.425  14.890  0.00  0.00    +0.050 A 
ATOM     31  C   UNL     1      16.484  12.175  16.028  0.00  0.00    +0.162 A 
BRANCH  27   4
ATOM      4  O   UNL     1      15.947  12.816  18.270  0.00  0.00    -0.491 OA
ATOM     33  C   UNL     1      16.517  12.115  19.375  0.00  0.00    +0.277 C 
ENDBRANCH  27   4
BRANCH  31   5
ATOM      5  O   UNL     1      17.577  12.989  16.026  0.00  0.00    -0.491 OA
ATOM     34  C   UNL     1      17.901  13.634  14.796  0.00  0.00    +0.277 C 
ENDBRANCH  31   5
ENDBRANCH  20  22
ENDBRANCH   7  20
ENDBRANCH  15  17
ENDBRANCH   9  15
TORSDOF 9
ENDMDL
MODEL 2
REMARK VINA RESULT:      -7.3     28.493     32.760
REMARK  Name = 25313526
REMARK  11 active torsions:
REMARK  status: ('A' for Active; 'I' for Inactive)
REMARK    1  A    between atoms: O_4  and  C_27
REMARK    2  A    between atoms: O_4  and  C_33
REMARK    3  A    between atoms: O_5  and  C_31
REMARK    4  A    between atoms: O_5  and  C_34
REMARK    5  A    between atoms: N_7  and  C_20
REMARK    6  A    between atoms: C_9  and  C_15
REMARK    7  A    between atoms: C_10  and  C_14
REMARK    8  A    between atoms: C_14  and  C_16
REMARK    9  A    between atoms: C_15  and  C_17
REMARK   10  A    between atoms: C_19  and  C_21
REMARK   11  A    between atoms: C_20  and  C_22
REMARK                            x       y       z     vdW  Elec       q    Type
REMARK                         _______ _______ _______ _____ _____    ______ ____
ROOT
ATOM      6  N   UNL     1     -18.748   5.179  26.163  0.00  0.00    -0.316 NA
ATOM      9  C   UNL     1     -16.459   3.687  27.277  0.00  0.00    +0.004 C 
ATOM     10  C   UNL     1     -16.499   4.186  25.813  0.00  0.00    +0.012 C 
ATOM     11  C   UNL     1     -17.389   4.564  28.132  0.00  0.00    +0.019 C 
ATOM     12  C   UNL     1     -17.942   4.317  25.297  0.00  0.00    +0.085 C 
ATOM     13  C   UNL     1     -18.791   4.681  27.537  0.00  0.00    +0.081 C 
ATOM     35  H   UNL     1     -19.698   5.235  25.795  0.00  0.00    +0.122 HD
ENDROOT
BRANCH  10  14
ATOM     14  C   UNL     1     -15.665   3.325  24.864  0.00  0.00    +0.064 C 
BRANCH  14  16
ATOM      3  O   UNL     1     -15.380   4.739  21.565  0.00  0.00    -0.354 OA
ATOM      8  N   UNL     1     -15.981   3.900  22.495  0.00  0.00    -0.083 NA
ATOM     16  C   UNL     1     -15.290   4.083  23.624  0.00  0.00    +0.085 A 
ATOM     18  C   UNL     1     -14.250   5.016  23.467  0.00  0.00    +0.076 A 
ATOM     19  C   UNL     1     -14.351   5.398  22.156  0.00  0.00    +0.167 A 
BRANCH  19  21
ATOM      1  F   UNL     1     -11.556   8.922  18.882  0.00  0.00    -0.205 F 
ATOM     21  C   UNL     1     -13.630   6.308  21.312  0.00  0.00    +0.020 A 
ATOM     24  C   UNL     1     -14.325   7.205  20.500  0.00  0.00    +0.014 A 
ATOM     25  C   UNL     1     -12.236   6.294  21.303  0.00  0.00    +0.014 A 
ATOM     29  C   UNL     1     -13.624   8.088  19.679  0.00  0.00    +0.039 A 
ATOM     30  C   UNL     1     -11.535   7.177  20.483  0.00  0.00    +0.039 A 
ATOM     32  C   UNL     1     -12.229   8.074  19.671  0.00  0.00    +0.123 A 
ENDBRANCH  19  21
ENDBRANCH  14  16
ENDBRANCH  10  14
BRANCH   9  15
ATOM     15  C   UNL     1     -16.807   2.203  27.441  0.00  0.00    +0.099 C 
BRANCH  15  17
ATOM      2  O   UNL     1     -16.395   0.501  29.111  0.00  0.00    -0.276 OA
ATOM      7  N   UNL     1     -14.959   2.322  28.957  0.00  0.00    -0.311 N 
ATOM     17  C   UNL     1     -16.056   1.560  28.588  0.00  0.00    +0.214 C 
ATOM     36  H   UNL     1     -14.740   3.162  28.429  0.00  0.00    +0.149 HD
BRANCH   7  20
ATOM     20  C   UNL     1     -14.063   1.948  30.027  0.00  0.00    +0.139 C 
BRANCH  20  22
ATOM     22  C   UNL     1     -14.308   2.751  31.272  0.00  0.00    -0.027 A 
ATOM     23  C   UNL     1     -14.449   4.136  31.192  0.00  0.00    +0.054 A 
ATOM     26  C   UNL     1     -14.394   2.111  32.509  0.00  0.00    +0.009 A 
ATOM     27  C   UNL     1     -14.676   4.882  32.349  0.00  0.00    +0.162 A 
ATOM     28  C   UNL     1     -14.621   2.858  33.665  0.00  0.00    +0.050 A 
ATOM     31  C   UNL     1     -14.762   4.243  33.585  0.00  0.00    +0.162 A 
BRANCH  27   4
ATOM      4  O   UNL     1     -14.812   6.234  32.257  0.00  0.00    -0.491 OA
ATOM     33  C   UNL     1     -13.659   7.023  32.549  0.00  0.00    +0.277 C 
ENDBRANCH  27   4
BRANCH  31   5
ATOM      5  O   UNL     1     -14.982   4.961  34.722  0.00  0.00    -0.491 OA
ATOM     34  C   UNL     1     -14.229   4.593  35.876  0.00  0.00    +0.277 C 
ENDBRANCH  31   5
ENDBRANCH  20  22
ENDBRANCH   7  20
ENDBRANCH  15  17
ENDBRANCH   9  15
TORSDOF 9
ENDMDL
MODEL 3
REMARK VINA RESULT:      -7.1     26.923     31.804
REMARK  Name = 25313526
REMARK  11 active torsions:
REMARK  status: ('A' for Active; 'I' for Inactive)
REMARK    1  A    between atoms: O_4  and  C_27
REMARK    2  A    between atoms: O_4  and  C_33
REMARK    3  A    between atoms: O_5  and  C_31
REMARK    4  A    between atoms: O_5  and  C_34
REMARK    5  A    between atoms: N_7  and  C_20
REMARK    6  A    between atoms: C_9  and  C_15
REMARK    7  A    between atoms: C_10  and  C_14
REMARK    8  A    between atoms: C_14  and  C_16
REMARK    9  A    between atoms: C_15  and  C_17
REMARK   10  A    between atoms: C_19  and  C_21
REMARK   11  A    between atoms: C_20  and  C_22
REMARK                            x       y       z     vdW  Elec       q    Type
REMARK                         _______ _______ _______ _____ _____    ______ ____
ROOT
ATOM      6  N   UNL     1     -17.552   5.015  20.813  0.00  0.00    -0.316 NA
ATOM      9  C   UNL     1     -16.763   4.551  23.618  0.00  0.00    +0.004 C 
ATOM     10  C   UNL     1     -16.040   5.568  22.703  0.00  0.00    +0.012 C 
ATOM     11  C   UNL     1     -18.196   4.340  23.100  0.00  0.00    +0.019 C 
ATOM     12  C   UNL     1     -16.156   5.181  21.220  0.00  0.00    +0.085 C 
ATOM     13  C   UNL     1     -18.234   3.998  21.611  0.00  0.00    +0.081 C 
ATOM     35  H   UNL     1     -17.588   4.750  19.828  0.00  0.00    +0.122 HD
ENDROOT
BRANCH  10  14
ATOM     14  C   UNL     1     -14.577   5.787  23.090  0.00  0.00    +0.064 C 
BRANCH  14  16
ATOM      3  O   UNL     1     -13.495   8.772  21.393  0.00  0.00    -0.354 OA
ATOM      8  N   UNL     1     -14.271   8.105  22.332  0.00  0.00    -0.083 NA
ATOM     16  C   UNL     1     -13.928   6.819  22.214  0.00  0.00    +0.085 A 
ATOM     18  C   UNL     1     -12.950   6.617  21.225  0.00  0.00    +0.076 A 
ATOM     19  C   UNL     1     -12.713   7.875  20.740  0.00  0.00    +0.167 A 
BRANCH  19  21
ATOM      1  F   UNL     1      -9.365   9.992  16.834  0.00  0.00    -0.205 F 
ATOM     21  C   UNL     1     -11.850   8.422  19.732  0.00  0.00    +0.020 A 
ATOM     24  C   UNL     1     -11.544   7.673  18.596  0.00  0.00    +0.014 A 
ATOM     25  C   UNL     1     -11.317   9.701  19.889  0.00  0.00    +0.014 A 
ATOM     29  C   UNL     1     -10.704   8.203  17.617  0.00  0.00    +0.039 A 
ATOM     30  C   UNL     1     -10.477  10.231  18.911  0.00  0.00    +0.039 A 
ATOM     32  C   UNL     1     -10.171   9.483  17.775  0.00  0.00    +0.123 A 
ENDBRANCH  19  21
ENDBRANCH  14  16
ENDBRANCH  10  14
BRANCH   9  15
ATOM     15  C   UNL     1     -16.032   3.211  23.761  0.00  0.00    +0.099 C 
BRANCH  15  17
ATOM      2  O   UNL     1     -17.010   1.180  24.641  0.00  0.00    -0.276 OA
ATOM      7  N   UNL     1     -16.728   3.012  26.043  0.00  0.00    -0.311 N 
ATOM     17  C   UNL     1     -16.642   2.335  24.836  0.00  0.00    +0.214 C 
ATOM     36  H   UNL     1     -16.354   3.954  26.109  0.00  0.00    +0.149 HD
BRANCH   7  20
ATOM     20  C   UNL     1     -17.273   2.419  27.242  0.00  0.00    +0.139 C 
BRANCH  20  22
ATOM     22  C   UNL     1     -16.249   2.318  28.336  0.00  0.00    -0.027 A 
ATOM     23  C   UNL     1     -15.829   1.066  28.784  0.00  0.00    +0.054 A 
ATOM     26  C   UNL     1     -15.718   3.477  28.903  0.00  0.00    +0.009 A 
ATOM     27  C   UNL     1     -14.878   0.973  29.800  0.00  0.00    +0.162 A 
ATOM     28  C   UNL     1     -14.767   3.382  29.919  0.00  0.00    +0.050 A 
ATOM     31  C   UNL     1     -14.347   2.130  30.368  0.00  0.00    +0.162 A 
BRANCH  27   4
ATOM      4  O   UNL     1     -14.476  -0.256  30.230  0.00  0.00    -0.491 OA
ATOM     33  C   UNL     1     -13.487  -0.925  29.448  0.00  0.00    +0.277 C 
ENDBRANCH  27   4
BRANCH  31   5
ATOM      5  O   UNL     1     -13.419   2.052  31.362  0.00  0.00    -0.491 OA
ATOM     34  C   UNL     1     -13.876   2.279  32.694  0.00  0.00    +0.277 C 
ENDBRANCH  31   5
ENDBRANCH  20  22
ENDBRANCH   7  20
ENDBRANCH  15  17
ENDBRANCH   9  15
TORSDOF 9
ENDMDL
MODEL 4
REMARK VINA RESULT:      -7.0      3.805      7.470
REMARK  Name = 25313526
REMARK  11 active torsions:
REMARK  status: ('A' for Active; 'I' for Inactive)
REMARK    1  A    between atoms: O_4  and  C_27
REMARK    2  A    between atoms: O_4  and  C_33
REMARK    3  A    between atoms: O_5  and  C_31
REMARK    4  A    between atoms: O_5  and  C_34
REMARK    5  A    between atoms: N_7  and  C_20
REMARK    6  A    between atoms: C_9  and  C_15
REMARK    7  A    between atoms: C_10  and  C_14
REMARK    8  A    between atoms: C_14  and  C_16
REMARK    9  A    between atoms: C_15  and  C_17
REMARK   10  A    between atoms: C_19  and  C_21
REMARK   11  A    between atoms: C_20  and  C_22
REMARK                            x       y       z     vdW  Elec       q    Type
REMARK                         _______ _______ _______ _____ _____    ______ ____
ROOT
ATOM      6  N   UNL     1      13.086  10.819  15.316  0.00  0.00    -0.316 NA
ATOM      9  C   UNL     1      12.766   9.117  17.705  0.00  0.00    +0.004 C 
ATOM     10  C   UNL     1      13.576  10.435  17.720  0.00  0.00    +0.012 C 
ATOM     11  C   UNL     1      11.732   9.176  16.568  0.00  0.00    +0.019 C 
ATOM     12  C   UNL     1      14.141  10.771  16.330  0.00  0.00    +0.085 C 
ATOM     13  C   UNL     1      12.359   9.554  15.228  0.00  0.00    +0.081 C 
ATOM     35  H   UNL     1      13.499  11.036  14.409  0.00  0.00    +0.122 HD
ENDROOT
BRANCH  10  14
ATOM     14  C   UNL     1      14.688  10.443  18.769  0.00  0.00    +0.064 C 
BRANCH  14  16
ATOM      3  O   UNL     1      13.779  10.176  22.242  0.00  0.00    -0.354 OA
ATOM      8  N   UNL     1      14.447   9.730  21.109  0.00  0.00    -0.083 NA
ATOM     16  C   UNL     1      14.134  10.611  20.154  0.00  0.00    +0.085 A 
ATOM     18  C   UNL     1      13.280  11.625  20.623  0.00  0.00    +0.076 A 
ATOM     19  C   UNL     1      13.088  11.305  21.940  0.00  0.00    +0.167 A 
BRANCH  19  21
ATOM      1  F   UNL     1      10.200  13.552  26.130  0.00  0.00    -0.205 F 
ATOM     21  C   UNL     1      12.344  11.885  23.020  0.00  0.00    +0.020 A 
ATOM     24  C   UNL     1      12.884  11.907  24.307  0.00  0.00    +0.014 A 
ATOM     25  C   UNL     1      11.080  12.427  22.785  0.00  0.00    +0.014 A 
ATOM     29  C   UNL     1      12.159  12.470  25.357  0.00  0.00    +0.039 A 
ATOM     30  C   UNL     1      10.356  12.990  23.835  0.00  0.00    +0.039 A 
ATOM     32  C   UNL     1      10.896  13.012  25.121  0.00  0.00    +0.123 A 
ENDBRANCH  19  21
ENDBRANCH  14  16
ENDBRANCH  10  14
BRANCH   9  15
ATOM     15  C   UNL     1      13.630   7.855  17.591  0.00  0.00    +0.099 C 
BRANCH  15  17
ATOM      2  O   UNL     1      12.937   6.841  19.676  0.00  0.00    -0.276 OA
ATOM      7  N   UNL     1      15.203   7.029  19.195  0.00  0.00    -0.311 N 
ATOM     17  C   UNL     1      13.851   7.187  18.932  0.00  0.00    +0.214 C 
ATOM     36  H   UNL     1      15.880   7.310  18.492  0.00  0.00    +0.149 HD
BRANCH   7  20
ATOM     20  C   UNL     1      15.705   6.421  20.407  0.00  0.00    +0.139 C 
BRANCH  20  22
ATOM     22  C   UNL     1      17.135   6.795  20.673  0.00  0.00    -0.027 A 
ATOM     23  C   UNL     1      17.430   7.958  21.384  0.00  0.00    +0.054 A 
ATOM     26  C   UNL     1      18.166   5.979  20.209  0.00  0.00    +0.009 A 
ATOM     27  C   UNL     1      18.759   8.305  21.631  0.00  0.00    +0.162 A 
ATOM     28  C   UNL     1      19.495   6.327  20.457  0.00  0.00    +0.050 A 
ATOM     31  C   UNL     1      19.790   7.490  21.167  0.00  0.00    +0.162 A 
BRANCH  27   4
ATOM      4  O   UNL     1      19.035   9.444  22.326  0.00  0.00    -0.491 OA
ATOM     33  C   UNL     1      19.019  10.669  21.595  0.00  0.00    +0.277 C 
ENDBRANCH  27   4
BRANCH  31   5
ATOM      5  O   UNL     1      21.092   7.819  21.400  0.00  0.00    -0.491 OA
ATOM     34  C   UNL     1      22.033   7.504  20.376  0.00  0.00    +0.277 C 
ENDBRANCH  31   5
ENDBRANCH  20  22
ENDBRANCH   7  20
ENDBRANCH  15  17
ENDBRANCH   9  15
TORSDOF 9
ENDMDL
MODEL 5
REMARK VINA RESULT:      -6.9     26.652     31.713
REMARK  Name = 25313526
REMARK  11 active torsions:
REMARK  status: ('A' for Active; 'I' for Inactive)
REMARK    1  A    between atoms: O_4  and  C_27
REMARK    2  A    between atoms: O_4  and  C_33
REMARK    3  A    between atoms: O_5  and  C_31
REMARK    4  A    between atoms: O_5  and  C_34
REMARK    5  A    between atoms: N_7  and  C_20
REMARK    6  A    between atoms: C_9  and  C_15
REMARK    7  A    between atoms: C_10  and  C_14
REMARK    8  A    between atoms: C_14  and  C_16
REMARK    9  A    between atoms: C_15  and  C_17
REMARK   10  A    between atoms: C_19  and  C_21
REMARK   11  A    between atoms: C_20  and  C_22
REMARK                            x       y       z     vdW  Elec       q    Type
REMARK                         _______ _______ _______ _____ _____    ______ ____
ROOT
ATOM      6  N   UNL     1     -17.329   5.550  20.426  0.00  0.00    -0.316 NA
ATOM      9  C   UNL     1     -17.103   5.786  23.358  0.00  0.00    +0.004 C 
ATOM     10  C   UNL     1     -15.989   6.257  22.393  0.00  0.00    +0.012 C 
ATOM     11  C   UNL     1     -18.449   5.794  22.614  0.00  0.00    +0.019 C 
ATOM     12  C   UNL     1     -16.016   5.475  21.069  0.00  0.00    +0.085 C 
ATOM     13  C   UNL     1     -18.388   5.034  21.290  0.00  0.00    +0.081 C 
ATOM     35  H   UNL     1     -17.311   5.014  19.558  0.00  0.00    +0.122 HD
ENDROOT
BRANCH  10  14
ATOM     14  C   UNL     1     -14.594   6.207  23.018  0.00  0.00    +0.064 C 
BRANCH  14  16
ATOM      3  O   UNL     1     -11.779   6.255  20.775  0.00  0.00    -0.354 OA
ATOM      8  N   UNL     1     -12.583   5.638  21.726  0.00  0.00    -0.083 NA
ATOM     16  C   UNL     1     -13.531   6.536  22.011  0.00  0.00    +0.085 A 
ATOM     18  C   UNL     1     -13.377   7.726  21.278  0.00  0.00    +0.076 A 
ATOM     19  C   UNL     1     -12.262   7.496  20.517  0.00  0.00    +0.167 A 
BRANCH  19  21
ATOM      1  F   UNL     1      -9.425  10.455  16.755  0.00  0.00    -0.205 F 
ATOM     21  C   UNL     1     -11.530   8.259  19.547  0.00  0.00    +0.020 A 
ATOM     24  C   UNL     1     -11.145   9.568  19.836  0.00  0.00    +0.014 A 
ATOM     25  C   UNL     1     -11.204   7.691  18.315  0.00  0.00    +0.014 A 
ATOM     29  C   UNL     1     -10.434  10.310  18.893  0.00  0.00    +0.039 A 
ATOM     30  C   UNL     1     -10.493   8.433  17.372  0.00  0.00    +0.039 A 
ATOM     32  C   UNL     1     -10.108   9.742  17.661  0.00  0.00    +0.123 A 
ENDBRANCH  19  21
ENDBRANCH  14  16
ENDBRANCH  10  14
BRANCH   9  15
ATOM     15  C   UNL     1     -16.840   4.416  23.994  0.00  0.00    +0.099 C 
BRANCH  15  17
ATOM      2  O   UNL     1     -18.585   3.993  25.616  0.00  0.00    -0.276 OA
ATOM      7  N   UNL     1     -16.470   4.615  26.350  0.00  0.00    -0.311 N 
ATOM     17  C   UNL     1     -17.420   4.309  25.388  0.00  0.00    +0.214 C 
ATOM     36  H   UNL     1     -15.519   4.823  26.058  0.00  0.00    +0.149 HD
BRANCH   7  20
ATOM     20  C   UNL     1     -16.749   4.597  27.768  0.00  0.00    +0.139 C 
BRANCH  20  22
ATOM     22  C   UNL     1     -16.193   3.371  28.435  0.00  0.00    -0.027 A 
ATOM     23  C   UNL     1     -15.054   3.468  29.233  0.00  0.00    +0.054 A 
ATOM     26  C   UNL     1     -16.817   2.136  28.255  0.00  0.00    +0.009 A 
ATOM     27  C   UNL     1     -14.538   2.329  29.852  0.00  0.00    +0.162 A 
ATOM     28  C   UNL     1     -16.300   0.998  28.874  0.00  0.00    +0.050 A 
ATOM     31  C   UNL     1     -15.161   1.095  29.672  0.00  0.00    +0.162 A 
BRANCH  27   4
ATOM      4  O   UNL     1     -13.424   2.436  30.629  0.00  0.00    -0.491 OA
ATOM     33  C   UNL     1     -13.591   3.010  31.925  0.00  0.00    +0.277 C 
ENDBRANCH  27   4
BRANCH  31   5
ATOM      5  O   UNL     1     -14.665  -0.025  30.270  0.00  0.00    -0.491 OA
ATOM     34  C   UNL     1     -13.604  -0.701  29.599  0.00  0.00    +0.277 C 
ENDBRANCH  31   5
ENDBRANCH  20  22
ENDBRANCH   7  20
ENDBRANCH  15  17
ENDBRANCH   9  15
TORSDOF 9
ENDMDL
MODEL 6
REMARK VINA RESULT:      -6.8      2.358      3.506
REMARK  Name = 25313526
REMARK  11 active torsions:
REMARK  status: ('A' for Active; 'I' for Inactive)
REMARK    1  A    between atoms: O_4  and  C_27
REMARK    2  A    between atoms: O_4  and  C_33
REMARK    3  A    between atoms: O_5  and  C_31
REMARK    4  A    between atoms: O_5  and  C_34
REMARK    5  A    between atoms: N_7  and  C_20
REMARK    6  A    between atoms: C_9  and  C_15
REMARK    7  A    between atoms: C_10  and  C_14
REMARK    8  A    between atoms: C_14  and  C_16
REMARK    9  A    between atoms: C_15  and  C_17
REMARK   10  A    between atoms: C_19  and  C_21
REMARK   11  A    between atoms: C_20  and  C_22
REMARK                            x       y       z     vdW  Elec       q    Type
REMARK                         _______ _______ _______ _____ _____    ______ ____
ROOT
ATOM      6  N   UNL     1      11.965   7.153  17.744  0.00  0.00    -0.316 NA
ATOM      9  C   UNL     1      14.432   8.656  18.345  0.00  0.00    +0.004 C 
ATOM     10  C   UNL     1      14.155   7.244  18.913  0.00  0.00    +0.012 C 
ATOM     11  C   UNL     1      13.626   8.844  17.049  0.00  0.00    +0.019 C 
ATOM     12  C   UNL     1      12.647   6.963  19.026  0.00  0.00    +0.085 C 
ATOM     13  C   UNL     1      12.146   8.508  17.228  0.00  0.00    +0.081 C 
ATOM     35  H   UNL     1      10.969   6.967  17.861  0.00  0.00    +0.122 HD
ENDROOT
BRANCH  10  14
ATOM     14  C   UNL     1      14.851   6.988  20.250  0.00  0.00    +0.064 C 
BRANCH  14  16
ATOM      3  O   UNL     1      17.955   5.544  19.136  0.00  0.00    -0.354 OA
ATOM      8  N   UNL     1      16.586   5.754  19.023  0.00  0.00    -0.083 NA
ATOM     16  C   UNL     1      16.272   6.547  20.052  0.00  0.00    +0.085 A 
ATOM     18  C   UNL     1      17.391   6.867  20.840  0.00  0.00    +0.076 A 
ATOM     19  C   UNL     1      18.422   6.212  20.222  0.00  0.00    +0.167 A 
BRANCH  19  21
ATOM      1  F   UNL     1      23.881   5.731  21.182  0.00  0.00    -0.205 F 
ATOM     21  C   UNL     1      19.830   6.088  20.468  0.00  0.00    +0.020 A 
ATOM     24  C   UNL     1      20.445   4.838  20.387  0.00  0.00    +0.014 A 
ATOM     25  C   UNL     1      20.584   7.217  20.790  0.00  0.00    +0.014 A 
ATOM     29  C   UNL     1      21.813   4.718  20.628  0.00  0.00    +0.039 A 
ATOM     30  C   UNL     1      21.952   7.096  21.031  0.00  0.00    +0.039 A 
ATOM     32  C   UNL     1      22.566   5.848  20.950  0.00  0.00    +0.123 A 
ENDBRANCH  19  21
ENDBRANCH  14  16
ENDBRANCH  10  14
BRANCH   9  15
ATOM     15  C   UNL     1      14.147   9.794  19.334  0.00  0.00    +0.099 C 
BRANCH  15  17
ATOM      2  O   UNL     1      16.288  10.611  20.110  0.00  0.00    -0.276 OA
ATOM      7  N   UNL     1      15.051  11.890  18.615  0.00  0.00    -0.311 N 
ATOM     17  C   UNL     1      15.290  10.784  19.416  0.00  0.00    +0.214 C 
ATOM     36  H   UNL     1      14.211  11.916  18.045  0.00  0.00    +0.149 HD
BRANCH   7  20
ATOM     20  C   UNL     1      15.974  12.996  18.503  0.00  0.00    +0.139 C 
BRANCH  20  22
ATOM     22  C   UNL     1      16.968  12.789  17.396  0.00  0.00    -0.027 A 
ATOM     23  C   UNL     1      16.526  12.437  16.120  0.00  0.00    +0.054 A 
ATOM     26  C   UNL     1      18.331  12.948  17.643  0.00  0.00    +0.009 A 
ATOM     27  C   UNL     1      17.449  12.245  15.092  0.00  0.00    +0.162 A 
ATOM     28  C   UNL     1      19.253  12.755  16.614  0.00  0.00    +0.050 A 
ATOM     31  C   UNL     1      18.812  12.403  15.339  0.00  0.00    +0.162 A 
BRANCH  27   4
ATOM      4  O   UNL     1      17.005  11.901  13.851  0.00  0.00    -0.491 OA
ATOM     33  C   UNL     1      15.926  12.664  13.313  0.00  0.00    +0.277 C 
ENDBRANCH  27   4
BRANCH  31   5
ATOM      5  O   UNL     1      19.722  12.216  14.343  0.00  0.00    -0.491 OA
ATOM     34  C   UNL     1      20.857  11.407  14.647  0.00  0.00    +0.277 C 
ENDBRANCH  31   5
ENDBRANCH  20  22
ENDBRANCH   7  20
ENDBRANCH  15  17
ENDBRANCH   9  15
TORSDOF 9
ENDMDL
MODEL 7
REMARK VINA RESULT:      -6.8      3.839      7.359
REMARK  Name = 25313526
REMARK  11 active torsions:
REMARK  status: ('A' for Active; 'I' for Inactive)
REMARK    1  A    between atoms: O_4  and  C_27
REMARK    2  A    between atoms: O_4  and  C_33
REMARK    3  A    between atoms: O_5  and  C_31
REMARK    4  A    between atoms: O_5  and  C_34
REMARK    5  A    between atoms: N_7  and  C_20
REMARK    6  A    between atoms: C_9  and  C_15
REMARK    7  A    between atoms: C_10  and  C_14
REMARK    8  A    between atoms: C_14  and  C_16
REMARK    9  A    between atoms: C_15  and  C_17
REMARK   10  A    between atoms: C_19  and  C_21
REMARK   11  A    between atoms: C_20  and  C_22
REMARK                            x       y       z     vdW  Elec       q    Type
REMARK                         _______ _______ _______ _____ _____    ______ ____
ROOT
ATOM      6  N   UNL     1      17.359  11.814  13.485  0.00  0.00    -0.316 NA
ATOM      9  C   UNL     1      15.701  12.524  15.821  0.00  0.00    +0.004 C 
ATOM     10  C   UNL     1      15.329  11.380  14.849  0.00  0.00    +0.012 C 
ATOM     11  C   UNL     1      17.221  12.758  15.764  0.00  0.00    +0.019 C 
ATOM     12  C   UNL     1      15.909  11.616  13.444  0.00  0.00    +0.085 C 
ATOM     13  C   UNL     1      17.729  12.944  14.335  0.00  0.00    +0.081 C 
ATOM     35  H   UNL     1      17.704  11.975  12.539  0.00  0.00    +0.122 HD
ENDROOT
BRANCH  10  14
ATOM     14  C   UNL     1      13.824  11.124  14.773  0.00  0.00    +0.064 C 
BRANCH  14  16
ATOM      3  O   UNL     1      12.963   8.026  16.393  0.00  0.00    -0.354 OA
ATOM      8  N   UNL     1      13.388   8.762  15.294  0.00  0.00    -0.083 NA
ATOM     16  C   UNL     1      13.406  10.030  15.713  0.00  0.00    +0.085 A 
ATOM     18  C   UNL     1      13.005  10.154  17.055  0.00  0.00    +0.076 A 
ATOM     19  C   UNL     1      12.739   8.866  17.435  0.00  0.00    +0.167 A 
BRANCH  19  21
ATOM      1  F   UNL     1      11.004   6.455  22.139  0.00  0.00    -0.205 F 
ATOM     21  C   UNL     1      12.292   8.245  18.648  0.00  0.00    +0.020 A 
ATOM     24  C   UNL     1      12.919   7.088  19.112  0.00  0.00    +0.014 A 
ATOM     25  C   UNL     1      11.230   8.797  19.364  0.00  0.00    +0.014 A 
ATOM     29  C   UNL     1      12.484   6.484  20.291  0.00  0.00    +0.039 A 
ATOM     30  C   UNL     1      10.795   8.192  20.543  0.00  0.00    +0.039 A 
ATOM     32  C   UNL     1      11.422   7.036  21.006  0.00  0.00    +0.123 A 
ENDBRANCH  19  21
ENDBRANCH  14  16
ENDBRANCH  10  14
BRANCH   9  15
ATOM     15  C   UNL     1      14.940  13.831  15.568  0.00  0.00    +0.099 C 
BRANCH  15  17
ATOM      2  O   UNL     1      13.126  15.050  16.608  0.00  0.00    -0.276 OA
ATOM      7  N   UNL     1      14.116  13.283  17.747  0.00  0.00    -0.311 N 
ATOM     17  C   UNL     1      13.953  14.144  16.673  0.00  0.00    +0.214 C 
ATOM     36  H   UNL     1      14.802  12.536  17.684  0.00  0.00    +0.149 HD
BRANCH   7  20
ATOM     20  C   UNL     1      13.309  13.354  18.944  0.00  0.00    +0.139 C 
BRANCH  20  22
ATOM     22  C   UNL     1      13.680  12.290  19.937  0.00  0.00    -0.027 A 
ATOM     23  C   UNL     1      14.955  11.725  19.909  0.00  0.00    +0.054 A 
ATOM     26  C   UNL     1      12.750  11.867  20.887  0.00  0.00    +0.009 A 
ATOM     27  C   UNL     1      15.299  10.736  20.831  0.00  0.00    +0.162 A 
ATOM     28  C   UNL     1      13.095  10.878  21.808  0.00  0.00    +0.050 A 
ATOM     31  C   UNL     1      14.370  10.313  21.780  0.00  0.00    +0.162 A 
BRANCH  27   4
ATOM      4  O   UNL     1      16.547  10.192  20.793  0.00  0.00    -0.491 OA
ATOM     33  C   UNL     1      17.634  11.078  20.530  0.00  0.00    +0.277 C 
ENDBRANCH  27   4
BRANCH  31   5
ATOM      5  O   UNL     1      14.694   9.347  22.684  0.00  0.00    -0.491 OA
ATOM     34  C   UNL     1      14.878   8.025  22.182  0.00  0.00    +0.277 C 
ENDBRANCH  31   5
ENDBRANCH  20  22
ENDBRANCH   7  20
ENDBRANCH  15  17
ENDBRANCH   9  15
TORSDOF 9
ENDMDL
MODEL 8
REMARK VINA RESULT:      -6.7     26.511     28.915
REMARK  Name = 25313526
REMARK  11 active torsions:
REMARK  status: ('A' for Active; 'I' for Inactive)
REMARK    1  A    between atoms: O_4  and  C_27
REMARK    2  A    between atoms: O_4  and  C_33
REMARK    3  A    between atoms: O_5  and  C_31
REMARK    4  A    between atoms: O_5  and  C_34
REMARK    5  A    between atoms: N_7  and  C_20
REMARK    6  A    between atoms: C_9  and  C_15
REMARK    7  A    between atoms: C_10  and  C_14
REMARK    8  A    between atoms: C_14  and  C_16
REMARK    9  A    between atoms: C_15  and  C_17
REMARK   10  A    between atoms: C_19  and  C_21
REMARK   11  A    between atoms: C_20  and  C_22
REMARK                            x       y       z     vdW  Elec       q    Type
REMARK                         _______ _______ _______ _____ _____    ______ ____
ROOT
ATOM      6  N   UNL     1     -14.266   4.346  21.956  0.00  0.00    -0.316 NA
ATOM      9  C   UNL     1     -14.138   7.115  20.946  0.00  0.00    +0.004 C 
ATOM     10  C   UNL     1     -12.905   6.182  20.985  0.00  0.00    +0.012 C 
ATOM     11  C   UNL     1     -15.415   6.259  20.897  0.00  0.00    +0.019 C 
ATOM     12  C   UNL     1     -13.031   5.120  22.090  0.00  0.00    +0.085 C 
ATOM     13  C   UNL     1     -15.451   5.201  21.999  0.00  0.00    +0.081 C 
ATOM     35  H   UNL     1     -14.318   3.660  22.709  0.00  0.00    +0.122 HD
ENDROOT
BRANCH  10  14
ATOM     14  C   UNL     1     -11.584   6.940  21.115  0.00  0.00    +0.064 C 
BRANCH  14  16
ATOM      3  O   UNL     1     -11.115   8.397  17.857  0.00  0.00    -0.354 OA
ATOM      8  N   UNL     1     -11.369   7.320  18.697  0.00  0.00    -0.083 NA
ATOM     16  C   UNL     1     -11.344   7.831  19.931  0.00  0.00    +0.085 A 
ATOM     18  C   UNL     1     -11.080   9.212  19.931  0.00  0.00    +0.076 A 
ATOM     19  C   UNL     1     -10.944   9.517  18.603  0.00  0.00    +0.167 A 
BRANCH  19  21
ATOM      1  F   UNL     1      -9.893  14.176  15.751  0.00  0.00    -0.205 F 
ATOM     21  C   UNL     1     -10.672  10.719  17.868  0.00  0.00    +0.020 A 
ATOM     24  C   UNL     1     -10.824  11.962  18.483  0.00  0.00    +0.014 A 
ATOM     25  C   UNL     1     -10.257  10.644  16.539  0.00  0.00    +0.014 A 
ATOM     29  C   UNL     1     -10.560  13.130  17.768  0.00  0.00    +0.039 A 
ATOM     30  C   UNL     1      -9.994  11.812  15.824  0.00  0.00    +0.039 A 
ATOM     32  C   UNL     1     -10.145  13.054  16.438  0.00  0.00    +0.123 A 
ENDBRANCH  19  21
ENDBRANCH  14  16
ENDBRANCH  10  14
BRANCH   9  15
ATOM     15  C   UNL     1     -14.199   8.119  22.104  0.00  0.00    +0.099 C 
BRANCH  15  17
ATOM      2  O   UNL     1     -14.803  10.443  22.403  0.00  0.00    -0.276 OA
ATOM      7  N   UNL     1     -14.576   9.589  20.253  0.00  0.00    -0.311 N 
ATOM     17  C   UNL     1     -14.558   9.513  21.637  0.00  0.00    +0.214 C 
ATOM     36  H   UNL     1     -14.315   8.771  19.710  0.00  0.00    +0.149 HD
BRANCH   7  20
ATOM     20  C   UNL     1     -14.891  10.802  19.533  0.00  0.00    +0.139 C 
BRANCH  20  22
ATOM     22  C   UNL     1     -14.478  10.724  18.092  0.00  0.00    -0.027 A 
ATOM     23  C   UNL     1     -14.375   9.484  17.463  0.00  0.00    +0.054 A 
ATOM     26  C   UNL     1     -14.198  11.892  17.382  0.00  0.00    +0.009 A 
ATOM     27  C   UNL     1     -13.991   9.411  16.123  0.00  0.00    +0.162 A 
ATOM     28  C   UNL     1     -13.814  11.818  16.043  0.00  0.00    +0.050 A 
ATOM     31  C   UNL     1     -13.711  10.578  15.414  0.00  0.00    +0.162 A 
BRANCH  27   4
ATOM      4  O   UNL     1     -13.894   8.194  15.520  0.00  0.00    -0.491 OA
ATOM     33  C   UNL     1     -15.115   7.534  15.190  0.00  0.00    +0.277 C 
ENDBRANCH  27   4
BRANCH  31   5
ATOM      5  O   UNL     1     -13.333  10.520  14.107  0.00  0.00    -0.491 OA
ATOM     34  C   UNL     1     -14.354  10.707  13.128  0.00  0.00    +0.277 C 
ENDBRANCH  31   5
ENDBRANCH  20  22
ENDBRANCH   7  20
ENDBRANCH  15  17
ENDBRANCH   9  15
TORSDOF 9
ENDMDL
MODEL 9
REMARK VINA RESULT:      -6.7     24.710     28.388
REMARK  Name = 25313526
REMARK  11 active torsions:
REMARK  status: ('A' for Active; 'I' for Inactive)
REMARK    1  A    between atoms: O_4  and  C_27
REMARK    2  A    between atoms: O_4  and  C_33
REMARK    3  A    between atoms: O_5  and  C_31
REMARK    4  A    between atoms: O_5  and  C_34
REMARK    5  A    between atoms: N_7  and  C_20
REMARK    6  A    between atoms: C_9  and  C_15
REMARK    7  A    between atoms: C_10  and  C_14
REMARK    8  A    between atoms: C_14  and  C_16
REMARK    9  A    between atoms: C_15  and  C_17
REMARK   10  A    between atoms: C_19  and  C_21
REMARK   11  A    between atoms: C_20  and  C_22
REMARK                            x       y       z     vdW  Elec       q    Type
REMARK                         _______ _______ _______ _____ _____    ______ ____
ROOT
ATOM      6  N   UNL     1       1.152   7.341  -5.681  0.00  0.00    -0.316 NA
ATOM      9  C   UNL     1       3.824   6.300  -4.986  0.00  0.00    +0.004 C 
ATOM     10  C   UNL     1       2.695   5.401  -5.543  0.00  0.00    +0.012 C 
ATOM     11  C   UNL     1       3.575   7.752  -5.430  0.00  0.00    +0.019 C 
ATOM     12  C   UNL     1       1.303   5.963  -5.210  0.00  0.00    +0.085 C 
ATOM     13  C   UNL     1       2.160   8.227  -5.103  0.00  0.00    +0.081 C 
ATOM     35  H   UNL     1       0.222   7.682  -5.435  0.00  0.00    +0.122 HD
ENDROOT
BRANCH  10  14
ATOM     14  C   UNL     1       2.809   3.945  -5.088  0.00  0.00    +0.064 C 
BRANCH  14  16
ATOM      3  O   UNL     1       1.021   2.084  -7.598  0.00  0.00    -0.354 OA
ATOM      8  N   UNL     1       2.003   2.983  -7.201  0.00  0.00    -0.083 NA
ATOM     16  C   UNL     1       1.891   3.053  -5.872  0.00  0.00    +0.085 A 
ATOM     18  C   UNL     1       0.864   2.229  -5.379  0.00  0.00    +0.076 A 
ATOM     19  C   UNL     1       0.350   1.642  -6.505  0.00  0.00    +0.167 A 
BRANCH  19  21
ATOM      1  F   UNL     1      -3.732  -2.006  -7.491  0.00  0.00    -0.205 F 
ATOM     21  C   UNL     1      -0.702   0.701  -6.760  0.00  0.00    +0.020 A 
ATOM     24  C   UNL     1      -1.721   1.020  -7.658  0.00  0.00    +0.014 A 
ATOM     25  C   UNL     1      -0.708  -0.532  -6.109  0.00  0.00    +0.014 A 
ATOM     29  C   UNL     1      -2.744   0.106  -7.905  0.00  0.00    +0.039 A 
ATOM     30  C   UNL     1      -1.731  -1.447  -6.356  0.00  0.00    +0.039 A 
ATOM     32  C   UNL     1      -2.749  -1.128  -7.254  0.00  0.00    +0.123 A 
ENDBRANCH  19  21
ENDBRANCH  14  16
ENDBRANCH  10  14
BRANCH   9  15
ATOM     15  C   UNL     1       3.995   6.217  -3.464  0.00  0.00    +0.099 C 
BRANCH  15  17
ATOM      2  O   UNL     1       5.333   7.735  -2.138  0.00  0.00    -0.276 OA
ATOM      7  N   UNL     1       6.378   6.325  -3.661  0.00  0.00    -0.311 N 
ATOM     17  C   UNL     1       5.284   6.857  -2.995  0.00  0.00    +0.214 C 
ATOM     36  H   UNL     1       6.233   5.568  -4.324  0.00  0.00    +0.149 HD
BRANCH   7  20
ATOM     20  C   UNL     1       7.736   6.752  -3.414  0.00  0.00    +0.139 C 
BRANCH  20  22
ATOM     22  C   UNL     1       8.670   5.588  -3.246  0.00  0.00    -0.027 A 
ATOM     23  C   UNL     1       8.666   4.551  -4.177  0.00  0.00    +0.054 A 
ATOM     26  C   UNL     1       9.541   5.545  -2.156  0.00  0.00    +0.009 A 
ATOM     27  C   UNL     1       9.534   3.469  -4.020  0.00  0.00    +0.162 A 
ATOM     28  C   UNL     1      10.408   4.463  -2.000  0.00  0.00    +0.050 A 
ATOM     31  C   UNL     1      10.404   3.426  -2.932  0.00  0.00    +0.162 A 
BRANCH  27   4
ATOM      4  O   UNL     1       9.520   2.462  -4.937  0.00  0.00    -0.491 OA
ATOM     33  C   UNL     1       9.701   2.827  -6.305  0.00  0.00    +0.277 C 
ENDBRANCH  27   4
BRANCH  31   5
ATOM      5  O   UNL     1      11.254   2.374  -2.766  0.00  0.00    -0.491 OA
ATOM     34  C   UNL     1      12.600   2.554  -3.202  0.00  0.00    +0.277 C 
ENDBRANCH  31   5
ENDBRANCH  20  22
ENDBRANCH   7  20
ENDBRANCH  15  17
ENDBRANCH   9  15
TORSDOF 9
ENDMDL
MODEL 10
REMARK VINA RESULT:      -6.7     27.343     30.846
REMARK  Name = 25313526
REMARK  11 active torsions:
REMARK  status: ('A' for Active; 'I' for Inactive)
REMARK    1  A    between atoms: O_4  and  C_27
REMARK    2  A    between atoms: O_4  and  C_33
REMARK    3  A    between atoms: O_5  and  C_31
REMARK    4  A    between atoms: O_5  and  C_34
REMARK    5  A    between atoms: N_7  and  C_20
REMARK    6  A    between atoms: C_9  and  C_15
REMARK    7  A    between atoms: C_10  and  C_14
REMARK    8  A    between atoms: C_14  and  C_16
REMARK    9  A    between atoms: C_15  and  C_17
REMARK   10  A    between atoms: C_19  and  C_21
REMARK   11  A    between atoms: C_20  and  C_22
REMARK                            x       y       z     vdW  Elec       q    Type
REMARK                         _______ _______ _______ _____ _____    ______ ____
ROOT
ATOM      6  N   UNL     1      -2.599 -14.137  11.463  0.00  0.00    -0.316 NA
ATOM      9  C   UNL     1      -3.060 -12.733  14.017  0.00  0.00    +0.004 C 
ATOM     10  C   UNL     1      -3.786 -12.345  12.707  0.00  0.00    +0.012 C 
ATOM     11  C   UNL     1      -2.623 -14.205  13.932  0.00  0.00    +0.019 C 
ATOM     12  C   UNL     1      -2.957 -12.718  11.466  0.00  0.00    +0.085 C 
ATOM     13  C   UNL     1      -1.841 -14.509  12.656  0.00  0.00    +0.081 C 
ATOM     35  H   UNL     1      -2.045 -14.344  10.632  0.00  0.00    +0.122 HD
ENDROOT
BRANCH  10  14
ATOM     14  C   UNL     1      -4.190 -10.871  12.660  0.00  0.00    +0.064 C 
BRANCH  14  16
ATOM      3  O   UNL     1      -7.709 -10.620  13.376  0.00  0.00    -0.354 OA
ATOM      8  N   UNL     1      -6.644 -10.922  12.537  0.00  0.00    -0.083 NA
ATOM     16  C   UNL     1      -5.551 -10.657  13.258  0.00  0.00    +0.085 A 
ATOM     18  C   UNL     1      -5.861 -10.189  14.546  0.00  0.00    +0.076 A 
ATOM     19  C   UNL     1      -7.231 -10.185  14.569  0.00  0.00    +0.167 A 
BRANCH  19  21
ATOM      1  F   UNL     1     -11.071  -8.823  18.357  0.00  0.00    -0.205 F 
ATOM     21  C   UNL     1      -8.221  -9.833  15.545  0.00  0.00    +0.020 A 
ATOM     24  C   UNL     1      -7.844  -9.172  16.715  0.00  0.00    +0.014 A 
ATOM     25  C   UNL     1      -9.561 -10.153  15.326  0.00  0.00    +0.014 A 
ATOM     29  C   UNL     1      -8.807  -8.831  17.664  0.00  0.00    +0.039 A 
ATOM     30  C   UNL     1     -10.523  -9.812  16.276  0.00  0.00    +0.039 A 
ATOM     32  C   UNL     1     -10.147  -9.151  17.444  0.00  0.00    +0.123 A 
ENDBRANCH  19  21
ENDBRANCH  14  16
ENDBRANCH  10  14
BRANCH   9  15
ATOM     15  C   UNL     1      -1.869 -11.830  14.362  0.00  0.00    +0.099 C 
BRANCH  15  17
ATOM      2  O   UNL     1      -1.419 -10.075  15.965  0.00  0.00    -0.276 OA
ATOM      7  N   UNL     1      -3.132 -11.589  16.380  0.00  0.00    -0.311 N 
ATOM     17  C   UNL     1      -2.090 -11.051  15.641  0.00  0.00    +0.214 C 
ATOM     36  H   UNL     1      -3.654 -12.374  16.001  0.00  0.00    +0.149 HD
BRANCH   7  20
ATOM     20  C   UNL     1      -3.561 -11.047  17.650  0.00  0.00    +0.139 C 
BRANCH  20  22
ATOM     22  C   UNL     1      -4.950 -11.487  18.009  0.00  0.00    -0.027 A 
ATOM     23  C   UNL     1      -5.634 -12.380  17.184  0.00  0.00    +0.054 A 
ATOM     26  C   UNL     1      -5.558 -11.003  19.168  0.00  0.00    +0.009 A 
ATOM     27  C   UNL     1      -6.925 -12.789  17.518  0.00  0.00    +0.162 A 
ATOM     28  C   UNL     1      -6.849 -11.413  19.501  0.00  0.00    +0.050 A 
ATOM     31  C   UNL     1      -7.532 -12.306  18.676  0.00  0.00    +0.162 A 
BRANCH  27   4
ATOM      4  O   UNL     1      -7.582 -13.662  16.704  0.00  0.00    -0.491 OA
ATOM     33  C   UNL     1      -7.143 -13.740  15.349  0.00  0.00    +0.277 C 
ENDBRANCH  27   4
BRANCH  31   5
ATOM      5  O   UNL     1      -8.794 -12.696  19.012  0.00  0.00    -0.491 OA
ATOM     34  C   UNL     1      -8.932 -13.511  20.174  0.00  0.00    +0.277 C 
ENDBRANCH  31   5
ENDBRANCH  20  22
ENDBRANCH   7  20
ENDBRANCH  15  17
ENDBRANCH   9  15
TORSDOF 9
ENDMDL
