MODEL 1
REMARK VINA RESULT:      -7.5      0.000      0.000
REMARK  Name = 26763567
REMARK  8 active torsions:
REMARK  status: ('A' for Active; 'I' for Inactive)
REMARK    1  A    between atoms: O_5  and  C_28
REMARK    2  A    between atoms: O_5  and  C_33
REMARK    3  A    between atoms: C_13  and  C_14
REMARK    4  A    between atoms: C_13  and  C_19
REMARK    5  A    between atoms: C_13  and  C_20
REMARK    6  A    between atoms: C_13  and  C_21
REMARK    7  A    between atoms: C_14  and  C_15
REMARK    8  A    between atoms: C_25  and  C_27
REMARK                            x       y       z     vdW  Elec       q    Type
REMARK                         _______ _______ _______ _____ _____    ______ ____
ROOT
ATOM      2  O   UNL     1      13.789   9.008  21.838  0.00  0.00    -0.276 OA
ATOM      3  O   UNL     1      17.665   9.347  21.154  0.00  0.00    -0.273 OA
ATOM      4  O   UNL     1      18.974   4.704  18.994  0.00  0.00    -0.270 OA
ATOM      6  N   UNL     1      15.223   7.736  20.524  0.00  0.00    -0.298 N 
ATOM      7  N   UNL     1      17.662   6.200  20.173  0.00  0.00    -0.283 N 
ATOM      8  N   UNL     1      19.593   8.146  21.287  0.00  0.00    -0.283 N 
ATOM      9  C   UNL     1      17.435   6.956  21.396  0.00  0.00    +0.180 C 
ATOM     10  C   UNL     1      15.947   7.196  21.678  0.00  0.00    +0.139 C 
ATOM     11  C   UNL     1      15.667   7.292  19.199  0.00  0.00    +0.127 C 
ATOM     12  C   UNL     1      16.526   6.038  19.265  0.00  0.00    +0.128 C 
ATOM     15  C   UNL     1      14.169   8.628  20.728  0.00  0.00    +0.216 C 
ATOM     16  C   UNL     1      18.220   8.249  21.237  0.00  0.00    +0.239 C 
ATOM     17  C   UNL     1      18.837   5.496  19.927  0.00  0.00    +0.249 C 
ATOM     18  C   UNL     1      20.011   5.725  20.811  0.00  0.00    +0.059 A 
ATOM     22  C   UNL     1      20.378   6.975  21.333  0.00  0.00    +0.046 A 
ATOM     23  C   UNL     1      20.883   4.630  20.966  0.00  0.00    +0.023 A 
ATOM     24  C   UNL     1      21.642   7.116  21.935  0.00  0.00    +0.024 A 
ATOM     25  C   UNL     1      22.111   4.777  21.610  0.00  0.00    -0.014 A 
ATOM     26  C   UNL     1      22.496   6.025  22.082  0.00  0.00    +0.010 A 
ATOM     34  H   UNL     1      20.094   9.023  21.403  0.00  0.00    +0.155 HD
ENDROOT
BRANCH  25  27
ATOM      1 CL   UNL     1      23.482   0.672  24.402  0.00  0.00    -0.084 Cl
ATOM     27  C   UNL     1      22.991   3.639  21.764  0.00  0.00    +0.025 A 
ATOM     28  C   UNL     1      23.984   3.372  20.823  0.00  0.00    +0.128 A 
ATOM     29  C   UNL     1      22.835   2.805  22.871  0.00  0.00    +0.032 A 
ATOM     30  C   UNL     1      24.823   2.269  20.989  0.00  0.00    +0.047 A 
ATOM     31  C   UNL     1      23.673   1.702  23.037  0.00  0.00    +0.042 A 
ATOM     32  C   UNL     1      24.667   1.435  22.096  0.00  0.00    +0.023 A 
BRANCH  28   5
ATOM      5  O   UNL     1      24.159   4.169  19.731  0.00  0.00    -0.495 OA
ATOM     33  C   UNL     1      25.502   4.442  19.339  0.00  0.00    +0.277 C 
ENDBRANCH  28   5
ENDBRANCH  25  27
BRANCH  15  14
ATOM     14  C   UNL     1      13.474   9.133  19.488  0.00  0.00    +0.102 C 
BRANCH  14  13
ATOM     13  C   UNL     1      12.182   8.360  19.172  0.00  0.00    -0.029 C 
ATOM     19  C   UNL     1      11.021   8.828  20.067  0.00  0.00    +0.011 C 
ATOM     20  C   UNL     1      12.383   6.845  19.345  0.00  0.00    +0.011 C 
ATOM     21  C   UNL     1      11.812   8.642  17.703  0.00  0.00    +0.011 C 
ENDBRANCH  14  13
ENDBRANCH  15  14
TORSDOF 4
ENDMDL
MODEL 2
REMARK VINA RESULT:      -7.1     15.789     18.899
REMARK  Name = 26763567
REMARK  8 active torsions:
REMARK  status: ('A' for Active; 'I' for Inactive)
REMARK    1  A    between atoms: O_5  and  C_28
REMARK    2  A    between atoms: O_5  and  C_33
REMARK    3  A    between atoms: C_13  and  C_14
REMARK    4  A    between atoms: C_13  and  C_19
REMARK    5  A    between atoms: C_13  and  C_20
REMARK    6  A    between atoms: C_13  and  C_21
REMARK    7  A    between atoms: C_14  and  C_15
REMARK    8  A    between atoms: C_25  and  C_27
REMARK                            x       y       z     vdW  Elec       q    Type
REMARK                         _______ _______ _______ _____ _____    ______ ____
ROOT
ATOM      2  O   UNL     1       9.200  11.209   8.815  0.00  0.00    -0.276 OA
ATOM      3  O   UNL     1      10.086   7.429   8.087  0.00  0.00    -0.273 OA
ATOM      4  O   UNL     1      13.621   7.697   4.166  0.00  0.00    -0.270 OA
ATOM      6  N   UNL     1      10.950  10.256   7.618  0.00  0.00    -0.298 N 
ATOM      7  N   UNL     1      11.946   8.458   5.567  0.00  0.00    -0.283 N 
ATOM      8  N   UNL     1      10.479   6.011   6.351  0.00  0.00    -0.283 N 
ATOM      9  C   UNL     1      10.539   8.442   5.943  0.00  0.00    +0.180 C 
ATOM     10  C   UNL     1      10.072   9.772   6.549  0.00  0.00    +0.139 C 
ATOM     11  C   UNL     1      12.380   9.962   7.483  0.00  0.00    +0.127 C 
ATOM     12  C   UNL     1      12.760   9.568   6.064  0.00  0.00    +0.128 C 
ATOM     15  C   UNL     1      10.402  10.958   8.693  0.00  0.00    +0.216 C 
ATOM     16  C   UNL     1      10.378   7.271   6.899  0.00  0.00    +0.239 C 
ATOM     17  C   UNL     1      12.488   7.579   4.635  0.00  0.00    +0.249 C 
ATOM     18  C   UNL     1      11.680   6.411   4.192  0.00  0.00    +0.059 A 
ATOM     22  C   UNL     1      10.848   5.659   5.036  0.00  0.00    +0.046 A 
ATOM     23  C   UNL     1      11.930   5.954   2.885  0.00  0.00    +0.023 A 
ATOM     24  C   UNL     1      10.341   4.431   4.573  0.00  0.00    +0.024 A 
ATOM     25  C   UNL     1      11.379   4.758   2.426  0.00  0.00    -0.014 A 
ATOM     26  C   UNL     1      10.596   3.989   3.276  0.00  0.00    +0.010 A 
ATOM     34  H   UNL     1      10.153   5.249   6.941  0.00  0.00    +0.155 HD
ENDROOT
BRANCH  25  27
ATOM      1 CL   UNL     1       9.959   4.753  -2.526  0.00  0.00    -0.084 Cl
ATOM     27  C   UNL     1      11.644   4.308   1.076  0.00  0.00    +0.025 A 
ATOM     28  C   UNL     1      12.742   3.497   0.796  0.00  0.00    +0.128 A 
ATOM     29  C   UNL     1      10.783   4.697   0.050  0.00  0.00    +0.032 A 
ATOM     30  C   UNL     1      12.980   3.073  -0.512  0.00  0.00    +0.047 A 
ATOM     31  C   UNL     1      11.021   4.273  -1.258  0.00  0.00    +0.042 A 
ATOM     32  C   UNL     1      12.119   3.462  -1.538  0.00  0.00    +0.023 A 
BRANCH  28   5
ATOM      5  O   UNL     1      13.600   3.102   1.779  0.00  0.00    -0.495 OA
ATOM     33  C   UNL     1      14.947   3.559   1.684  0.00  0.00    +0.277 C 
ENDBRANCH  28   5
ENDBRANCH  25  27
BRANCH  15  14
ATOM     14  C   UNL     1      11.373  11.425   9.749  0.00  0.00    +0.102 C 
BRANCH  14  13
ATOM     13  C   UNL     1      11.600  12.947   9.720  0.00  0.00    -0.029 C 
ATOM     19  C   UNL     1      10.609  13.674  10.645  0.00  0.00    +0.011 C 
ATOM     20  C   UNL     1      11.468  13.501   8.291  0.00  0.00    +0.011 C 
ATOM     21  C   UNL     1      13.030  13.220  10.222  0.00  0.00    +0.011 C 
ENDBRANCH  14  13
ENDBRANCH  15  14
TORSDOF 4
ENDMDL
MODEL 3
REMARK VINA RESULT:      -6.8     22.405     23.821
REMARK  Name = 26763567
REMARK  8 active torsions:
REMARK  status: ('A' for Active; 'I' for Inactive)
REMARK    1  A    between atoms: O_5  and  C_28
REMARK    2  A    between atoms: O_5  and  C_33
REMARK    3  A    between atoms: C_13  and  C_14
REMARK    4  A    between atoms: C_13  and  C_19
REMARK    5  A    between atoms: C_13  and  C_20
REMARK    6  A    between atoms: C_13  and  C_21
REMARK    7  A    between atoms: C_14  and  C_15
REMARK    8  A    between atoms: C_25  and  C_27
REMARK                            x       y       z     vdW  Elec       q    Type
REMARK                         _______ _______ _______ _____ _____    ______ ____
ROOT
ATOM      2  O   UNL     1       8.985  -4.999  37.700  0.00  0.00    -0.276 OA
ATOM      3  O   UNL     1       7.105  -5.598  34.278  0.00  0.00    -0.273 OA
ATOM      4  O   UNL     1       5.349 -10.569  34.659  0.00  0.00    -0.270 OA
ATOM      6  N   UNL     1       7.495  -6.659  37.049  0.00  0.00    -0.298 N 
ATOM      7  N   UNL     1       6.642  -8.729  35.200  0.00  0.00    -0.283 N 
ATOM      8  N   UNL     1       6.816  -7.191  32.678  0.00  0.00    -0.283 N 
ATOM      9  C   UNL     1       7.752  -7.849  34.863  0.00  0.00    +0.180 C 
ATOM     10  C   UNL     1       8.438  -7.258  36.101  0.00  0.00    +0.139 C 
ATOM     11  C   UNL     1       6.177  -7.293  37.160  0.00  0.00    +0.127 C 
ATOM     12  C   UNL     1       6.159  -8.699  36.581  0.00  0.00    +0.128 C 
ATOM     15  C   UNL     1       7.880  -5.539  37.787  0.00  0.00    +0.216 C 
ATOM     16  C   UNL     1       7.174  -6.783  33.945  0.00  0.00    +0.239 C 
ATOM     17  C   UNL     1       6.154  -9.697  34.328  0.00  0.00    +0.249 C 
ATOM     18  C   UNL     1       6.593  -9.673  32.907  0.00  0.00    +0.059 A 
ATOM     22  C   UNL     1       6.789  -8.501  32.159  0.00  0.00    +0.046 A 
ATOM     23  C   UNL     1       6.631 -10.920  32.257  0.00  0.00    +0.023 A 
ATOM     24  C   UNL     1       6.948  -8.603  30.765  0.00  0.00    +0.024 A 
ATOM     25  C   UNL     1       6.840 -11.006  30.881  0.00  0.00    -0.014 A 
ATOM     26  C   UNL     1       6.984  -9.845  30.132  0.00  0.00    +0.010 A 
ATOM     34  H   UNL     1       6.643  -6.443  32.011  0.00  0.00    +0.155 HD
ENDROOT
BRANCH  25  27
ATOM      1 CL   UNL     1       4.225 -14.922  28.795  0.00  0.00    -0.084 Cl
ATOM     27  C   UNL     1       6.881 -12.298  30.232  0.00  0.00    +0.025 A 
ATOM     28  C   UNL     1       8.097 -12.927  29.967  0.00  0.00    +0.128 A 
ATOM     29  C   UNL     1       5.683 -12.914  29.869  0.00  0.00    +0.032 A 
ATOM     30  C   UNL     1       8.116 -14.173  29.340  0.00  0.00    +0.047 A 
ATOM     31  C   UNL     1       5.702 -14.161  29.242  0.00  0.00    +0.042 A 
ATOM     32  C   UNL     1       6.918 -14.789  28.978  0.00  0.00    +0.023 A 
BRANCH  28   5
ATOM      5  O   UNL     1       9.283 -12.348  30.310  0.00  0.00    -0.495 OA
ATOM     33  C   UNL     1      10.356 -12.471  29.379  0.00  0.00    +0.277 C 
ENDBRANCH  28   5
ENDBRANCH  25  27
BRANCH  15  14
ATOM     14  C   UNL     1       6.853  -4.986  38.745  0.00  0.00    +0.102 C 
BRANCH  14  13
ATOM     13  C   UNL     1       6.407  -3.559  38.384  0.00  0.00    -0.029 C 
ATOM     19  C   UNL     1       6.011  -3.459  36.900  0.00  0.00    +0.011 C 
ATOM     20  C   UNL     1       7.515  -2.536  38.689  0.00  0.00    +0.011 C 
ATOM     21  C   UNL     1       5.175  -3.218  39.244  0.00  0.00    +0.011 C 
ENDBRANCH  14  13
ENDBRANCH  15  14
TORSDOF 4
ENDMDL
MODEL 4
REMARK VINA RESULT:      -6.8     29.619     32.411
REMARK  Name = 26763567
REMARK  8 active torsions:
REMARK  status: ('A' for Active; 'I' for Inactive)
REMARK    1  A    between atoms: O_5  and  C_28
REMARK    2  A    between atoms: O_5  and  C_33
REMARK    3  A    between atoms: C_13  and  C_14
REMARK    4  A    between atoms: C_13  and  C_19
REMARK    5  A    between atoms: C_13  and  C_20
REMARK    6  A    between atoms: C_13  and  C_21
REMARK    7  A    between atoms: C_14  and  C_15
REMARK    8  A    between atoms: C_25  and  C_27
REMARK                            x       y       z     vdW  Elec       q    Type
REMARK                         _______ _______ _______ _____ _____    ______ ____
ROOT
ATOM      2  O   UNL     1      -4.476 -13.765  16.654  0.00  0.00    -0.276 OA
ATOM      3  O   UNL     1      -3.910 -10.643  14.302  0.00  0.00    -0.273 OA
ATOM      4  O   UNL     1      -8.313 -10.451  11.382  0.00  0.00    -0.270 OA
ATOM      6  N   UNL     1      -5.963 -12.559  15.337  0.00  0.00    -0.298 N 
ATOM      7  N   UNL     1      -6.742 -11.397  12.793  0.00  0.00    -0.283 N 
ATOM      8  N   UNL     1      -4.230  -9.972  12.151  0.00  0.00    -0.283 N 
ATOM      9  C   UNL     1      -5.417 -11.974  12.966  0.00  0.00    +0.180 C 
ATOM     10  C   UNL     1      -5.370 -13.025  14.081  0.00  0.00    +0.139 C 
ATOM     11  C   UNL     1      -7.102 -11.641  15.229  0.00  0.00    +0.127 C 
ATOM     12  C   UNL     1      -7.728 -11.656  13.843  0.00  0.00    +0.128 C 
ATOM     15  C   UNL     1      -5.434 -12.994  16.553  0.00  0.00    +0.216 C 
ATOM     16  C   UNL     1      -4.483 -10.802  13.222  0.00  0.00    +0.239 C 
ATOM     17  C   UNL     1      -7.147 -10.775  11.616  0.00  0.00    +0.249 C 
ATOM     18  C   UNL     1      -6.125 -10.447  10.587  0.00  0.00    +0.059 A 
ATOM     22  C   UNL     1      -4.830  -9.988  10.875  0.00  0.00    +0.046 A 
ATOM     23  C   UNL     1      -6.578 -10.440   9.254  0.00  0.00    +0.023 A 
ATOM     24  C   UNL     1      -4.046  -9.465   9.830  0.00  0.00    +0.024 A 
ATOM     25  C   UNL     1      -5.768  -9.964   8.224  0.00  0.00    -0.014 A 
ATOM     26  C   UNL     1      -4.506  -9.463   8.515  0.00  0.00    +0.010 A 
ATOM     34  H   UNL     1      -3.446  -9.335  12.267  0.00  0.00    +0.155 HD
ENDROOT
BRANCH  25  27
ATOM      1 CL   UNL     1      -5.630 -12.145   3.559  0.00  0.00    -0.084 Cl
ATOM     27  C   UNL     1      -6.251  -9.970   6.860  0.00  0.00    +0.025 A 
ATOM     28  C   UNL     1      -7.184  -9.028   6.428  0.00  0.00    +0.128 A 
ATOM     29  C   UNL     1      -5.770 -10.934   5.974  0.00  0.00    +0.032 A 
ATOM     30  C   UNL     1      -7.637  -9.050   5.108  0.00  0.00    +0.047 A 
ATOM     31  C   UNL     1      -6.223 -10.956   4.654  0.00  0.00    +0.042 A 
ATOM     32  C   UNL     1      -7.156 -10.014   4.222  0.00  0.00    +0.023 A 
BRANCH  28   5
ATOM      5  O   UNL     1      -7.671  -8.075   7.272  0.00  0.00    -0.495 OA
ATOM     33  C   UNL     1      -8.460  -7.039   6.691  0.00  0.00    +0.277 C 
ENDBRANCH  28   5
ENDBRANCH  25  27
BRANCH  15  14
ATOM     14  C   UNL     1      -6.106 -12.471  17.799  0.00  0.00    +0.102 C 
BRANCH  14  13
ATOM     13  C   UNL     1      -5.247 -11.440  18.552  0.00  0.00    -0.029 C 
ATOM     19  C   UNL     1      -4.661 -10.395  17.587  0.00  0.00    +0.011 C 
ATOM     20  C   UNL     1      -4.105 -12.124  19.322  0.00  0.00    +0.011 C 
ATOM     21  C   UNL     1      -6.158 -10.718  19.563  0.00  0.00    +0.011 C 
ENDBRANCH  14  13
ENDBRANCH  15  14
TORSDOF 4
ENDMDL
MODEL 5
REMARK VINA RESULT:      -6.4     24.455     29.360
REMARK  Name = 26763567
REMARK  8 active torsions:
REMARK  status: ('A' for Active; 'I' for Inactive)
REMARK    1  A    between atoms: O_5  and  C_28
REMARK    2  A    between atoms: O_5  and  C_33
REMARK    3  A    between atoms: C_13  and  C_14
REMARK    4  A    between atoms: C_13  and  C_19
REMARK    5  A    between atoms: C_13  and  C_20
REMARK    6  A    between atoms: C_13  and  C_21
REMARK    7  A    between atoms: C_14  and  C_15
REMARK    8  A    between atoms: C_25  and  C_27
REMARK                            x       y       z     vdW  Elec       q    Type
REMARK                         _______ _______ _______ _____ _____    ______ ____
ROOT
ATOM      2  O   UNL     1       0.311  11.932   8.209  0.00  0.00    -0.276 OA
ATOM      3  O   UNL     1      -0.783   8.884   5.946  0.00  0.00    -0.273 OA
ATOM      4  O   UNL     1      -5.254  10.547   3.669  0.00  0.00    -0.270 OA
ATOM      6  N   UNL     1      -1.235  11.794   6.479  0.00  0.00    -0.298 N 
ATOM      7  N   UNL     1      -3.532  10.548   5.214  0.00  0.00    -0.283 N 
ATOM      8  N   UNL     1      -2.640   7.729   5.318  0.00  0.00    -0.283 N 
ATOM      9  C   UNL     1      -2.911   9.938   6.380  0.00  0.00    +0.180 C 
ATOM     10  C   UNL     1      -2.155  10.952   7.248  0.00  0.00    +0.139 C 
ATOM     11  C   UNL     1      -1.642  12.141   5.114  0.00  0.00    +0.127 C 
ATOM     12  C   UNL     1      -3.127  11.913   4.875  0.00  0.00    +0.128 C 
ATOM     15  C   UNL     1      -0.040  12.219   7.062  0.00  0.00    +0.216 C 
ATOM     16  C   UNL     1      -2.011   8.837   5.843  0.00  0.00    +0.239 C 
ATOM     17  C   UNL     1      -4.596   9.965   4.533  0.00  0.00    +0.249 C 
ATOM     18  C   UNL     1      -4.953   8.552   4.831  0.00  0.00    +0.059 A 
ATOM     22  C   UNL     1      -4.018   7.537   5.088  0.00  0.00    +0.046 A 
ATOM     23  C   UNL     1      -6.308   8.214   4.660  0.00  0.00    +0.023 A 
ATOM     24  C   UNL     1      -4.453   6.199   5.097  0.00  0.00    +0.024 A 
ATOM     25  C   UNL     1      -6.729   6.886   4.721  0.00  0.00    -0.014 A 
ATOM     26  C   UNL     1      -5.798   5.876   4.926  0.00  0.00    +0.010 A 
ATOM     34  H   UNL     1      -2.046   6.917   5.169  0.00  0.00    +0.155 HD
ENDROOT
BRANCH  25  27
ATOM      1 CL   UNL     1     -10.509   5.455   1.528  0.00  0.00    -0.084 Cl
ATOM     27  C   UNL     1      -8.128   6.559   4.548  0.00  0.00    +0.025 A 
ATOM     28  C   UNL     1      -9.009   6.591   5.628  0.00  0.00    +0.128 A 
ATOM     29  C   UNL     1      -8.591   6.208   3.280  0.00  0.00    +0.032 A 
ATOM     30  C   UNL     1     -10.354   6.272   5.440  0.00  0.00    +0.047 A 
ATOM     31  C   UNL     1      -9.936   5.889   3.092  0.00  0.00    +0.042 A 
ATOM     32  C   UNL     1     -10.817   5.921   4.172  0.00  0.00    +0.023 A 
BRANCH  28   5
ATOM      5  O   UNL     1      -8.584   6.930   6.878  0.00  0.00    -0.495 OA
ATOM     33  C   UNL     1      -9.250   8.019   7.514  0.00  0.00    +0.277 C 
ENDBRANCH  28   5
ENDBRANCH  25  27
BRANCH  15  14
ATOM     14  C   UNL     1       0.849  13.086   6.205  0.00  0.00    +0.102 C 
BRANCH  14  13
ATOM     13  C   UNL     1       0.856  14.559   6.651  0.00  0.00    -0.029 C 
ATOM     19  C   UNL     1       2.031  14.845   7.602  0.00  0.00    +0.011 C 
ATOM     20  C   UNL     1      -0.465  14.937   7.342  0.00  0.00    +0.011 C 
ATOM     21  C   UNL     1       1.019  15.432   5.393  0.00  0.00    +0.011 C 
ENDBRANCH  14  13
ENDBRANCH  15  14
TORSDOF 4
ENDMDL
MODEL 6
REMARK VINA RESULT:      -6.4     14.860     18.983
REMARK  Name = 26763567
REMARK  8 active torsions:
REMARK  status: ('A' for Active; 'I' for Inactive)
REMARK    1  A    between atoms: O_5  and  C_28
REMARK    2  A    between atoms: O_5  and  C_33
REMARK    3  A    between atoms: C_13  and  C_14
REMARK    4  A    between atoms: C_13  and  C_19
REMARK    5  A    between atoms: C_13  and  C_20
REMARK    6  A    between atoms: C_13  and  C_21
REMARK    7  A    between atoms: C_14  and  C_15
REMARK    8  A    between atoms: C_25  and  C_27
REMARK                            x       y       z     vdW  Elec       q    Type
REMARK                         _______ _______ _______ _____ _____    ______ ____
ROOT
ATOM      2  O   UNL     1       9.854   5.738   0.821  0.00  0.00    -0.276 OA
ATOM      3  O   UNL     1      12.025   8.178   3.044  0.00  0.00    -0.273 OA
ATOM      4  O   UNL     1      10.368   7.203   7.969  0.00  0.00    -0.270 OA
ATOM      6  N   UNL     1      10.231   5.783   3.114  0.00  0.00    -0.298 N 
ATOM      7  N   UNL     1      10.279   7.183   5.657  0.00  0.00    -0.283 N 
ATOM      8  N   UNL     1      11.842   9.559   4.844  0.00  0.00    -0.283 N 
ATOM      9  C   UNL     1      10.057   7.912   4.417  0.00  0.00    +0.180 C 
ATOM     10  C   UNL     1       9.482   7.028   3.304  0.00  0.00    +0.139 C 
ATOM     11  C   UNL     1      10.823   5.179   4.312  0.00  0.00    +0.127 C 
ATOM     12  C   UNL     1      10.215   5.722   5.596  0.00  0.00    +0.128 C 
ATOM     15  C   UNL     1      10.348   5.238   1.834  0.00  0.00    +0.216 C 
ATOM     16  C   UNL     1      11.399   8.524   4.049  0.00  0.00    +0.239 C 
ATOM     17  C   UNL     1      10.370   7.810   6.896  0.00  0.00    +0.249 C 
ATOM     18  C   UNL     1      10.510   9.289   6.945  0.00  0.00    +0.059 A 
ATOM     22  C   UNL     1      11.276  10.042   6.042  0.00  0.00    +0.046 A 
ATOM     23  C   UNL     1       9.973   9.918   8.084  0.00  0.00    +0.023 A 
ATOM     24  C   UNL     1      11.546  11.391   6.337  0.00  0.00    +0.024 A 
ATOM     25  C   UNL     1      10.210  11.269   8.336  0.00  0.00    -0.014 A 
ATOM     26  C   UNL     1      11.009  12.002   7.469  0.00  0.00    +0.010 A 
ATOM     34  H   UNL     1      12.616  10.101   4.466  0.00  0.00    +0.155 HD
ENDROOT
BRANCH  25  27
ATOM      1 CL   UNL     1       6.190  13.661  10.494  0.00  0.00    -0.084 Cl
ATOM     27  C   UNL     1       9.645  11.898   9.511  0.00  0.00    +0.025 A 
ATOM     28  C   UNL     1      10.377  11.992  10.693  0.00  0.00    +0.128 A 
ATOM     29  C   UNL     1       8.350  12.414   9.448  0.00  0.00    +0.032 A 
ATOM     30  C   UNL     1       9.815  12.602  11.815  0.00  0.00    +0.047 A 
ATOM     31  C   UNL     1       7.788  13.024  10.570  0.00  0.00    +0.042 A 
ATOM     32  C   UNL     1       8.520  13.118  11.753  0.00  0.00    +0.023 A 
BRANCH  28   5
ATOM      5  O   UNL     1      11.644  11.496  10.783  0.00  0.00    -0.495 OA
ATOM     33  C   UNL     1      12.679  12.422  11.109  0.00  0.00    +0.277 C 
ENDBRANCH  28   5
ENDBRANCH  25  27
BRANCH  15  14
ATOM     14  C   UNL     1      11.130   3.952   1.726  0.00  0.00    +0.102 C 
BRANCH  14  13
ATOM     13  C   UNL     1      12.436   4.113   0.928  0.00  0.00    -0.029 C 
ATOM     19  C   UNL     1      12.914   5.576   0.935  0.00  0.00    +0.011 C 
ATOM     20  C   UNL     1      12.261   3.639  -0.525  0.00  0.00    +0.011 C 
ATOM     21  C   UNL     1      13.511   3.242   1.603  0.00  0.00    +0.011 C 
ENDBRANCH  14  13
ENDBRANCH  15  14
TORSDOF 4
ENDMDL
MODEL 7
REMARK VINA RESULT:      -6.2     28.028     31.802
REMARK  Name = 26763567
REMARK  8 active torsions:
REMARK  status: ('A' for Active; 'I' for Inactive)
REMARK    1  A    between atoms: O_5  and  C_28
REMARK    2  A    between atoms: O_5  and  C_33
REMARK    3  A    between atoms: C_13  and  C_14
REMARK    4  A    between atoms: C_13  and  C_19
REMARK    5  A    between atoms: C_13  and  C_20
REMARK    6  A    between atoms: C_13  and  C_21
REMARK    7  A    between atoms: C_14  and  C_15
REMARK    8  A    between atoms: C_25  and  C_27
REMARK                            x       y       z     vdW  Elec       q    Type
REMARK                         _______ _______ _______ _____ _____    ______ ____
ROOT
ATOM      2  O   UNL     1     -13.313  -9.010  17.415  0.00  0.00    -0.276 OA
ATOM      3  O   UNL     1      -9.455  -8.275  17.838  0.00  0.00    -0.273 OA
ATOM      4  O   UNL     1      -7.379  -9.731  13.200  0.00  0.00    -0.270 OA
ATOM      6  N   UNL     1     -11.607  -8.868  15.844  0.00  0.00    -0.298 N 
ATOM      7  N   UNL     1      -8.978  -9.623  14.868  0.00  0.00    -0.283 N 
ATOM      8  N   UNL     1      -7.423  -9.171  17.344  0.00  0.00    -0.283 N 
ATOM      9  C   UNL     1      -9.422 -10.039  16.191  0.00  0.00    +0.180 C 
ATOM     10  C   UNL     1     -10.950 -10.091  16.314  0.00  0.00    +0.139 C 
ATOM     11  C   UNL     1     -10.975  -8.169  14.720  0.00  0.00    +0.127 C 
ATOM     12  C   UNL     1      -9.984  -9.049  13.973  0.00  0.00    +0.128 C 
ATOM     15  C   UNL     1     -12.775  -8.430  16.469  0.00  0.00    +0.216 C 
ATOM     16  C   UNL     1      -8.785  -9.064  17.169  0.00  0.00    +0.239 C 
ATOM     17  C   UNL     1      -7.708  -9.905  14.374  0.00  0.00    +0.249 C 
ATOM     18  C   UNL     1      -6.671 -10.417  15.308  0.00  0.00    +0.059 A 
ATOM     22  C   UNL     1      -6.513  -9.981  16.633  0.00  0.00    +0.046 A 
ATOM     23  C   UNL     1      -5.696 -11.259  14.739  0.00  0.00    +0.023 A 
ATOM     24  C   UNL     1      -5.346 -10.340  17.333  0.00  0.00    +0.024 A 
ATOM     25  C   UNL     1      -4.570 -11.645  15.465  0.00  0.00    -0.014 A 
ATOM     26  C   UNL     1      -4.388 -11.173  16.759  0.00  0.00    +0.010 A 
ATOM     34  H   UNL     1      -7.045  -8.678  18.149  0.00  0.00    +0.155 HD
ENDROOT
BRANCH  25  27
ATOM      1 CL   UNL     1      -3.165 -16.440  14.214  0.00  0.00    -0.084 Cl
ATOM     27  C   UNL     1      -3.581 -12.514  14.864  0.00  0.00    +0.025 A 
ATOM     28  C   UNL     1      -2.407 -11.994  14.322  0.00  0.00    +0.128 A 
ATOM     29  C   UNL     1      -3.816 -13.888  14.831  0.00  0.00    +0.032 A 
ATOM     30  C   UNL     1      -1.466 -12.848  13.747  0.00  0.00    +0.047 A 
ATOM     31  C   UNL     1      -2.876 -14.743  14.256  0.00  0.00    +0.042 A 
ATOM     32  C   UNL     1      -1.701 -14.223  13.714  0.00  0.00    +0.023 A 
BRANCH  28   5
ATOM      5  O   UNL     1      -2.151 -10.655  14.341  0.00  0.00    -0.495 OA
ATOM     33  C   UNL     1      -1.130 -10.203  15.228  0.00  0.00    +0.277 C 
ENDBRANCH  28   5
ENDBRANCH  25  27
BRANCH  15  14
ATOM     14  C   UNL     1     -13.390  -7.166  15.921  0.00  0.00    +0.102 C 
BRANCH  14  13
ATOM     13  C   UNL     1     -14.696  -7.423  15.150  0.00  0.00    -0.029 C 
ATOM     19  C   UNL     1     -14.702  -8.827  14.521  0.00  0.00    +0.011 C 
ATOM     20  C   UNL     1     -14.908  -6.369  14.049  0.00  0.00    +0.011 C 
ATOM     21  C   UNL     1     -15.862  -7.329  16.151  0.00  0.00    +0.011 C 
ENDBRANCH  14  13
ENDBRANCH  15  14
TORSDOF 4
ENDMDL
MODEL 8
REMARK VINA RESULT:      -6.1     15.476     18.648
REMARK  Name = 26763567
REMARK  8 active torsions:
REMARK  status: ('A' for Active; 'I' for Inactive)
REMARK    1  A    between atoms: O_5  and  C_28
REMARK    2  A    between atoms: O_5  and  C_33
REMARK    3  A    between atoms: C_13  and  C_14
REMARK    4  A    between atoms: C_13  and  C_19
REMARK    5  A    between atoms: C_13  and  C_20
REMARK    6  A    between atoms: C_13  and  C_21
REMARK    7  A    between atoms: C_14  and  C_15
REMARK    8  A    between atoms: C_25  and  C_27
REMARK                            x       y       z     vdW  Elec       q    Type
REMARK                         _______ _______ _______ _____ _____    ______ ____
ROOT
ATOM      2  O   UNL     1       8.303  12.606   7.788  0.00  0.00    -0.276 OA
ATOM      3  O   UNL     1       9.197   8.758   7.783  0.00  0.00    -0.273 OA
ATOM      4  O   UNL     1      13.578   8.487   4.837  0.00  0.00    -0.270 OA
ATOM      6  N   UNL     1      10.252  11.494   7.182  0.00  0.00    -0.298 N 
ATOM      7  N   UNL     1      11.644   9.435   5.681  0.00  0.00    -0.283 N 
ATOM      8  N   UNL     1       9.943   7.120   6.390  0.00  0.00    -0.283 N 
ATOM      9  C   UNL     1      10.189   9.476   5.703  0.00  0.00    +0.180 C 
ATOM     10  C   UNL     1       9.640  10.876   6.002  0.00  0.00    +0.139 C 
ATOM     11  C   UNL     1      11.661  11.178   7.437  0.00  0.00    +0.127 C 
ATOM     12  C   UNL     1      12.356  10.597   6.214  0.00  0.00    +0.128 C 
ATOM     15  C   UNL     1       9.488  12.334   7.994  0.00  0.00    +0.216 C 
ATOM     16  C   UNL     1       9.760   8.443   6.732  0.00  0.00    +0.239 C 
ATOM     17  C   UNL     1      12.362   8.438   5.027  0.00  0.00    +0.249 C 
ATOM     18  C   UNL     1      11.641   7.226   4.555  0.00  0.00    +0.059 A 
ATOM     22  C   UNL     1      10.604   6.596   5.259  0.00  0.00    +0.046 A 
ATOM     23  C   UNL     1      12.181   6.598   3.416  0.00  0.00    +0.023 A 
ATOM     24  C   UNL     1      10.178   5.319   4.848  0.00  0.00    +0.024 A 
ATOM     25  C   UNL     1      11.713   5.355   2.993  0.00  0.00    -0.014 A 
ATOM     26  C   UNL     1      10.720   4.709   3.718  0.00  0.00    +0.010 A 
ATOM     34  H   UNL     1       9.458   6.445   6.975  0.00  0.00    +0.155 HD
ENDROOT
BRANCH  25  27
ATOM      1 CL   UNL     1      15.883   3.462   0.636  0.00  0.00    -0.084 Cl
ATOM     27  C   UNL     1      12.276   4.729   1.817  0.00  0.00    +0.025 A 
ATOM     28  C   UNL     1      11.476   4.421   0.717  0.00  0.00    +0.128 A 
ATOM     29  C   UNL     1      13.639   4.432   1.792  0.00  0.00    +0.032 A 
ATOM     30  C   UNL     1      12.038   3.817  -0.408  0.00  0.00    +0.047 A 
ATOM     31  C   UNL     1      14.202   3.828   0.667  0.00  0.00    +0.042 A 
ATOM     32  C   UNL     1      13.401   3.521  -0.432  0.00  0.00    +0.023 A 
BRANCH  28   5
ATOM      5  O   UNL     1      10.141   4.699   0.714  0.00  0.00    -0.495 OA
ATOM     33  C   UNL     1       9.725   5.864   0.004  0.00  0.00    +0.277 C 
ENDBRANCH  28   5
ENDBRANCH  25  27
BRANCH  15  14
ATOM     14  C   UNL     1      10.195  12.933   9.185  0.00  0.00    +0.102 C 
BRANCH  14  13
ATOM     13  C   UNL     1       9.667  12.394  10.526  0.00  0.00    -0.029 C 
ATOM     19  C   UNL     1      10.821  12.112  11.504  0.00  0.00    +0.011 C 
ATOM     20  C   UNL     1       8.843  11.111  10.323  0.00  0.00    +0.011 C 
ATOM     21  C   UNL     1       8.754  13.471  11.141  0.00  0.00    +0.011 C 
ENDBRANCH  14  13
ENDBRANCH  15  14
TORSDOF 4
ENDMDL
MODEL 9
REMARK VINA RESULT:      -6.1     16.251     20.381
REMARK  Name = 26763567
REMARK  8 active torsions:
REMARK  status: ('A' for Active; 'I' for Inactive)
REMARK    1  A    between atoms: O_5  and  C_28
REMARK    2  A    between atoms: O_5  and  C_33
REMARK    3  A    between atoms: C_13  and  C_14
REMARK    4  A    between atoms: C_13  and  C_19
REMARK    5  A    between atoms: C_13  and  C_20
REMARK    6  A    between atoms: C_13  and  C_21
REMARK    7  A    between atoms: C_14  and  C_15
REMARK    8  A    between atoms: C_25  and  C_27
REMARK                            x       y       z     vdW  Elec       q    Type
REMARK                         _______ _______ _______ _____ _____    ______ ____
ROOT
ATOM      2  O   UNL     1      13.152   3.071  -0.397  0.00  0.00    -0.276 OA
ATOM      3  O   UNL     1      10.969   3.467   2.872  0.00  0.00    -0.273 OA
ATOM      4  O   UNL     1       9.678   8.593   2.910  0.00  0.00    -0.270 OA
ATOM      6  N   UNL     1      11.741   4.783   0.297  0.00  0.00    -0.298 N 
ATOM      7  N   UNL     1      10.866   6.710   2.285  0.00  0.00    -0.283 N 
ATOM      8  N   UNL     1      10.640   4.897   4.612  0.00  0.00    -0.283 N 
ATOM      9  C   UNL     1      11.858   5.698   2.623  0.00  0.00    +0.180 C 
ATOM     10  C   UNL     1      12.622   5.185   1.397  0.00  0.00    +0.139 C 
ATOM     11  C   UNL     1      10.500   5.546   0.133  0.00  0.00    +0.127 C 
ATOM     12  C   UNL     1      10.535   6.876   0.870  0.00  0.00    +0.128 C 
ATOM     15  C   UNL     1      12.111   3.719  -0.527  0.00  0.00    +0.216 C 
ATOM     16  C   UNL     1      11.098   4.598   3.347  0.00  0.00    +0.239 C 
ATOM     17  C   UNL     1      10.368   7.618   3.213  0.00  0.00    +0.249 C 
ATOM     18  C   UNL     1      10.647   7.399   4.657  0.00  0.00    +0.059 A 
ATOM     22  C   UNL     1      10.665   6.140   5.278  0.00  0.00    +0.046 A 
ATOM     23  C   UNL     1      10.718   8.559   5.451  0.00  0.00    +0.023 A 
ATOM     24  C   UNL     1      10.681   6.073   6.683  0.00  0.00    +0.024 A 
ATOM     25  C   UNL     1      10.783   8.474   6.841  0.00  0.00    -0.014 A 
ATOM     26  C   UNL     1      10.750   7.230   7.458  0.00  0.00    +0.010 A 
ATOM     34  H   UNL     1      10.336   4.100   5.167  0.00  0.00    +0.155 HD
ENDROOT
BRANCH  25  27
ATOM      1 CL   UNL     1       8.690  11.403  10.525  0.00  0.00    -0.084 Cl
ATOM     27  C   UNL     1      10.859   9.678   7.639  0.00  0.00    +0.025 A 
ATOM     28  C   UNL     1      11.912  10.578   7.476  0.00  0.00    +0.128 A 
ATOM     29  C   UNL     1       9.863   9.932   8.582  0.00  0.00    +0.032 A 
ATOM     30  C   UNL     1      11.968  11.734   8.256  0.00  0.00    +0.047 A 
ATOM     31  C   UNL     1       9.919  11.088   9.361  0.00  0.00    +0.042 A 
ATOM     32  C   UNL     1      10.971  11.988   9.198  0.00  0.00    +0.023 A 
BRANCH  28   5
ATOM      5  O   UNL     1      12.899  10.355   6.564  0.00  0.00    -0.495 OA
ATOM     33  C   UNL     1      14.225  10.715   6.945  0.00  0.00    +0.277 C 
ENDBRANCH  28   5
ENDBRANCH  25  27
BRANCH  15  14
ATOM     14  C   UNL     1      11.151   3.373  -1.639  0.00  0.00    +0.102 C 
BRANCH  14  13
ATOM     13  C   UNL     1      11.678   3.771  -3.028  0.00  0.00    -0.029 C 
ATOM     19  C   UNL     1      12.554   2.659  -3.630  0.00  0.00    +0.011 C 
ATOM     20  C   UNL     1      12.484   5.079  -2.963  0.00  0.00    +0.011 C 
ATOM     21  C   UNL     1      10.462   3.990  -3.949  0.00  0.00    +0.011 C 
ENDBRANCH  14  13
ENDBRANCH  15  14
TORSDOF 4
ENDMDL
MODEL 10
REMARK VINA RESULT:      -6.0     18.695     22.612
REMARK  Name = 26763567
REMARK  8 active torsions:
REMARK  status: ('A' for Active; 'I' for Inactive)
REMARK    1  A    between atoms: O_5  and  C_28
REMARK    2  A    between atoms: O_5  and  C_33
REMARK    3  A    between atoms: C_13  and  C_14
REMARK    4  A    between atoms: C_13  and  C_19
REMARK    5  A    between atoms: C_13  and  C_20
REMARK    6  A    between atoms: C_13  and  C_21
REMARK    7  A    between atoms: C_14  and  C_15
REMARK    8  A    between atoms: C_25  and  C_27
REMARK                            x       y       z     vdW  Elec       q    Type
REMARK                         _______ _______ _______ _____ _____    ______ ____
ROOT
ATOM      2  O   UNL     1      10.921   2.644  -4.405  0.00  0.00    -0.276 OA
ATOM      3  O   UNL     1      10.407   5.966  -2.330  0.00  0.00    -0.273 OA
ATOM      4  O   UNL     1      13.425   5.256   1.952  0.00  0.00    -0.270 OA
ATOM      6  N   UNL     1      12.121   3.530  -2.623  0.00  0.00    -0.298 N 
ATOM      7  N   UNL     1      12.249   4.636   0.058  0.00  0.00    -0.283 N 
ATOM      8  N   UNL     1      10.128   6.685  -0.189  0.00  0.00    -0.283 N 
ATOM      9  C   UNL     1      10.963   4.397  -0.581  0.00  0.00    +0.180 C 
ATOM     10  C   UNL     1      11.032   3.316  -1.666  0.00  0.00    +0.139 C 
ATOM     11  C   UNL     1      13.349   4.139  -2.101  0.00  0.00    +0.127 C 
ATOM     12  C   UNL     1      13.433   4.066  -0.584  0.00  0.00    +0.128 C 
ATOM     15  C   UNL     1      11.949   3.156  -3.957  0.00  0.00    +0.216 C 
ATOM     16  C   UNL     1      10.511   5.745  -1.122  0.00  0.00    +0.239 C 
ATOM     17  C   UNL     1      12.369   5.218   1.316  0.00  0.00    +0.249 C 
ATOM     18  C   UNL     1      11.177   5.862   1.929  0.00  0.00    +0.059 A 
ATOM     22  C   UNL     1      10.227   6.609   1.216  0.00  0.00    +0.046 A 
ATOM     23  C   UNL     1      11.129   5.849   3.336  0.00  0.00    +0.023 A 
ATOM     24  C   UNL     1       9.294   7.383   1.930  0.00  0.00    +0.024 A 
ATOM     25  C   UNL     1      10.166   6.584   4.027  0.00  0.00    -0.014 A 
ATOM     26  C   UNL     1       9.256   7.363   3.323  0.00  0.00    +0.010 A 
ATOM     34  H   UNL     1       9.625   7.488  -0.558  0.00  0.00    +0.155 HD
ENDROOT
BRANCH  25  27
ATOM      1 CL   UNL     1       9.582   3.793   8.317  0.00  0.00    -0.084 Cl
ATOM     27  C   UNL     1      10.130   6.554   5.473  0.00  0.00    +0.025 A 
ATOM     28  C   UNL     1      10.320   7.717   6.217  0.00  0.00    +0.128 A 
ATOM     29  C   UNL     1       9.902   5.340   6.121  0.00  0.00    +0.032 A 
ATOM     30  C   UNL     1      10.282   7.668   7.611  0.00  0.00    +0.047 A 
ATOM     31  C   UNL     1       9.864   5.290   7.515  0.00  0.00    +0.042 A 
ATOM     32  C   UNL     1      10.054   6.454   8.259  0.00  0.00    +0.023 A 
BRANCH  28   5
ATOM      5  O   UNL     1      10.545   8.917   5.610  0.00  0.00    -0.495 OA
ATOM     33  C   UNL     1       9.686   9.996   5.972  0.00  0.00    +0.277 C 
ENDBRANCH  28   5
ENDBRANCH  25  27
BRANCH  15  14
ATOM     14  C   UNL     1      13.120   3.406  -4.875  0.00  0.00    +0.102 C 
BRANCH  14  13
ATOM     13  C   UNL     1      12.840   4.506  -5.914  0.00  0.00    -0.029 C 
ATOM     19  C   UNL     1      11.818   5.525  -5.382  0.00  0.00    +0.011 C 
ATOM     20  C   UNL     1      12.325   3.906  -7.234  0.00  0.00    +0.011 C 
ATOM     21  C   UNL     1      14.166   5.240  -6.192  0.00  0.00    +0.011 C 
ENDBRANCH  14  13
ENDBRANCH  15  14
TORSDOF 4
ENDMDL
