MODEL 1
REMARK VINA RESULT:      -6.0      0.000      0.000
REMARK  Name = 11912556
REMARK  10 active torsions:
REMARK  status: ('A' for Active; 'I' for Inactive)
REMARK    1  A    between atoms: O_3  and  C_23
REMARK    2  A    between atoms: O_3  and  C_27
REMARK    3  A    between atoms: N_7  and  C_24
REMARK    4  A    between atoms: C_8  and  C_12
REMARK    5  A    between atoms: C_9  and  C_14
REMARK    6  A    between atoms: C_12  and  C_15
REMARK    7  A    between atoms: C_14  and  C_21
REMARK    8  A    between atoms: C_18  and  C_23
REMARK    9  A    between atoms: C_24  and  C_25
REMARK   10  A    between atoms: C_24  and  C_26
REMARK                            x       y       z     vdW  Elec       q    Type
REMARK                         _______ _______ _______ _____ _____    ______ ____
ROOT
ATOM      2  O   UNL     1      -7.378 -11.343  19.180  0.00  0.00    -0.253 OA
ATOM      5  N   UNL     1      -6.136 -10.299  17.524  0.00  0.00    -0.285 N 
ATOM      7  N   UNL     1      -8.500 -10.264  17.497  0.00  0.00    -0.297 N 
ATOM      8  C   UNL     1      -3.864 -10.771  15.794  0.00  0.00    +0.004 C 
ATOM      9  C   UNL     1      -5.225 -10.300  15.218  0.00  0.00    +0.010 C 
ATOM     10  C   UNL     1      -4.035 -11.515  17.132  0.00  0.00    +0.023 C 
ATOM     11  C   UNL     1      -5.994  -9.510  16.291  0.00  0.00    +0.113 C 
ATOM     13  C   UNL     1      -4.862 -10.697  18.123  0.00  0.00    +0.109 C 
ATOM     22  C   UNL     1      -7.340 -10.677  18.140  0.00  0.00    +0.302 C 
ATOM     28  H   UNL     1      -8.468  -9.747  16.631  0.00  0.00    +0.150 HD
ENDROOT
BRANCH   7  24
ATOM     24  C   UNL     1      -9.816 -10.584  18.003  0.00  0.00    +0.068 C 
ATOM     25  C   UNL     1     -10.681  -9.332  18.074  0.00  0.00    +0.027 C 
ATOM     26  C   UNL     1     -10.468 -11.656  17.141  0.00  0.00    +0.027 C 
ENDBRANCH   7  24
BRANCH   9  14
ATOM     14  C   UNL     1      -6.095 -11.435  14.664  0.00  0.00    +0.002 C 
ATOM     21  C   UNL     1      -7.374 -10.897  14.057  0.00  0.00    +0.004 C 
ENDBRANCH   9  14
BRANCH   8  12
ATOM     12  C   UNL     1      -3.055 -11.615  14.809  0.00  0.00    +0.100 C 
BRANCH  12  15
ATOM      1  O   UNL     1      -1.400  -9.966  14.418  0.00  0.00    -0.276 OA
ATOM      6  N   UNL     1      -2.486 -10.808  12.545  0.00  0.00    -0.301 N 
ATOM     15  C   UNL     1      -2.236 -10.721  13.914  0.00  0.00    +0.216 C 
ATOM     16  C   UNL     1      -1.703 -10.001  11.608  0.00  0.00    +0.108 C 
ATOM     17  C   UNL     1      -3.472 -11.696  11.916  0.00  0.00    +0.108 C 
ATOM     18  C   UNL     1      -3.652 -10.054  10.009  0.00  0.00    +0.101 C 
ATOM     19  C   UNL     1      -2.616  -9.170  10.709  0.00  0.00    +0.033 C 
ATOM     20  C   UNL     1      -4.423 -10.900  11.024  0.00  0.00    +0.033 C 
BRANCH  18  23
ATOM      4  O   UNL     1      -5.123  -8.178   9.678  0.00  0.00    -0.251 OA
ATOM     23  C   UNL     1      -4.599  -9.191   9.234  0.00  0.00    +0.310 C 
BRANCH  23   3
ATOM      3  O   UNL     1      -4.773  -9.711   7.985  0.00  0.00    -0.468 OA
ATOM     27  C   UNL     1      -6.133  -9.864   7.566  0.00  0.00    +0.280 C 
ENDBRANCH  23   3
ENDBRANCH  18  23
ENDBRANCH  12  15
ENDBRANCH   8  12
TORSDOF 6
ENDMDL
MODEL 2
REMARK VINA RESULT:      -5.7     28.270     30.817
REMARK  Name = 11912556
REMARK  10 active torsions:
REMARK  status: ('A' for Active; 'I' for Inactive)
REMARK    1  A    between atoms: O_3  and  C_23
REMARK    2  A    between atoms: O_3  and  C_27
REMARK    3  A    between atoms: N_7  and  C_24
REMARK    4  A    between atoms: C_8  and  C_12
REMARK    5  A    between atoms: C_9  and  C_14
REMARK    6  A    between atoms: C_12  and  C_15
REMARK    7  A    between atoms: C_14  and  C_21
REMARK    8  A    between atoms: C_18  and  C_23
REMARK    9  A    between atoms: C_24  and  C_25
REMARK   10  A    between atoms: C_24  and  C_26
REMARK                            x       y       z     vdW  Elec       q    Type
REMARK                         _______ _______ _______ _____ _____    ______ ____
ROOT
ATOM      2  O   UNL     1      14.666   7.124  17.704  0.00  0.00    -0.253 OA
ATOM      5  N   UNL     1      15.634   6.781  19.782  0.00  0.00    -0.285 N 
ATOM      7  N   UNL     1      13.819   8.270  19.500  0.00  0.00    -0.297 N 
ATOM      8  C   UNL     1      18.235   6.602  21.040  0.00  0.00    +0.004 C 
ATOM      9  C   UNL     1      17.144   7.559  21.589  0.00  0.00    +0.010 C 
ATOM     10  C   UNL     1      18.034   6.303  19.543  0.00  0.00    +0.023 C 
ATOM     11  C   UNL     1      15.751   7.013  21.230  0.00  0.00    +0.113 C 
ATOM     13  C   UNL     1      16.611   5.828  19.254  0.00  0.00    +0.109 C 
ATOM     22  C   UNL     1      14.702   7.371  18.914  0.00  0.00    +0.302 C 
ATOM     28  H   UNL     1      13.870   8.495  20.482  0.00  0.00    +0.150 HD
ENDROOT
BRANCH   7  24
ATOM     24  C   UNL     1      12.809   8.965  18.735  0.00  0.00    +0.068 C 
ATOM     25  C   UNL     1      11.438   8.789  19.375  0.00  0.00    +0.027 C 
ATOM     26  C   UNL     1      13.168  10.439  18.599  0.00  0.00    +0.027 C 
ENDBRANCH   7  24
BRANCH   9  14
ATOM     14  C   UNL     1      17.289   9.009  21.111  0.00  0.00    +0.002 C 
ATOM     21  C   UNL     1      16.184   9.882  21.670  0.00  0.00    +0.004 C 
ENDBRANCH   9  14
BRANCH   8  12
ATOM     12  C   UNL     1      19.656   7.099  21.304  0.00  0.00    +0.100 C 
BRANCH  12  15
ATOM      1  O   UNL     1      20.135   6.386  23.512  0.00  0.00    -0.276 OA
ATOM      6  N   UNL     1      21.172   5.211  21.797  0.00  0.00    -0.301 N 
ATOM     15  C   UNL     1      20.338   6.204  22.308  0.00  0.00    +0.216 C 
ATOM     16  C   UNL     1      21.838   4.278  22.707  0.00  0.00    +0.108 C 
ATOM     17  C   UNL     1      21.433   4.971  20.372  0.00  0.00    +0.108 C 
ATOM     18  C   UNL     1      23.675   4.000  21.002  0.00  0.00    +0.101 C 
ATOM     19  C   UNL     1      23.347   4.271  22.473  0.00  0.00    +0.033 C 
ATOM     20  C   UNL     1      22.934   4.979  20.088  0.00  0.00    +0.033 C 
BRANCH  18  23
ATOM      4  O   UNL     1      25.985   3.959  21.674  0.00  0.00    -0.251 OA
ATOM     23  C   UNL     1      25.152   4.119  20.791  0.00  0.00    +0.310 C 
BRANCH  23   3
ATOM      3  O   UNL     1      25.404   4.427  19.487  0.00  0.00    -0.468 OA
ATOM     27  C   UNL     1      26.659   3.963  18.977  0.00  0.00    +0.280 C 
ENDBRANCH  23   3
ENDBRANCH  18  23
ENDBRANCH  12  15
ENDBRANCH   8  12
TORSDOF 6
ENDMDL
MODEL 3
REMARK VINA RESULT:      -5.5     19.585     22.382
REMARK  Name = 11912556
REMARK  10 active torsions:
REMARK  status: ('A' for Active; 'I' for Inactive)
REMARK    1  A    between atoms: O_3  and  C_23
REMARK    2  A    between atoms: O_3  and  C_27
REMARK    3  A    between atoms: N_7  and  C_24
REMARK    4  A    between atoms: C_8  and  C_12
REMARK    5  A    between atoms: C_9  and  C_14
REMARK    6  A    between atoms: C_12  and  C_15
REMARK    7  A    between atoms: C_14  and  C_21
REMARK    8  A    between atoms: C_18  and  C_23
REMARK    9  A    between atoms: C_24  and  C_25
REMARK   10  A    between atoms: C_24  and  C_26
REMARK                            x       y       z     vdW  Elec       q    Type
REMARK                         _______ _______ _______ _____ _____    ______ ____
ROOT
ATOM      2  O   UNL     1     -11.664  12.850  18.759  0.00  0.00    -0.253 OA
ATOM      5  N   UNL     1     -11.072  10.746  19.534  0.00  0.00    -0.285 N 
ATOM      7  N   UNL     1     -10.011  11.709  17.653  0.00  0.00    -0.297 N 
ATOM      8  C   UNL     1     -12.273   8.268  20.429  0.00  0.00    +0.004 C 
ATOM      9  C   UNL     1     -11.192   8.279  19.316  0.00  0.00    +0.010 C 
ATOM     10  C   UNL     1     -13.023   9.612  20.510  0.00  0.00    +0.023 C 
ATOM     11  C   UNL     1     -10.282   9.507  19.493  0.00  0.00    +0.113 C 
ATOM     13  C   UNL     1     -12.053  10.787  20.619  0.00  0.00    +0.109 C 
ATOM     22  C   UNL     1     -10.961  11.838  18.659  0.00  0.00    +0.302 C 
ATOM     28  H   UNL     1      -9.460  10.870  17.554  0.00  0.00    +0.150 HD
ENDROOT
BRANCH   7  24
ATOM     24  C   UNL     1      -9.786  12.744  16.670  0.00  0.00    +0.068 C 
ATOM     25  C   UNL     1      -8.295  13.013  16.507  0.00  0.00    +0.027 C 
ATOM     26  C   UNL     1     -10.425  12.361  15.342  0.00  0.00    +0.027 C 
ENDBRANCH   7  24
BRANCH   9  14
ATOM     14  C   UNL     1     -11.761   8.236  17.892  0.00  0.00    +0.002 C 
ATOM     21  C   UNL     1     -10.652   8.210  16.861  0.00  0.00    +0.004 C 
ENDBRANCH   9  14
BRANCH   8  12
ATOM     12  C   UNL     1     -13.259   7.109  20.296  0.00  0.00    +0.100 C 
BRANCH  12  15
ATOM      1  O   UNL     1     -12.045   5.737  21.798  0.00  0.00    -0.276 OA
ATOM      6  N   UNL     1     -14.328   5.927  22.184  0.00  0.00    -0.301 N 
ATOM     15  C   UNL     1     -13.148   6.197  21.492  0.00  0.00    +0.216 C 
ATOM     16  C   UNL     1     -14.295   5.083  23.379  0.00  0.00    +0.108 C 
ATOM     17  C   UNL     1     -15.653   6.459  21.844  0.00  0.00    +0.108 C 
ATOM     18  C   UNL     1     -16.685   4.424  22.922  0.00  0.00    +0.101 C 
ATOM     19  C   UNL     1     -15.277   3.921  23.253  0.00  0.00    +0.033 C 
ATOM     20  C   UNL     1     -16.665   5.325  21.685  0.00  0.00    +0.033 C 
BRANCH  18  23
ATOM      4  O   UNL     1     -17.198   2.133  22.391  0.00  0.00    -0.251 OA
ATOM     23  C   UNL     1     -17.590   3.254  22.690  0.00  0.00    +0.310 C 
BRANCH  23   3
ATOM      3  O   UNL     1     -18.887   3.638  22.863  0.00  0.00    -0.468 OA
ATOM     27  C   UNL     1     -19.209   4.148  24.161  0.00  0.00    +0.280 C 
ENDBRANCH  23   3
ENDBRANCH  18  23
ENDBRANCH  12  15
ENDBRANCH   8  12
TORSDOF 6
ENDMDL
MODEL 4
REMARK VINA RESULT:      -5.3      1.533      2.030
REMARK  Name = 11912556
REMARK  10 active torsions:
REMARK  status: ('A' for Active; 'I' for Inactive)
REMARK    1  A    between atoms: O_3  and  C_23
REMARK    2  A    between atoms: O_3  and  C_27
REMARK    3  A    between atoms: N_7  and  C_24
REMARK    4  A    between atoms: C_8  and  C_12
REMARK    5  A    between atoms: C_9  and  C_14
REMARK    6  A    between atoms: C_12  and  C_15
REMARK    7  A    between atoms: C_14  and  C_21
REMARK    8  A    between atoms: C_18  and  C_23
REMARK    9  A    between atoms: C_24  and  C_25
REMARK   10  A    between atoms: C_24  and  C_26
REMARK                            x       y       z     vdW  Elec       q    Type
REMARK                         _______ _______ _______ _____ _____    ______ ____
ROOT
ATOM      2  O   UNL     1      -9.019 -11.413  20.100  0.00  0.00    -0.253 OA
ATOM      5  N   UNL     1      -7.489 -10.510  18.611  0.00  0.00    -0.285 N 
ATOM      7  N   UNL     1      -9.817 -10.350  18.231  0.00  0.00    -0.297 N 
ATOM      8  C   UNL     1      -5.020 -11.179  17.255  0.00  0.00    +0.004 C 
ATOM      9  C   UNL     1      -6.252 -10.661  16.467  0.00  0.00    +0.010 C 
ATOM     10  C   UNL     1      -5.429 -11.852  18.578  0.00  0.00    +0.023 C 
ATOM     11  C   UNL     1      -7.121  -9.784  17.385  0.00  0.00    +0.113 C 
ATOM     13  C   UNL     1      -6.342 -10.949  19.406  0.00  0.00    +0.109 C 
ATOM     22  C   UNL     1      -8.790 -10.796  19.054  0.00  0.00    +0.302 C 
ATOM     28  H   UNL     1      -9.628  -9.874  17.362  0.00  0.00    +0.150 HD
ENDROOT
BRANCH   7  24
ATOM     24  C   UNL     1     -11.209 -10.577  18.547  0.00  0.00    +0.068 C 
ATOM     25  C   UNL     1     -12.042  -9.347  18.210  0.00  0.00    +0.027 C 
ATOM     26  C   UNL     1     -11.725 -11.809  17.816  0.00  0.00    +0.027 C 
ENDBRANCH   7  24
BRANCH   9  14
ATOM     14  C   UNL     1      -7.097 -11.771  15.831  0.00  0.00    +0.002 C 
ATOM     21  C   UNL     1      -7.987 -11.222  14.736  0.00  0.00    +0.004 C 
ENDBRANCH   9  14
BRANCH   8  12
ATOM     12  C   UNL     1      -4.128 -12.107  16.432  0.00  0.00    +0.100 C 
BRANCH  12  15
ATOM      1  O   UNL     1      -2.562 -10.343  16.203  0.00  0.00    -0.276 OA
ATOM      6  N   UNL     1      -2.878 -11.696  14.341  0.00  0.00    -0.301 N 
ATOM     15  C   UNL     1      -3.118 -11.299  15.656  0.00  0.00    +0.216 C 
ATOM     16  C   UNL     1      -1.883 -10.986  13.535  0.00  0.00    +0.108 C 
ATOM     17  C   UNL     1      -3.523 -12.827  13.663  0.00  0.00    +0.108 C 
ATOM     18  C   UNL     1      -3.159 -11.647  11.463  0.00  0.00    +0.101 C 
ATOM     19  C   UNL     1      -2.492 -10.497  12.223  0.00  0.00    +0.033 C 
ATOM     20  C   UNL     1      -4.167 -12.377  12.353  0.00  0.00    +0.033 C 
BRANCH  18  23
ATOM      4  O   UNL     1      -4.108 -11.777   9.255  0.00  0.00    -0.251 OA
ATOM     23  C   UNL     1      -3.844 -11.108  10.246  0.00  0.00    +0.310 C 
BRANCH  23   3
ATOM      3  O   UNL     1      -4.118  -9.784  10.424  0.00  0.00    -0.468 OA
ATOM     27  C   UNL     1      -4.028  -8.973   9.248  0.00  0.00    +0.280 C 
ENDBRANCH  23   3
ENDBRANCH  18  23
ENDBRANCH  12  15
ENDBRANCH   8  12
TORSDOF 6
ENDMDL
MODEL 5
REMARK VINA RESULT:      -5.2     28.309     30.916
REMARK  Name = 11912556
REMARK  10 active torsions:
REMARK  status: ('A' for Active; 'I' for Inactive)
REMARK    1  A    between atoms: O_3  and  C_23
REMARK    2  A    between atoms: O_3  and  C_27
REMARK    3  A    between atoms: N_7  and  C_24
REMARK    4  A    between atoms: C_8  and  C_12
REMARK    5  A    between atoms: C_9  and  C_14
REMARK    6  A    between atoms: C_12  and  C_15
REMARK    7  A    between atoms: C_14  and  C_21
REMARK    8  A    between atoms: C_18  and  C_23
REMARK    9  A    between atoms: C_24  and  C_25
REMARK   10  A    between atoms: C_24  and  C_26
REMARK                            x       y       z     vdW  Elec       q    Type
REMARK                         _______ _______ _______ _____ _____    ______ ____
ROOT
ATOM      2  O   UNL     1      22.785   7.240  21.053  0.00  0.00    -0.253 OA
ATOM      5  N   UNL     1      20.890   8.119  22.060  0.00  0.00    -0.285 N 
ATOM      7  N   UNL     1      21.288   5.789  22.007  0.00  0.00    -0.297 N 
ATOM      8  C   UNL     1      18.800  10.065  21.587  0.00  0.00    +0.004 C 
ATOM      9  C   UNL     1      18.459   8.603  21.979  0.00  0.00    +0.010 C 
ATOM     10  C   UNL     1      20.177  10.168  20.904  0.00  0.00    +0.023 C 
ATOM     11  C   UNL     1      19.621   8.004  22.793  0.00  0.00    +0.113 C 
ATOM     13  C   UNL     1      21.266   9.496  21.738  0.00  0.00    +0.109 C 
ATOM     22  C   UNL     1      21.728   7.062  21.668  0.00  0.00    +0.302 C 
ATOM     28  H   UNL     1      20.410   5.643  22.482  0.00  0.00    +0.150 HD
ENDROOT
BRANCH   7  24
ATOM     24  C   UNL     1      22.036   4.600  21.665  0.00  0.00    +0.068 C 
ATOM     25  C   UNL     1      22.651   3.977  22.912  0.00  0.00    +0.027 C 
ATOM     26  C   UNL     1      21.144   3.606  20.934  0.00  0.00    +0.027 C 
ENDBRANCH   7  24
BRANCH   9  14
ATOM     14  C   UNL     1      18.119   7.700  20.788  0.00  0.00    +0.002 C 
ATOM     21  C   UNL     1      17.131   6.623  21.183  0.00  0.00    +0.004 C 
ENDBRANCH   9  14
BRANCH   8  12
ATOM     12  C   UNL     1      17.722  10.722  20.726  0.00  0.00    +0.100 C 
BRANCH  12  15
ATOM      1  O   UNL     1      16.490  11.313  22.661  0.00  0.00    -0.276 OA
ATOM      6  N   UNL     1      15.270  10.456  20.880  0.00  0.00    -0.301 N 
ATOM     15  C   UNL     1      16.444  10.861  21.515  0.00  0.00    +0.216 C 
ATOM     16  C   UNL     1      13.985  10.597  21.566  0.00  0.00    +0.108 C 
ATOM     17  C   UNL     1      15.183   9.915  19.518  0.00  0.00    +0.108 C 
ATOM     18  C   UNL     1      13.101   8.667  20.206  0.00  0.00    +0.101 C 
ATOM     19  C   UNL     1      13.240   9.265  21.608  0.00  0.00    +0.033 C 
ATOM     20  C   UNL     1      14.465   8.567  19.518  0.00  0.00    +0.033 C 
BRANCH  18  23
ATOM      4  O   UNL     1      12.348   6.545  19.356  0.00  0.00    -0.251 OA
ATOM     23  C   UNL     1      12.475   7.310  20.303  0.00  0.00    +0.310 C 
BRANCH  23   3
ATOM      3  O   UNL     1      12.081   7.080  21.588  0.00  0.00    -0.468 OA
ATOM     27  C   UNL     1      10.669   6.943  21.784  0.00  0.00    +0.280 C 
ENDBRANCH  23   3
ENDBRANCH  18  23
ENDBRANCH  12  15
ENDBRANCH   8  12
TORSDOF 6
ENDMDL
MODEL 6
REMARK VINA RESULT:      -5.1     29.591     31.354
REMARK  Name = 11912556
REMARK  10 active torsions:
REMARK  status: ('A' for Active; 'I' for Inactive)
REMARK    1  A    between atoms: O_3  and  C_23
REMARK    2  A    between atoms: O_3  and  C_27
REMARK    3  A    between atoms: N_7  and  C_24
REMARK    4  A    between atoms: C_8  and  C_12
REMARK    5  A    between atoms: C_9  and  C_14
REMARK    6  A    between atoms: C_12  and  C_15
REMARK    7  A    between atoms: C_14  and  C_21
REMARK    8  A    between atoms: C_18  and  C_23
REMARK    9  A    between atoms: C_24  and  C_25
REMARK   10  A    between atoms: C_24  and  C_26
REMARK                            x       y       z     vdW  Elec       q    Type
REMARK                         _______ _______ _______ _____ _____    ______ ____
ROOT
ATOM      2  O   UNL     1      -2.071   6.239  39.263  0.00  0.00    -0.253 OA
ATOM      5  N   UNL     1      -1.525   7.897  37.736  0.00  0.00    -0.285 N 
ATOM      7  N   UNL     1       0.046   7.117  39.321  0.00  0.00    -0.297 N 
ATOM      8  C   UNL     1      -2.583  10.350  36.621  0.00  0.00    +0.004 C 
ATOM      9  C   UNL     1      -1.157  10.297  37.232  0.00  0.00    +0.010 C 
ATOM     10  C   UNL     1      -3.501   9.265  37.214  0.00  0.00    +0.023 C 
ATOM     11  C   UNL     1      -0.604   8.865  37.124  0.00  0.00    +0.113 C 
ATOM     13  C   UNL     1      -2.857   7.882  37.130  0.00  0.00    +0.109 C 
ATOM     22  C   UNL     1      -1.239   7.028  38.802  0.00  0.00    +0.302 C 
ATOM     28  H   UNL     1       0.714   7.784  38.964  0.00  0.00    +0.150 HD
ENDROOT
BRANCH   7  24
ATOM     24  C   UNL     1       0.488   6.296  40.425  0.00  0.00    +0.068 C 
ATOM     25  C   UNL     1       1.047   4.972  39.918  0.00  0.00    +0.027 C 
ATOM     26  C   UNL     1       1.517   7.043  41.263  0.00  0.00    +0.027 C 
ENDBRANCH   7  24
BRANCH   9  14
ATOM     14  C   UNL     1      -1.081  10.792  38.681  0.00  0.00    +0.002 C 
ATOM     21  C   UNL     1      -0.284  12.076  38.778  0.00  0.00    +0.004 C 
ENDBRANCH   9  14
BRANCH   8  12
ATOM     12  C   UNL     1      -3.233  11.728  36.736  0.00  0.00    +0.100 C 
BRANCH  12  15
ATOM      1  O   UNL     1      -4.427  11.823  34.692  0.00  0.00    -0.276 OA
ATOM      6  N   UNL     1      -2.666  13.319  34.933  0.00  0.00    -0.301 N 
ATOM     15  C   UNL     1      -3.503  12.289  35.363  0.00  0.00    +0.216 C 
ATOM     16  C   UNL     1      -2.889  13.942  33.627  0.00  0.00    +0.108 C 
ATOM     17  C   UNL     1      -1.559  13.893  35.707  0.00  0.00    +0.108 C 
ATOM     18  C   UNL     1      -0.435  14.514  33.535  0.00  0.00    +0.101 C 
ATOM     19  C   UNL     1      -1.619  13.903  32.781  0.00  0.00    +0.033 C 
ATOM     20  C   UNL     1      -0.260  13.853  34.904  0.00  0.00    +0.033 C 
BRANCH  18  23
ATOM      4  O   UNL     1       1.917  14.736  33.079  0.00  0.00    -0.251 OA
ATOM     23  C   UNL     1       0.812  14.350  32.723  0.00  0.00    +0.310 C 
BRANCH  23   3
ATOM      3  O   UNL     1       0.515  13.715  31.553  0.00  0.00    -0.468 OA
ATOM     27  C   UNL     1       1.575  12.937  30.988  0.00  0.00    +0.280 C 
ENDBRANCH  23   3
ENDBRANCH  18  23
ENDBRANCH  12  15
ENDBRANCH   8  12
TORSDOF 6
ENDMDL
MODEL 7
REMARK VINA RESULT:      -5.1      2.069      7.682
REMARK  Name = 11912556
REMARK  10 active torsions:
REMARK  status: ('A' for Active; 'I' for Inactive)
REMARK    1  A    between atoms: O_3  and  C_23
REMARK    2  A    between atoms: O_3  and  C_27
REMARK    3  A    between atoms: N_7  and  C_24
REMARK    4  A    between atoms: C_8  and  C_12
REMARK    5  A    between atoms: C_9  and  C_14
REMARK    6  A    between atoms: C_12  and  C_15
REMARK    7  A    between atoms: C_14  and  C_21
REMARK    8  A    between atoms: C_18  and  C_23
REMARK    9  A    between atoms: C_24  and  C_25
REMARK   10  A    between atoms: C_24  and  C_26
REMARK                            x       y       z     vdW  Elec       q    Type
REMARK                         _______ _______ _______ _____ _____    ______ ____
ROOT
ATOM      2  O   UNL     1      -4.497  -9.140   8.524  0.00  0.00    -0.253 OA
ATOM      5  N   UNL     1      -4.804 -10.679  10.230  0.00  0.00    -0.285 N 
ATOM      7  N   UNL     1      -6.639  -9.752   9.064  0.00  0.00    -0.297 N 
ATOM      8  C   UNL     1      -3.893 -11.256  12.918  0.00  0.00    +0.004 C 
ATOM      9  C   UNL     1      -5.406 -11.161  12.587  0.00  0.00    +0.010 C 
ATOM     10  C   UNL     1      -3.039 -10.442  11.927  0.00  0.00    +0.023 C 
ATOM     11  C   UNL     1      -5.634 -11.518  11.108  0.00  0.00    +0.113 C 
ATOM     13  C   UNL     1      -3.367 -10.803  10.479  0.00  0.00    +0.109 C 
ATOM     22  C   UNL     1      -5.260  -9.814   9.223  0.00  0.00    +0.302 C 
ATOM     28  H   UNL     1      -7.263 -10.280   9.656  0.00  0.00    +0.150 HD
ENDROOT
BRANCH   7  24
ATOM     24  C   UNL     1      -7.261  -8.902   8.075  0.00  0.00    +0.068 C 
ATOM     25  C   UNL     1      -8.163  -9.718   7.157  0.00  0.00    +0.027 C 
ATOM     26  C   UNL     1      -8.036  -7.780   8.753  0.00  0.00    +0.027 C 
ENDBRANCH   7  24
BRANCH   9  14
ATOM     14  C   UNL     1      -6.032  -9.800  12.912  0.00  0.00    +0.002 C 
ATOM     21  C   UNL     1      -7.195  -9.947  13.871  0.00  0.00    +0.004 C 
ENDBRANCH   9  14
BRANCH   8  12
ATOM     12  C   UNL     1      -3.567 -10.862  14.358  0.00  0.00    +0.100 C 
BRANCH  12  15
ATOM      1  O   UNL     1      -3.709 -13.156  14.932  0.00  0.00    -0.276 OA
ATOM      6  N   UNL     1      -4.450 -11.641  16.530  0.00  0.00    -0.301 N 
ATOM     15  C   UNL     1      -3.912 -11.994  15.293  0.00  0.00    +0.216 C 
ATOM     16  C   UNL     1      -4.773 -12.681  17.508  0.00  0.00    +0.108 C 
ATOM     17  C   UNL     1      -4.702 -10.269  16.987  0.00  0.00    +0.108 C 
ATOM     18  C   UNL     1      -6.535 -11.159  18.474  0.00  0.00    +0.101 C 
ATOM     19  C   UNL     1      -6.226 -12.569  17.964  0.00  0.00    +0.033 C 
ATOM     20  C   UNL     1      -6.154 -10.105  17.431  0.00  0.00    +0.033 C 
BRANCH  18  23
ATOM      4  O   UNL     1      -8.440 -11.013  19.938  0.00  0.00    -0.251 OA
ATOM     23  C   UNL     1      -7.993 -11.056  18.798  0.00  0.00    +0.310 C 
BRANCH  23   3
ATOM      3  O   UNL     1      -8.717 -11.018  17.644  0.00  0.00    -0.468 OA
ATOM     27  C   UNL     1      -9.796 -10.078  17.624  0.00  0.00    +0.280 C 
ENDBRANCH  23   3
ENDBRANCH  18  23
ENDBRANCH  12  15
ENDBRANCH   8  12
TORSDOF 6
ENDMDL
MODEL 8
REMARK VINA RESULT:      -5.1      1.675      2.188
REMARK  Name = 11912556
REMARK  10 active torsions:
REMARK  status: ('A' for Active; 'I' for Inactive)
REMARK    1  A    between atoms: O_3  and  C_23
REMARK    2  A    between atoms: O_3  and  C_27
REMARK    3  A    between atoms: N_7  and  C_24
REMARK    4  A    between atoms: C_8  and  C_12
REMARK    5  A    between atoms: C_9  and  C_14
REMARK    6  A    between atoms: C_12  and  C_15
REMARK    7  A    between atoms: C_14  and  C_21
REMARK    8  A    between atoms: C_18  and  C_23
REMARK    9  A    between atoms: C_24  and  C_25
REMARK   10  A    between atoms: C_24  and  C_26
REMARK                            x       y       z     vdW  Elec       q    Type
REMARK                         _______ _______ _______ _____ _____    ______ ____
ROOT
ATOM      2  O   UNL     1      -7.797 -14.154  17.654  0.00  0.00    -0.253 OA
ATOM      5  N   UNL     1      -6.151 -12.579  18.083  0.00  0.00    -0.285 N 
ATOM      7  N   UNL     1      -8.399 -12.216  18.721  0.00  0.00    -0.297 N 
ATOM      8  C   UNL     1      -3.929 -11.252  16.787  0.00  0.00    +0.004 C 
ATOM      9  C   UNL     1      -5.041 -10.439  17.501  0.00  0.00    +0.010 C 
ATOM     10  C   UNL     1      -4.436 -12.630  16.323  0.00  0.00    +0.023 C 
ATOM     11  C   UNL     1      -5.671 -11.295  18.615  0.00  0.00    +0.113 C 
ATOM     13  C   UNL     1      -5.105 -13.393  17.465  0.00  0.00    +0.109 C 
ATOM     22  C   UNL     1      -7.470 -13.059  18.124  0.00  0.00    +0.302 C 
ATOM     28  H   UNL     1      -8.136 -11.309  19.076  0.00  0.00    +0.150 HD
ENDROOT
BRANCH   7  24
ATOM     24  C   UNL     1      -9.797 -12.566  18.830  0.00  0.00    +0.068 C 
ATOM     25  C   UNL     1     -10.336 -12.195  20.207  0.00  0.00    +0.027 C 
ATOM     26  C   UNL     1     -10.600 -11.894  17.725  0.00  0.00    +0.027 C 
ENDBRANCH   7  24
BRANCH   9  14
ATOM     14  C   UNL     1      -6.126  -9.905  16.559  0.00  0.00    +0.002 C 
ATOM     21  C   UNL     1      -7.276  -9.300  17.336  0.00  0.00    +0.004 C 
ENDBRANCH   9  14
BRANCH   8  12
ATOM     12  C   UNL     1      -3.285 -10.496  15.626  0.00  0.00    +0.100 C 
BRANCH  12  15
ATOM      1  O   UNL     1      -1.875 -12.180  14.737  0.00  0.00    -0.276 OA
ATOM      6  N   UNL     1      -3.633 -11.484  13.388  0.00  0.00    -0.301 N 
ATOM     15  C   UNL     1      -2.862 -11.464  14.550  0.00  0.00    +0.216 C 
ATOM     16  C   UNL     1      -3.311 -12.425  12.315  0.00  0.00    +0.108 C 
ATOM     17  C   UNL     1      -4.812 -10.645  13.136  0.00  0.00    +0.108 C 
ATOM     18  C   UNL     1      -4.341 -10.821  10.664  0.00  0.00    +0.101 C 
ATOM     19  C   UNL     1      -3.125 -11.694  10.987  0.00  0.00    +0.033 C 
ATOM     20  C   UNL     1      -4.658  -9.877  11.826  0.00  0.00    +0.033 C 
BRANCH  18  23
ATOM      4  O   UNL     1      -3.565  -8.919   9.411  0.00  0.00    -0.251 OA
ATOM     23  C   UNL     1      -4.072 -10.033   9.420  0.00  0.00    +0.310 C 
BRANCH  23   3
ATOM      3  O   UNL     1      -4.474 -10.747   8.330  0.00  0.00    -0.468 OA
ATOM     27  C   UNL     1      -5.443 -10.103   7.496  0.00  0.00    +0.280 C 
ENDBRANCH  23   3
ENDBRANCH  18  23
ENDBRANCH  12  15
ENDBRANCH   8  12
TORSDOF 6
ENDMDL
MODEL 9
REMARK VINA RESULT:      -5.0      2.379      3.168
REMARK  Name = 11912556
REMARK  10 active torsions:
REMARK  status: ('A' for Active; 'I' for Inactive)
REMARK    1  A    between atoms: O_3  and  C_23
REMARK    2  A    between atoms: O_3  and  C_27
REMARK    3  A    between atoms: N_7  and  C_24
REMARK    4  A    between atoms: C_8  and  C_12
REMARK    5  A    between atoms: C_9  and  C_14
REMARK    6  A    between atoms: C_12  and  C_15
REMARK    7  A    between atoms: C_14  and  C_21
REMARK    8  A    between atoms: C_18  and  C_23
REMARK    9  A    between atoms: C_24  and  C_25
REMARK   10  A    between atoms: C_24  and  C_26
REMARK                            x       y       z     vdW  Elec       q    Type
REMARK                         _______ _______ _______ _____ _____    ______ ____
ROOT
ATOM      2  O   UNL     1      -9.049 -14.282  19.114  0.00  0.00    -0.253 OA
ATOM      5  N   UNL     1      -7.809 -12.324  19.187  0.00  0.00    -0.285 N 
ATOM      7  N   UNL     1     -10.009 -12.422  20.047  0.00  0.00    -0.297 N 
ATOM      8  C   UNL     1      -6.109 -10.686  17.512  0.00  0.00    +0.004 C 
ATOM      9  C   UNL     1      -7.318 -10.074  18.268  0.00  0.00    +0.010 C 
ATOM     10  C   UNL     1      -6.301 -12.191  17.249  0.00  0.00    +0.023 C 
ATOM     11  C   UNL     1      -7.613 -10.907  19.528  0.00  0.00    +0.113 C 
ATOM     13  C   UNL     1      -6.656 -12.942  18.532  0.00  0.00    +0.109 C 
ATOM     22  C   UNL     1      -8.960 -13.091  19.431  0.00  0.00    +0.302 C 
ATOM     28  H   UNL     1      -9.947 -11.441  20.277  0.00  0.00    +0.150 HD
ENDROOT
BRANCH   7  24
ATOM     24  C   UNL     1     -11.262 -13.073  20.355  0.00  0.00    +0.068 C 
ATOM     25  C   UNL     1     -11.169 -13.811  21.685  0.00  0.00    +0.027 C 
ATOM     26  C   UNL     1     -12.398 -12.060  20.366  0.00  0.00    +0.027 C 
ENDBRANCH   7  24
BRANCH   9  14
ATOM     14  C   UNL     1      -8.582  -9.931  17.413  0.00  0.00    +0.002 C 
ATOM     21  C   UNL     1      -8.943  -8.474  17.210  0.00  0.00    +0.004 C 
ENDBRANCH   9  14
BRANCH   8  12
ATOM     12  C   UNL     1      -5.780  -9.951  16.213  0.00  0.00    +0.100 C 
BRANCH  12  15
ATOM      1  O   UNL     1      -3.477 -10.446  16.467  0.00  0.00    -0.276 OA
ATOM      6  N   UNL     1      -4.368 -10.728  14.341  0.00  0.00    -0.301 N 
ATOM     15  C   UNL     1      -4.436 -10.396  15.694  0.00  0.00    +0.216 C 
ATOM     16  C   UNL     1      -3.108 -11.208  13.771  0.00  0.00    +0.108 C 
ATOM     17  C   UNL     1      -5.491 -10.680  13.396  0.00  0.00    +0.108 C 
ATOM     18  C   UNL     1      -3.833 -10.307  11.531  0.00  0.00    +0.101 C 
ATOM     19  C   UNL     1      -2.703 -10.370  12.561  0.00  0.00    +0.033 C 
ATOM     20  C   UNL     1      -5.135  -9.829  12.178  0.00  0.00    +0.033 C 
BRANCH  18  23
ATOM      4  O   UNL     1      -2.289  -9.063  10.167  0.00  0.00    -0.251 OA
ATOM     23  C   UNL     1      -3.443  -9.382  10.420  0.00  0.00    +0.310 C 
BRANCH  23   3
ATOM      3  O   UNL     1      -4.560  -8.968   9.756  0.00  0.00    -0.468 OA
ATOM     27  C   UNL     1      -4.778  -9.576   8.478  0.00  0.00    +0.280 C 
ENDBRANCH  23   3
ENDBRANCH  18  23
ENDBRANCH  12  15
ENDBRANCH   8  12
TORSDOF 6
ENDMDL
MODEL 10
REMARK VINA RESULT:      -5.0     22.161     26.527
REMARK  Name = 11912556
REMARK  10 active torsions:
REMARK  status: ('A' for Active; 'I' for Inactive)
REMARK    1  A    between atoms: O_3  and  C_23
REMARK    2  A    between atoms: O_3  and  C_27
REMARK    3  A    between atoms: N_7  and  C_24
REMARK    4  A    between atoms: C_8  and  C_12
REMARK    5  A    between atoms: C_9  and  C_14
REMARK    6  A    between atoms: C_12  and  C_15
REMARK    7  A    between atoms: C_14  and  C_21
REMARK    8  A    between atoms: C_18  and  C_23
REMARK    9  A    between atoms: C_24  and  C_25
REMARK   10  A    between atoms: C_24  and  C_26
REMARK                            x       y       z     vdW  Elec       q    Type
REMARK                         _______ _______ _______ _____ _____    ______ ____
ROOT
ATOM      2  O   UNL     1      13.463   3.295   0.211  0.00  0.00    -0.253 OA
ATOM      5  N   UNL     1      11.591   4.277   1.161  0.00  0.00    -0.285 N 
ATOM      7  N   UNL     1      11.524   3.349  -1.012  0.00  0.00    -0.297 N 
ATOM      8  C   UNL     1      10.806   6.645   2.632  0.00  0.00    +0.004 C 
ATOM      9  C   UNL     1      10.058   6.219   1.341  0.00  0.00    +0.010 C 
ATOM     10  C   UNL     1      12.252   6.114   2.656  0.00  0.00    +0.023 C 
ATOM     11  C   UNL     1      10.181   4.696   1.153  0.00  0.00    +0.113 C 
ATOM     13  C   UNL     1      12.300   4.609   2.397  0.00  0.00    +0.109 C 
ATOM     22  C   UNL     1      12.273   3.616   0.128  0.00  0.00    +0.302 C 
ATOM     28  H   UNL     1      10.561   3.640  -1.091  0.00  0.00    +0.150 HD
ENDROOT
BRANCH   7  24
ATOM     24  C   UNL     1      12.088   2.683  -2.164  0.00  0.00    +0.068 C 
ATOM     25  C   UNL     1      11.025   1.858  -2.879  0.00  0.00    +0.027 C 
ATOM     26  C   UNL     1      12.723   3.698  -3.106  0.00  0.00    +0.027 C 
ENDBRANCH   7  24
BRANCH   9  14
ATOM     14  C   UNL     1      10.523   6.954   0.079  0.00  0.00    +0.002 C 
ATOM     21  C   UNL     1       9.748   6.493  -1.139  0.00  0.00    +0.004 C 
ENDBRANCH   9  14
BRANCH   8  12
ATOM     12  C   UNL     1      10.783   8.154   2.868  0.00  0.00    +0.100 C 
BRANCH  12  15
ATOM      1  O   UNL     1      12.438   8.967   4.356  0.00  0.00    -0.276 OA
ATOM      6  N   UNL     1      10.481   8.170   5.320  0.00  0.00    -0.301 N 
ATOM     15  C   UNL     1      11.315   8.470   4.244  0.00  0.00    +0.216 C 
ATOM     16  C   UNL     1      10.910   8.484   6.684  0.00  0.00    +0.108 C 
ATOM     17  C   UNL     1       9.140   7.580   5.218  0.00  0.00    +0.108 C 
ATOM     18  C   UNL     1       9.455   6.604   7.524  0.00  0.00    +0.101 C 
ATOM     19  C   UNL     1      10.844   7.246   7.575  0.00  0.00    +0.033 C 
ATOM     20  C   UNL     1       9.037   6.322   6.078  0.00  0.00    +0.033 C 
BRANCH  18  23
ATOM      4  O   UNL     1      10.045   4.312   7.961  0.00  0.00    -0.251 OA
ATOM     23  C   UNL     1       9.465   5.331   8.312  0.00  0.00    +0.310 C 
BRANCH  23   3
ATOM      3  O   UNL     1       8.740   5.496   9.455  0.00  0.00    -0.468 OA
ATOM     27  C   UNL     1       8.895   4.465  10.437  0.00  0.00    +0.280 C 
ENDBRANCH  23   3
ENDBRANCH  18  23
ENDBRANCH  12  15
ENDBRANCH   8  12
TORSDOF 6
ENDMDL
