MODEL 1
REMARK VINA RESULT:      -7.2      0.000      0.000
REMARK  Name = 51138098
REMARK  11 active torsions:
REMARK  status: ('A' for Active; 'I' for Inactive)
REMARK    1  A    between atoms: N_3  and  C_20
REMARK    2  A    between atoms: N_4  and  C_25
REMARK    3  A    between atoms: N_5  and  C_28
REMARK    4  A    between atoms: C_7  and  C_12
REMARK    5  A    between atoms: C_10  and  C_18
REMARK    6  A    between atoms: C_12  and  C_15
REMARK    7  A    between atoms: C_15  and  C_22
REMARK    8  A    between atoms: C_15  and  C_23
REMARK    9  A    between atoms: C_20  and  C_24
REMARK   10  A    between atoms: C_25  and  C_26
REMARK   11  A    between atoms: C_26  and  C_30
REMARK                            x       y       z     vdW  Elec       q    Type
REMARK                         _______ _______ _______ _____ _____    ______ ____
ROOT
ATOM      2  N   UNL     1      -6.600 -10.916  16.684  0.00  0.00    -0.299 NA
ATOM      3  N   UNL     1      -3.626 -10.359  12.641  0.00  0.00    -0.339 N 
ATOM      7  C   UNL     1      -5.237 -10.770  17.209  0.00  0.00    +0.085 C 
ATOM      8  C   UNL     1      -4.114 -10.769  16.167  0.00  0.00    -0.021 A 
ATOM      9  C   UNL     1      -4.292 -10.557  14.769  0.00  0.00    +0.008 A 
ATOM     10  C   UNL     1      -7.043  -9.822  15.831  0.00  0.00    +0.145 C 
ATOM     11  C   UNL     1      -5.433 -10.291  13.937  0.00  0.00    -0.020 A 
ATOM     13  C   UNL     1      -6.860 -10.153  14.352  0.00  0.00    +0.065 C 
ATOM     14  C   UNL     1      -3.177 -10.567  13.923  0.00  0.00    +0.050 A 
ATOM     16  C   UNL     1      -4.978 -10.186  12.637  0.00  0.00    +0.091 A 
ATOM     17  C   UNL     1      -2.775 -10.910  16.612  0.00  0.00    +0.006 A 
ATOM     19  C   UNL     1      -1.870 -10.755  14.375  0.00  0.00    +0.026 A 
ATOM     21  C   UNL     1      -1.685 -10.914  15.743  0.00  0.00    +0.002 A 
ATOM     31  H   UNL     1      -6.716 -11.816  16.219  0.00  0.00    +0.123 HD
ENDROOT
BRANCH  10  18
ATOM      1  O   UNL     1      -9.096 -10.412  16.898  0.00  0.00    -0.274 OA
ATOM      4  N   UNL     1      -9.073  -8.626  15.405  0.00  0.00    -0.314 N 
ATOM     18  C   UNL     1      -8.505  -9.666  16.121  0.00  0.00    +0.230 C 
ATOM     32  H   UNL     1      -8.495  -8.064  14.788  0.00  0.00    +0.149 HD
BRANCH   4  25
ATOM     25  C   UNL     1     -10.474  -8.281  15.488  0.00  0.00    +0.104 C 
BRANCH  25  26
ATOM     26  C   UNL     1     -10.773  -7.341  16.650  0.00  0.00    +0.015 C 
ATOM     30  C   UNL     1     -11.315  -5.995  16.192  0.00  0.00    +0.005 C 
ENDBRANCH  25  26
ENDBRANCH   4  25
ENDBRANCH  10  18
BRANCH   7  12
ATOM     12  C   UNL     1      -5.089 -11.910  18.233  0.00  0.00    +0.026 C 
BRANCH  12  15
ATOM     15  C   UNL     1      -5.868 -11.656  19.528  0.00  0.00    -0.015 C 
ATOM     22  C   UNL     1      -6.168 -10.174  19.755  0.00  0.00    +0.007 C 
ATOM     23  C   UNL     1      -7.177 -12.448  19.493  0.00  0.00    +0.007 C 
ENDBRANCH  12  15
ENDBRANCH   7  12
BRANCH   3  20
ATOM     20  C   UNL     1      -2.796 -10.306  11.456  0.00  0.00    +0.196 C 
BRANCH  20  24
ATOM      5  N   UNL     1      -4.074 -11.212   9.484  0.00  0.00    -0.336 N 
ATOM      6  N   UNL     1      -3.889  -9.002   9.601  0.00  0.00    -0.239 NA
ATOM     24  C   UNL     1      -3.584 -10.142  10.181  0.00  0.00    +0.129 A 
ATOM     27  C   UNL     1      -4.733 -10.723   8.391  0.00  0.00    +0.106 A 
ATOM     28  C   UNL     1      -3.933 -12.608   9.824  0.00  0.00    +0.150 C 
ATOM     29  C   UNL     1      -4.604  -9.357   8.484  0.00  0.00    +0.130 A 
ENDBRANCH  20  24
ENDBRANCH   3  20
TORSDOF 7
ENDMDL
MODEL 2
REMARK VINA RESULT:      -7.0     27.818     30.076
REMARK  Name = 51138098
REMARK  11 active torsions:
REMARK  status: ('A' for Active; 'I' for Inactive)
REMARK    1  A    between atoms: N_3  and  C_20
REMARK    2  A    between atoms: N_4  and  C_25
REMARK    3  A    between atoms: N_5  and  C_28
REMARK    4  A    between atoms: C_7  and  C_12
REMARK    5  A    between atoms: C_10  and  C_18
REMARK    6  A    between atoms: C_12  and  C_15
REMARK    7  A    between atoms: C_15  and  C_22
REMARK    8  A    between atoms: C_15  and  C_23
REMARK    9  A    between atoms: C_20  and  C_24
REMARK   10  A    between atoms: C_25  and  C_26
REMARK   11  A    between atoms: C_26  and  C_30
REMARK                            x       y       z     vdW  Elec       q    Type
REMARK                         _______ _______ _______ _____ _____    ______ ____
ROOT
ATOM      2  N   UNL     1      14.642   8.378  21.683  0.00  0.00    -0.299 NA
ATOM      3  N   UNL     1      19.432   7.038  20.809  0.00  0.00    -0.339 N 
ATOM      7  C   UNL     1      15.412   9.628  21.687  0.00  0.00    +0.085 C 
ATOM      8  C   UNL     1      16.935   9.477  21.624  0.00  0.00    -0.021 A 
ATOM      9  C   UNL     1      17.627   8.295  21.230  0.00  0.00    +0.008 A 
ATOM     10  C   UNL     1      14.771   7.588  20.468  0.00  0.00    +0.145 C 
ATOM     11  C   UNL     1      17.208   6.990  20.794  0.00  0.00    -0.020 A 
ATOM     13  C   UNL     1      15.815   6.484  20.623  0.00  0.00    +0.065 C 
ATOM     14  C   UNL     1      19.026   8.292  21.201  0.00  0.00    +0.050 A 
ATOM     16  C   UNL     1      18.349   6.250  20.556  0.00  0.00    +0.091 A 
ATOM     17  C   UNL     1      17.743  10.610  21.899  0.00  0.00    +0.006 A 
ATOM     19  C   UNL     1      19.805   9.405  21.523  0.00  0.00    +0.026 A 
ATOM     21  C   UNL     1      19.135  10.574  21.861  0.00  0.00    +0.002 A 
ATOM     31  H   UNL     1      14.853   7.819  22.511  0.00  0.00    +0.123 HD
ENDROOT
BRANCH  10  18
ATOM      1  O   UNL     1      12.988   6.719  19.139  0.00  0.00    -0.274 OA
ATOM      4  N   UNL     1      12.765   6.732  21.456  0.00  0.00    -0.314 N 
ATOM     18  C   UNL     1      13.425   6.963  20.261  0.00  0.00    +0.230 C 
ATOM     32  H   UNL     1      13.216   6.967  22.335  0.00  0.00    +0.149 HD
BRANCH   4  25
ATOM     25  C   UNL     1      11.441   6.158  21.530  0.00  0.00    +0.104 C 
BRANCH  25  26
ATOM     26  C   UNL     1      10.387   7.181  21.936  0.00  0.00    +0.015 C 
ATOM     30  C   UNL     1      10.992   8.443  22.534  0.00  0.00    +0.005 C 
ENDBRANCH  25  26
ENDBRANCH   4  25
ENDBRANCH  10  18
BRANCH   7  12
ATOM     12  C   UNL     1      14.946  10.370  22.952  0.00  0.00    +0.026 C 
BRANCH  12  15
ATOM     15  C   UNL     1      13.596  11.071  22.771  0.00  0.00    -0.015 C 
ATOM     22  C   UNL     1      13.105  11.748  24.052  0.00  0.00    +0.007 C 
ATOM     23  C   UNL     1      13.711  12.108  21.651  0.00  0.00    +0.007 C 
ENDBRANCH  12  15
ENDBRANCH   7  12
BRANCH   3  20
ATOM     20  C   UNL     1      20.805   6.606  20.660  0.00  0.00    +0.196 C 
BRANCH  20  24
ATOM      5  N   UNL     1      21.701   4.719  22.066  0.00  0.00    -0.336 N 
ATOM      6  N   UNL     1      21.683   6.726  23.016  0.00  0.00    -0.239 NA
ATOM     24  C   UNL     1      21.397   6.045  21.929  0.00  0.00    +0.129 A 
ATOM     27  C   UNL     1      22.215   4.544  23.321  0.00  0.00    +0.106 A 
ATOM     28  C   UNL     1      21.522   3.680  21.080  0.00  0.00    +0.150 C 
ATOM     29  C   UNL     1      22.193   5.797  23.888  0.00  0.00    +0.130 A 
ENDBRANCH  20  24
ENDBRANCH   3  20
TORSDOF 7
ENDMDL
MODEL 3
REMARK VINA RESULT:      -6.9     28.318     30.875
REMARK  Name = 51138098
REMARK  11 active torsions:
REMARK  status: ('A' for Active; 'I' for Inactive)
REMARK    1  A    between atoms: N_3  and  C_20
REMARK    2  A    between atoms: N_4  and  C_25
REMARK    3  A    between atoms: N_5  and  C_28
REMARK    4  A    between atoms: C_7  and  C_12
REMARK    5  A    between atoms: C_10  and  C_18
REMARK    6  A    between atoms: C_12  and  C_15
REMARK    7  A    between atoms: C_15  and  C_22
REMARK    8  A    between atoms: C_15  and  C_23
REMARK    9  A    between atoms: C_20  and  C_24
REMARK   10  A    between atoms: C_25  and  C_26
REMARK   11  A    between atoms: C_26  and  C_30
REMARK                            x       y       z     vdW  Elec       q    Type
REMARK                         _______ _______ _______ _____ _____    ______ ____
ROOT
ATOM      2  N   UNL     1      18.981   8.781  22.537  0.00  0.00    -0.299 NA
ATOM      3  N   UNL     1      14.533   8.632  20.151  0.00  0.00    -0.339 N 
ATOM      7  C   UNL     1      19.135   7.786  21.468  0.00  0.00    +0.085 C 
ATOM      8  C   UNL     1      17.859   7.418  20.706  0.00  0.00    -0.021 A 
ATOM      9  C   UNL     1      16.653   8.177  20.710  0.00  0.00    +0.008 A 
ATOM     10  C   UNL     1      18.565  10.100  22.083  0.00  0.00    +0.145 C 
ATOM     11  C   UNL     1      16.248   9.407  21.337  0.00  0.00    -0.020 A 
ATOM     13  C   UNL     1      17.056  10.292  22.225  0.00  0.00    +0.065 C 
ATOM     14  C   UNL     1      15.558   7.738  19.957  0.00  0.00    +0.050 A 
ATOM     16  C   UNL     1      14.937   9.642  20.972  0.00  0.00    +0.091 A 
ATOM     17  C   UNL     1      17.876   6.279  19.860  0.00  0.00    +0.006 A 
ATOM     19  C   UNL     1      15.580   6.586  19.168  0.00  0.00    +0.026 A 
ATOM     21  C   UNL     1      16.768   5.868  19.122  0.00  0.00    +0.002 A 
ATOM     31  H   UNL     1      18.366   8.432  23.272  0.00  0.00    +0.123 HD
ENDROOT
BRANCH  10  18
ATOM      1  O   UNL     1      19.440  12.241  22.673  0.00  0.00    -0.274 OA
ATOM      4  N   UNL     1      19.698  10.469  24.160  0.00  0.00    -0.314 N 
ATOM     18  C   UNL     1      19.269  11.066  22.987  0.00  0.00    +0.230 C 
ATOM     32  H   UNL     1      19.502   9.487  24.328  0.00  0.00    +0.149 HD
BRANCH   4  25
ATOM     25  C   UNL     1      20.422  11.178  25.190  0.00  0.00    +0.104 C 
BRANCH  25  26
ATOM     26  C   UNL     1      21.654  10.415  25.664  0.00  0.00    +0.015 C 
ATOM     30  C   UNL     1      21.958   9.197  24.802  0.00  0.00    +0.005 C 
ENDBRANCH  25  26
ENDBRANCH   4  25
ENDBRANCH  10  18
BRANCH   7  12
ATOM     12  C   UNL     1      19.781   6.570  22.157  0.00  0.00    +0.026 C 
BRANCH  12  15
ATOM     15  C   UNL     1      21.127   6.177  21.539  0.00  0.00    -0.015 C 
ATOM     22  C   UNL     1      21.611   7.181  20.491  0.00  0.00    +0.007 C 
ATOM     23  C   UNL     1      22.172   6.043  22.648  0.00  0.00    +0.007 C 
ENDBRANCH  12  15
ENDBRANCH   7  12
BRANCH   3  20
ATOM     20  C   UNL     1      13.215   8.544  19.560  0.00  0.00    +0.196 C 
BRANCH  20  24
ATOM      5  N   UNL     1      11.406   8.595  21.312  0.00  0.00    -0.336 N 
ATOM      6  N   UNL     1      11.959   6.590  20.533  0.00  0.00    -0.239 NA
ATOM     24  C   UNL     1      12.200   7.881  20.458  0.00  0.00    +0.129 A 
ATOM     27  C   UNL     1      10.608   7.703  21.972  0.00  0.00    +0.106 A 
ATOM     28  C   UNL     1      11.397  10.026  21.496  0.00  0.00    +0.150 C 
ATOM     29  C   UNL     1      10.968   6.473  21.475  0.00  0.00    +0.130 A 
ENDBRANCH  20  24
ENDBRANCH   3  20
TORSDOF 7
ENDMDL
MODEL 4
REMARK VINA RESULT:      -6.8      2.285      3.680
REMARK  Name = 51138098
REMARK  11 active torsions:
REMARK  status: ('A' for Active; 'I' for Inactive)
REMARK    1  A    between atoms: N_3  and  C_20
REMARK    2  A    between atoms: N_4  and  C_25
REMARK    3  A    between atoms: N_5  and  C_28
REMARK    4  A    between atoms: C_7  and  C_12
REMARK    5  A    between atoms: C_10  and  C_18
REMARK    6  A    between atoms: C_12  and  C_15
REMARK    7  A    between atoms: C_15  and  C_22
REMARK    8  A    between atoms: C_15  and  C_23
REMARK    9  A    between atoms: C_20  and  C_24
REMARK   10  A    between atoms: C_25  and  C_26
REMARK   11  A    between atoms: C_26  and  C_30
REMARK                            x       y       z     vdW  Elec       q    Type
REMARK                         _______ _______ _______ _____ _____    ______ ____
ROOT
ATOM      2  N   UNL     1      -9.030 -10.420  17.109  0.00  0.00    -0.299 NA
ATOM      3  N   UNL     1      -4.074 -10.737  16.193  0.00  0.00    -0.339 N 
ATOM      7  C   UNL     1      -8.405 -10.729  18.401  0.00  0.00    +0.085 C 
ATOM      8  C   UNL     1      -6.910 -11.059  18.360  0.00  0.00    -0.021 A 
ATOM      9  C   UNL     1      -6.034 -10.767  17.274  0.00  0.00    +0.008 A 
ATOM     10  C   UNL     1      -8.521  -9.222  16.458  0.00  0.00    +0.145 C 
ATOM     11  C   UNL     1      -6.205 -10.131  15.996  0.00  0.00    -0.020 A 
ATOM     13  C   UNL     1      -7.455  -9.557  15.417  0.00  0.00    +0.065 C 
ATOM     14  C   UNL     1      -4.681 -11.109  17.369  0.00  0.00    +0.050 A 
ATOM     16  C   UNL     1      -4.978 -10.144  15.364  0.00  0.00    +0.091 A 
ATOM     17  C   UNL     1      -6.308 -11.629  19.511  0.00  0.00    +0.006 A 
ATOM     19  C   UNL     1      -4.117 -11.714  18.493  0.00  0.00    +0.026 A 
ATOM     21  C   UNL     1      -4.956 -11.958  19.574  0.00  0.00    +0.002 A 
ATOM     31  H   UNL     1      -8.989 -11.225  16.483  0.00  0.00    +0.123 HD
ENDROOT
BRANCH  10  18
ATOM      1  O   UNL     1     -10.555  -9.307  15.211  0.00  0.00    -0.274 OA
ATOM      4  N   UNL     1      -9.695  -7.233  15.826  0.00  0.00    -0.314 N 
ATOM     18  C   UNL     1      -9.706  -8.616  15.768  0.00  0.00    +0.230 C 
ATOM     32  H   UNL     1      -8.947  -6.754  16.317  0.00  0.00    +0.149 HD
BRANCH   4  25
ATOM     25  C   UNL     1     -10.715  -6.409  15.218  0.00  0.00    +0.104 C 
BRANCH  25  26
ATOM     26  C   UNL     1     -11.857  -6.096  16.178  0.00  0.00    +0.015 C 
ATOM     30  C   UNL     1     -13.216  -6.501  15.626  0.00  0.00    +0.005 C 
ENDBRANCH  25  26
ENDBRANCH   4  25
ENDBRANCH  10  18
BRANCH   7  12
ATOM     12  C   UNL     1      -9.247 -11.882  18.977  0.00  0.00    +0.026 C 
BRANCH  12  15
ATOM     15  C   UNL     1     -10.059 -11.472  20.210  0.00  0.00    -0.015 C 
ATOM     22  C   UNL     1     -10.867 -10.193  19.986  0.00  0.00    +0.007 C 
ATOM     23  C   UNL     1     -10.999 -12.616  20.599  0.00  0.00    +0.007 C 
ENDBRANCH  12  15
ENDBRANCH   7  12
BRANCH   3  20
ATOM     20  C   UNL     1      -2.675 -10.922  15.872  0.00  0.00    +0.196 C 
BRANCH  20  24
ATOM      5  N   UNL     1      -2.637 -12.359  13.805  0.00  0.00    -0.336 N 
ATOM      6  N   UNL     1      -1.987 -10.252  13.545  0.00  0.00    -0.239 NA
ATOM     24  C   UNL     1      -2.423 -11.149  14.402  0.00  0.00    +0.129 A 
ATOM     27  C   UNL     1      -2.317 -12.227  12.482  0.00  0.00    +0.106 A 
ATOM     28  C   UNL     1      -3.113 -13.567  14.436  0.00  0.00    +0.150 C 
ATOM     29  C   UNL     1      -1.918 -10.918  12.347  0.00  0.00    +0.130 A 
ENDBRANCH  20  24
ENDBRANCH   3  20
TORSDOF 7
ENDMDL
MODEL 5
REMARK VINA RESULT:      -6.8     22.864     26.164
REMARK  Name = 51138098
REMARK  11 active torsions:
REMARK  status: ('A' for Active; 'I' for Inactive)
REMARK    1  A    between atoms: N_3  and  C_20
REMARK    2  A    between atoms: N_4  and  C_25
REMARK    3  A    between atoms: N_5  and  C_28
REMARK    4  A    between atoms: C_7  and  C_12
REMARK    5  A    between atoms: C_10  and  C_18
REMARK    6  A    between atoms: C_12  and  C_15
REMARK    7  A    between atoms: C_15  and  C_22
REMARK    8  A    between atoms: C_15  and  C_23
REMARK    9  A    between atoms: C_20  and  C_24
REMARK   10  A    between atoms: C_25  and  C_26
REMARK   11  A    between atoms: C_26  and  C_30
REMARK                            x       y       z     vdW  Elec       q    Type
REMARK                         _______ _______ _______ _____ _____    ______ ____
ROOT
ATOM      2  N   UNL     1       9.431   7.991   4.967  0.00  0.00    -0.299 NA
ATOM      3  N   UNL     1      11.220   4.731   1.550  0.00  0.00    -0.339 N 
ATOM      7  C   UNL     1       8.852   8.403   3.682  0.00  0.00    +0.085 C 
ATOM      8  C   UNL     1       9.387   7.679   2.443  0.00  0.00    -0.021 A 
ATOM      9  C   UNL     1      10.113   6.453   2.459  0.00  0.00    +0.008 A 
ATOM     10  C   UNL     1       9.161   6.611   5.341  0.00  0.00    +0.145 C 
ATOM     11  C   UNL     1      10.543   5.560   3.501  0.00  0.00    -0.020 A 
ATOM     13  C   UNL     1      10.322   5.690   4.971  0.00  0.00    +0.065 C 
ATOM     14  C   UNL     1      10.536   5.886   1.252  0.00  0.00    +0.050 A 
ATOM     16  C   UNL     1      11.226   4.522   2.897  0.00  0.00    +0.091 A 
ATOM     17  C   UNL     1       9.083   8.207   1.163  0.00  0.00    +0.006 A 
ATOM     19  C   UNL     1      10.266   6.447   0.002  0.00  0.00    +0.026 A 
ATOM     21  C   UNL     1       9.517   7.617  -0.022  0.00  0.00    +0.002 A 
ATOM     31  H   UNL     1      10.431   8.192   4.996  0.00  0.00    +0.123 HD
ENDROOT
BRANCH  10  18
ATOM      1  O   UNL     1       8.159   7.322   7.387  0.00  0.00    -0.274 OA
ATOM      4  N   UNL     1       9.931   5.815   7.464  0.00  0.00    -0.314 N 
ATOM     18  C   UNL     1       9.008   6.631   6.832  0.00  0.00    +0.230 C 
ATOM     32  H   UNL     1      10.592   5.279   6.911  0.00  0.00    +0.149 HD
BRANCH   4  25
ATOM     25  C   UNL     1      10.009   5.675   8.900  0.00  0.00    +0.104 C 
BRANCH  25  26
ATOM     26  C   UNL     1       9.378   4.378   9.392  0.00  0.00    +0.015 C 
ATOM     30  C   UNL     1       8.497   4.580  10.617  0.00  0.00    +0.005 C 
ENDBRANCH  25  26
ENDBRANCH   4  25
ENDBRANCH  10  18
BRANCH   7  12
ATOM     12  C   UNL     1       9.082   9.924   3.620  0.00  0.00    +0.026 C 
BRANCH  12  15
ATOM     15  C   UNL     1       7.777  10.724   3.559  0.00  0.00    -0.015 C 
ATOM     22  C   UNL     1       7.651  11.551   2.277  0.00  0.00    +0.007 C 
ATOM     23  C   UNL     1       6.590   9.766   3.673  0.00  0.00    +0.007 C 
ENDBRANCH  12  15
ENDBRANCH   7  12
BRANCH   3  20
ATOM     20  C   UNL     1      11.834   3.843   0.586  0.00  0.00    +0.196 C 
BRANCH  20  24
ATOM      5  N   UNL     1      14.106   4.497  -0.280  0.00  0.00    -0.336 N 
ATOM      6  N   UNL     1      14.080   3.250   1.557  0.00  0.00    -0.239 NA
ATOM     24  C   UNL     1      13.341   3.845   0.647  0.00  0.00    +0.129 A 
ATOM     27  C   UNL     1      15.416   4.304   0.061  0.00  0.00    +0.106 A 
ATOM     28  C   UNL     1      13.637   5.254  -1.416  0.00  0.00    +0.150 C 
ATOM     29  C   UNL     1      15.374   3.531   1.197  0.00  0.00    +0.130 A 
ENDBRANCH  20  24
ENDBRANCH   3  20
TORSDOF 7
ENDMDL
MODEL 6
REMARK VINA RESULT:      -6.7     19.719     24.602
REMARK  Name = 51138098
REMARK  11 active torsions:
REMARK  status: ('A' for Active; 'I' for Inactive)
REMARK    1  A    between atoms: N_3  and  C_20
REMARK    2  A    between atoms: N_4  and  C_25
REMARK    3  A    between atoms: N_5  and  C_28
REMARK    4  A    between atoms: C_7  and  C_12
REMARK    5  A    between atoms: C_10  and  C_18
REMARK    6  A    between atoms: C_12  and  C_15
REMARK    7  A    between atoms: C_15  and  C_22
REMARK    8  A    between atoms: C_15  and  C_23
REMARK    9  A    between atoms: C_20  and  C_24
REMARK   10  A    between atoms: C_25  and  C_26
REMARK   11  A    between atoms: C_26  and  C_30
REMARK                            x       y       z     vdW  Elec       q    Type
REMARK                         _______ _______ _______ _____ _____    ______ ____
ROOT
ATOM      2  N   UNL     1     -15.129   2.695  28.909  0.00  0.00    -0.299 NA
ATOM      3  N   UNL     1     -16.007   6.479  32.137  0.00  0.00    -0.339 N 
ATOM      7  C   UNL     1     -14.973   2.118  30.251  0.00  0.00    +0.085 C 
ATOM      8  C   UNL     1     -15.010   3.112  31.415  0.00  0.00    -0.021 A 
ATOM      9  C   UNL     1     -15.506   4.446  31.341  0.00  0.00    +0.008 A 
ATOM     10  C   UNL     1     -16.417   3.328  28.665  0.00  0.00    +0.145 C 
ATOM     11  C   UNL     1     -16.087   5.239  30.291  0.00  0.00    -0.020 A 
ATOM     13  C   UNL     1     -16.349   4.839  28.878  0.00  0.00    +0.065 C 
ATOM     14  C   UNL     1     -15.496   5.251  32.486  0.00  0.00    +0.050 A 
ATOM     16  C   UNL     1     -16.371   6.481  30.823  0.00  0.00    +0.091 A 
ATOM     17  C   UNL     1     -14.595   2.672  32.698  0.00  0.00    +0.006 A 
ATOM     19  C   UNL     1     -15.039   4.813  33.730  0.00  0.00    +0.026 A 
ATOM     21  C   UNL     1     -14.598   3.499  33.820  0.00  0.00    +0.002 A 
ATOM     31  H   UNL     1     -14.359   3.329  28.695  0.00  0.00    +0.123 HD
ENDROOT
BRANCH  10  18
ATOM      1  O   UNL     1     -17.736   2.441  26.885  0.00  0.00    -0.274 OA
ATOM      4  N   UNL     1     -15.743   3.531  26.377  0.00  0.00    -0.314 N 
ATOM     18  C   UNL     1     -16.725   3.049  27.225  0.00  0.00    +0.230 C 
ATOM     32  H   UNL     1     -14.944   4.026  26.759  0.00  0.00    +0.149 HD
BRANCH   4  25
ATOM     25  C   UNL     1     -15.791   3.372  24.941  0.00  0.00    +0.104 C 
BRANCH  25  26
ATOM     26  C   UNL     1     -15.690   4.704  24.206  0.00  0.00    +0.015 C 
ATOM     30  C   UNL     1     -14.348   4.891  23.512  0.00  0.00    +0.005 C 
ENDBRANCH  25  26
ENDBRANCH   4  25
ENDBRANCH  10  18
BRANCH   7  12
ATOM     12  C   UNL     1     -13.651   1.333  30.187  0.00  0.00    +0.026 C 
BRANCH  12  15
ATOM     15  C   UNL     1     -13.826  -0.160  30.482  0.00  0.00    -0.015 C 
ATOM     22  C   UNL     1     -15.268  -0.526  30.836  0.00  0.00    +0.007 C 
ATOM     23  C   UNL     1     -13.371  -0.971  29.267  0.00  0.00    +0.007 C 
ENDBRANCH  12  15
ENDBRANCH   7  12
BRANCH   3  20
ATOM     20  C   UNL     1     -16.162   7.610  33.026  0.00  0.00    +0.196 C 
BRANCH  20  24
ATOM      5  N   UNL     1     -14.022   8.922  33.224  0.00  0.00    -0.336 N 
ATOM      6  N   UNL     1     -15.552   9.745  31.841  0.00  0.00    -0.239 NA
ATOM     24  C   UNL     1     -15.266   8.772  32.677  0.00  0.00    +0.129 A 
ATOM     27  C   UNL     1     -13.480  10.064  32.703  0.00  0.00    +0.106 A 
ATOM     28  C   UNL     1     -13.382   8.047  34.177  0.00  0.00    +0.150 C 
ATOM     29  C   UNL     1     -14.443  10.554  31.853  0.00  0.00    +0.130 A 
ENDBRANCH  20  24
ENDBRANCH   3  20
TORSDOF 7
ENDMDL
MODEL 7
REMARK VINA RESULT:      -6.7     29.573     31.237
REMARK  Name = 51138098
REMARK  11 active torsions:
REMARK  status: ('A' for Active; 'I' for Inactive)
REMARK    1  A    between atoms: N_3  and  C_20
REMARK    2  A    between atoms: N_4  and  C_25
REMARK    3  A    between atoms: N_5  and  C_28
REMARK    4  A    between atoms: C_7  and  C_12
REMARK    5  A    between atoms: C_10  and  C_18
REMARK    6  A    between atoms: C_12  and  C_15
REMARK    7  A    between atoms: C_15  and  C_22
REMARK    8  A    between atoms: C_15  and  C_23
REMARK    9  A    between atoms: C_20  and  C_24
REMARK   10  A    between atoms: C_25  and  C_26
REMARK   11  A    between atoms: C_26  and  C_30
REMARK                            x       y       z     vdW  Elec       q    Type
REMARK                         _______ _______ _______ _____ _____    ______ ____
ROOT
ATOM      2  N   UNL     1      -1.816  12.386  34.508  0.00  0.00    -0.299 NA
ATOM      3  N   UNL     1      -1.358   8.313  37.459  0.00  0.00    -0.339 N 
ATOM      7  C   UNL     1      -3.079  12.288  35.251  0.00  0.00    +0.085 C 
ATOM      8  C   UNL     1      -3.266  11.020  36.089  0.00  0.00    -0.021 A 
ATOM      9  C   UNL     1      -2.224  10.126  36.470  0.00  0.00    +0.008 A 
ATOM     10  C   UNL     1      -0.624  12.451  35.341  0.00  0.00    +0.145 C 
ATOM     11  C   UNL     1      -0.804  10.096  36.249  0.00  0.00    -0.020 A 
ATOM     13  C   UNL     1       0.029  11.079  35.496  0.00  0.00    +0.065 C 
ATOM     14  C   UNL     1      -2.527   9.006  37.252  0.00  0.00    +0.050 A 
ATOM     16  C   UNL     1      -0.315   8.961  36.866  0.00  0.00    +0.091 A 
ATOM     17  C   UNL     1      -4.556  10.731  36.604  0.00  0.00    +0.006 A 
ATOM     19  C   UNL     1      -3.812   8.713  37.710  0.00  0.00    +0.026 A 
ATOM     21  C   UNL     1      -4.825   9.606  37.382  0.00  0.00    +0.002 A 
ATOM     31  H   UNL     1      -1.742  11.639  33.816  0.00  0.00    +0.123 HD
ENDROOT
BRANCH  10  18
ATOM      1  O   UNL     1       0.854  14.317  35.164  0.00  0.00    -0.274 OA
ATOM      4  N   UNL     1       0.466  13.004  33.282  0.00  0.00    -0.314 N 
ATOM     18  C   UNL     1       0.316  13.362  34.611  0.00  0.00    +0.230 C 
ATOM     32  H   UNL     1      -0.023  12.190  32.920  0.00  0.00    +0.149 HD
BRANCH   4  25
ATOM     25  C   UNL     1       1.300  13.734  32.355  0.00  0.00    +0.104 C 
BRANCH  25  26
ATOM     26  C   UNL     1       1.482  12.997  31.033  0.00  0.00    +0.015 C 
ATOM     30  C   UNL     1       2.202  13.836  29.987  0.00  0.00    +0.005 C 
ENDBRANCH  25  26
ENDBRANCH   4  25
ENDBRANCH  10  18
BRANCH   7  12
ATOM     12  C   UNL     1      -4.174  12.455  34.182  0.00  0.00    +0.026 C 
BRANCH  12  15
ATOM     15  C   UNL     1      -3.971  13.695  33.306  0.00  0.00    -0.015 C 
ATOM     22  C   UNL     1      -4.073  13.385  31.811  0.00  0.00    +0.007 C 
ATOM     23  C   UNL     1      -5.006  14.757  33.685  0.00  0.00    +0.007 C 
ENDBRANCH  12  15
ENDBRANCH   7  12
BRANCH   3  20
ATOM     20  C   UNL     1      -1.229   7.083  38.210  0.00  0.00    +0.196 C 
BRANCH  20  24
ATOM      5  N   UNL     1       0.252   6.245  40.067  0.00  0.00    -0.336 N 
ATOM      6  N   UNL     1      -0.454   8.342  40.248  0.00  0.00    -0.239 NA
ATOM     24  C   UNL     1      -0.487   7.253  39.512  0.00  0.00    +0.129 A 
ATOM     27  C   UNL     1       0.789   6.722  41.230  0.00  0.00    +0.106 A 
ATOM     28  C   UNL     1       0.442   4.916  39.537  0.00  0.00    +0.150 C 
ATOM     29  C   UNL     1       0.338   8.018  41.320  0.00  0.00    +0.130 A 
ENDBRANCH  20  24
ENDBRANCH   3  20
TORSDOF 7
ENDMDL
MODEL 8
REMARK VINA RESULT:      -6.6      1.884      7.250
REMARK  Name = 51138098
REMARK  11 active torsions:
REMARK  status: ('A' for Active; 'I' for Inactive)
REMARK    1  A    between atoms: N_3  and  C_20
REMARK    2  A    between atoms: N_4  and  C_25
REMARK    3  A    between atoms: N_5  and  C_28
REMARK    4  A    between atoms: C_7  and  C_12
REMARK    5  A    between atoms: C_10  and  C_18
REMARK    6  A    between atoms: C_12  and  C_15
REMARK    7  A    between atoms: C_15  and  C_22
REMARK    8  A    between atoms: C_15  and  C_23
REMARK    9  A    between atoms: C_20  and  C_24
REMARK   10  A    between atoms: C_25  and  C_26
REMARK   11  A    between atoms: C_26  and  C_30
REMARK                            x       y       z     vdW  Elec       q    Type
REMARK                         _______ _______ _______ _____ _____    ______ ____
ROOT
ATOM      2  N   UNL     1      -4.752 -10.685  14.430  0.00  0.00    -0.299 NA
ATOM      3  N   UNL     1      -8.878  -9.440  17.063  0.00  0.00    -0.339 N 
ATOM      7  C   UNL     1      -4.549 -11.240  15.775  0.00  0.00    +0.085 C 
ATOM      8  C   UNL     1      -5.588 -10.841  16.828  0.00  0.00    -0.021 A 
ATOM      9  C   UNL     1      -6.869 -10.283  16.547  0.00  0.00    +0.008 A 
ATOM     10  C   UNL     1      -5.971 -11.125  13.768  0.00  0.00    +0.145 C 
ATOM     11  C   UNL     1      -7.568  -9.946  15.337  0.00  0.00    -0.020 A 
ATOM     13  C   UNL     1      -7.098 -10.107  13.930  0.00  0.00    +0.065 C 
ATOM     14  C   UNL     1      -7.732  -9.974  17.604  0.00  0.00    +0.050 A 
ATOM     16  C   UNL     1      -8.793  -9.424  15.703  0.00  0.00    +0.091 A 
ATOM     17  C   UNL     1      -5.309 -11.109  18.192  0.00  0.00    +0.006 A 
ATOM     19  C   UNL     1      -7.419 -10.201  18.945  0.00  0.00    +0.026 A 
ATOM     21  C   UNL     1      -6.192 -10.789  19.222  0.00  0.00    +0.002 A 
ATOM     31  H   UNL     1      -4.686  -9.667  14.444  0.00  0.00    +0.123 HD
ENDROOT
BRANCH  10  18
ATOM      1  O   UNL     1      -6.044 -12.137  11.607  0.00  0.00    -0.274 OA
ATOM      4  N   UNL     1      -4.749 -10.227  11.915  0.00  0.00    -0.314 N 
ATOM     18  C   UNL     1      -5.612 -11.232  12.317  0.00  0.00    +0.230 C 
ATOM     32  H   UNL     1      -4.453  -9.520  12.581  0.00  0.00    +0.149 HD
BRANCH   4  25
ATOM     25  C   UNL     1      -4.235 -10.118  10.569  0.00  0.00    +0.104 C 
BRANCH  25  26
ATOM     26  C   UNL     1      -2.925  -9.340  10.509  0.00  0.00    +0.015 C 
ATOM     30  C   UNL     1      -1.861  -9.909  11.437  0.00  0.00    +0.005 C 
ENDBRANCH  25  26
ENDBRANCH   4  25
ENDBRANCH  10  18
BRANCH   7  12
ATOM     12  C   UNL     1      -3.122 -10.813  16.162  0.00  0.00    +0.026 C 
BRANCH  12  15
ATOM     15  C   UNL     1      -2.194 -10.661  14.954  0.00  0.00    -0.015 C 
ATOM     22  C   UNL     1      -1.023  -9.714  15.224  0.00  0.00    +0.007 C 
ATOM     23  C   UNL     1      -1.662 -12.037  14.547  0.00  0.00    +0.007 C 
ENDBRANCH  12  15
ENDBRANCH   7  12
BRANCH   3  20
ATOM     20  C   UNL     1     -10.026  -8.976  17.812  0.00  0.00    +0.196 C 
BRANCH  20  24
ATOM      5  N   UNL     1     -12.068  -8.486  16.422  0.00  0.00    -0.336 N 
ATOM      6  N   UNL     1     -10.721  -6.767  16.824  0.00  0.00    -0.239 NA
ATOM     24  C   UNL     1     -10.920  -8.052  17.024  0.00  0.00    +0.129 A 
ATOM     27  C   UNL     1     -12.637  -7.410  15.799  0.00  0.00    +0.106 A 
ATOM     28  C   UNL     1     -12.599  -9.828  16.432  0.00  0.00    +0.150 C 
ATOM     29  C   UNL     1     -11.787  -6.362  16.061  0.00  0.00    +0.130 A 
ENDBRANCH  20  24
ENDBRANCH   3  20
TORSDOF 7
ENDMDL
MODEL 9
REMARK VINA RESULT:      -6.6      2.601      4.826
REMARK  Name = 51138098
REMARK  11 active torsions:
REMARK  status: ('A' for Active; 'I' for Inactive)
REMARK    1  A    between atoms: N_3  and  C_20
REMARK    2  A    between atoms: N_4  and  C_25
REMARK    3  A    between atoms: N_5  and  C_28
REMARK    4  A    between atoms: C_7  and  C_12
REMARK    5  A    between atoms: C_10  and  C_18
REMARK    6  A    between atoms: C_12  and  C_15
REMARK    7  A    between atoms: C_15  and  C_22
REMARK    8  A    between atoms: C_15  and  C_23
REMARK    9  A    between atoms: C_20  and  C_24
REMARK   10  A    between atoms: C_25  and  C_26
REMARK   11  A    between atoms: C_26  and  C_30
REMARK                            x       y       z     vdW  Elec       q    Type
REMARK                         _______ _______ _______ _____ _____    ______ ____
ROOT
ATOM      2  N   UNL     1      -4.552 -11.355  14.891  0.00  0.00    -0.299 NA
ATOM      3  N   UNL     1      -5.881  -8.878  10.695  0.00  0.00    -0.339 N 
ATOM      7  C   UNL     1      -3.294 -11.002  14.221  0.00  0.00    +0.085 C 
ATOM      8  C   UNL     1      -3.427 -10.398  12.819  0.00  0.00    -0.021 A 
ATOM      9  C   UNL     1      -4.624  -9.851  12.272  0.00  0.00    +0.008 A 
ATOM     10  C   UNL     1      -5.423 -10.225  15.181  0.00  0.00    +0.145 C 
ATOM     11  C   UNL     1      -5.962  -9.677  12.770  0.00  0.00    -0.020 A 
ATOM     13  C   UNL     1      -6.499 -10.055  14.110  0.00  0.00    +0.065 C 
ATOM     14  C   UNL     1      -4.610  -9.316  10.979  0.00  0.00    +0.050 A 
ATOM     16  C   UNL     1      -6.700  -9.085  11.765  0.00  0.00    +0.091 A 
ATOM     17  C   UNL     1      -2.267 -10.293  12.012  0.00  0.00    +0.006 A 
ATOM     19  C   UNL     1      -3.466  -9.264  10.181  0.00  0.00    +0.026 A 
ATOM     21  C   UNL     1      -2.285  -9.752  10.727  0.00  0.00    +0.002 A 
ATOM     31  H   UNL     1      -5.049 -12.080  14.374  0.00  0.00    +0.123 HD
ENDROOT
BRANCH  10  18
ATOM      1  O   UNL     1      -6.943  -9.841  16.981  0.00  0.00    -0.274 OA
ATOM      4  N   UNL     1      -5.583 -11.729  17.037  0.00  0.00    -0.314 N 
ATOM     18  C   UNL     1      -6.080 -10.560  16.485  0.00  0.00    +0.230 C 
ATOM     32  H   UNL     1      -4.868 -12.256  16.544  0.00  0.00    +0.149 HD
BRANCH   4  25
ATOM     25  C   UNL     1      -6.033 -12.260  18.303  0.00  0.00    +0.104 C 
BRANCH  25  26
ATOM     26  C   UNL     1      -5.216 -11.733  19.478  0.00  0.00    +0.015 C 
ATOM     30  C   UNL     1      -3.740 -12.092  19.374  0.00  0.00    +0.005 C 
ENDBRANCH  25  26
ENDBRANCH   4  25
ENDBRANCH  10  18
BRANCH   7  12
ATOM     12  C   UNL     1      -2.471 -12.304  14.226  0.00  0.00    +0.026 C 
BRANCH  12  15
ATOM     15  C   UNL     1      -3.230 -13.493  13.628  0.00  0.00    -0.015 C 
ATOM     22  C   UNL     1      -2.677 -13.921  12.267  0.00  0.00    +0.007 C 
ATOM     23  C   UNL     1      -3.172 -14.671  14.603  0.00  0.00    +0.007 C 
ENDBRANCH  12  15
ENDBRANCH   7  12
BRANCH   3  20
ATOM     20  C   UNL     1      -6.304  -8.266   9.454  0.00  0.00    +0.196 C 
BRANCH  20  24
ATOM      5  N   UNL     1      -6.759  -9.984   7.670  0.00  0.00    -0.336 N 
ATOM      6  N   UNL     1      -8.533  -9.200   8.750  0.00  0.00    -0.239 NA
ATOM     24  C   UNL     1      -7.224  -9.139   8.639  0.00  0.00    +0.129 A 
ATOM     27  C   UNL     1      -7.840 -10.624   7.129  0.00  0.00    +0.106 A 
ATOM     28  C   UNL     1      -5.384 -10.179   7.276  0.00  0.00    +0.150 C 
ATOM     29  C   UNL     1      -8.923 -10.122   7.812  0.00  0.00    +0.130 A 
ENDBRANCH  20  24
ENDBRANCH   3  20
TORSDOF 7
ENDMDL
MODEL 10
REMARK VINA RESULT:      -6.5     19.324     21.647
REMARK  Name = 51138098
REMARK  11 active torsions:
REMARK  status: ('A' for Active; 'I' for Inactive)
REMARK    1  A    between atoms: N_3  and  C_20
REMARK    2  A    between atoms: N_4  and  C_25
REMARK    3  A    between atoms: N_5  and  C_28
REMARK    4  A    between atoms: C_7  and  C_12
REMARK    5  A    between atoms: C_10  and  C_18
REMARK    6  A    between atoms: C_12  and  C_15
REMARK    7  A    between atoms: C_15  and  C_22
REMARK    8  A    between atoms: C_15  and  C_23
REMARK    9  A    between atoms: C_20  and  C_24
REMARK   10  A    between atoms: C_25  and  C_26
REMARK   11  A    between atoms: C_26  and  C_30
REMARK                            x       y       z     vdW  Elec       q    Type
REMARK                         _______ _______ _______ _____ _____    ______ ____
ROOT
ATOM      2  N   UNL     1     -14.538   7.479  23.189  0.00  0.00    -0.299 NA
ATOM      3  N   UNL     1     -11.056   8.947  19.838  0.00  0.00    -0.339 N 
ATOM      7  C   UNL     1     -14.856   8.877  22.871  0.00  0.00    +0.085 C 
ATOM      8  C   UNL     1     -13.830   9.617  22.006  0.00  0.00    -0.021 A 
ATOM      9  C   UNL     1     -12.810   8.995  21.229  0.00  0.00    +0.008 A 
ATOM     10  C   UNL     1     -14.485   6.591  22.037  0.00  0.00    +0.145 C 
ATOM     11  C   UNL     1     -12.428   7.629  20.992  0.00  0.00    -0.020 A 
ATOM     13  C   UNL     1     -13.053   6.392  21.545  0.00  0.00    +0.065 C 
ATOM     14  C   UNL     1     -11.942   9.787  20.469  0.00  0.00    +0.050 A 
ATOM     16  C   UNL     1     -11.341   7.648  20.140  0.00  0.00    +0.091 A 
ATOM     17  C   UNL     1     -13.929  11.027  21.892  0.00  0.00    +0.006 A 
ATOM     19  C   UNL     1     -12.027  11.179  20.407  0.00  0.00    +0.026 A 
ATOM     21  C   UNL     1     -13.049  11.788  21.125  0.00  0.00    +0.002 A 
ATOM     31  H   UNL     1     -13.683   7.417  23.742  0.00  0.00    +0.123 HD
ENDROOT
BRANCH  10  18
ATOM      1  O   UNL     1     -15.476   4.437  21.759  0.00  0.00    -0.274 OA
ATOM      4  N   UNL     1     -14.953   5.169  23.906  0.00  0.00    -0.314 N 
ATOM     18  C   UNL     1     -15.021   5.280  22.527  0.00  0.00    +0.230 C 
ATOM     32  H   UNL     1     -14.554   5.924  24.454  0.00  0.00    +0.149 HD
BRANCH   4  25
ATOM     25  C   UNL     1     -15.426   4.011  24.630  0.00  0.00    +0.104 C 
BRANCH  25  26
ATOM     26  C   UNL     1     -16.740   4.276  25.354  0.00  0.00    +0.015 C 
ATOM     30  C   UNL     1     -16.612   4.161  26.867  0.00  0.00    +0.005 C 
ENDBRANCH  25  26
ENDBRANCH   4  25
ENDBRANCH  10  18
BRANCH   7  12
ATOM     12  C   UNL     1     -15.068   9.550  24.239  0.00  0.00    +0.026 C 
BRANCH  12  15
ATOM     15  C   UNL     1     -16.482  10.112  24.416  0.00  0.00    -0.015 C 
ATOM     22  C   UNL     1     -16.494  11.629  24.611  0.00  0.00    +0.007 C 
ATOM     23  C   UNL     1     -17.330   9.741  23.198  0.00  0.00    +0.007 C 
ENDBRANCH  12  15
ENDBRANCH   7  12
BRANCH   3  20
ATOM     20  C   UNL     1      -9.982   9.360  18.961  0.00  0.00    +0.196 C 
BRANCH  20  24
ATOM      5  N   UNL     1     -10.519  10.255  16.669  0.00  0.00    -0.336 N 
ATOM      6  N   UNL     1     -10.416   8.045  16.859  0.00  0.00    -0.239 NA
ATOM     24  C   UNL     1     -10.305   9.189  17.498  0.00  0.00    +0.129 A 
ATOM     27  C   UNL     1     -10.784   9.760  15.423  0.00  0.00    +0.106 A 
ATOM     28  C   UNL     1     -10.478  11.653  17.026  0.00  0.00    +0.150 C 
ATOM     29  C   UNL     1     -10.716   8.394  15.566  0.00  0.00    +0.130 A 
ENDBRANCH  20  24
ENDBRANCH   3  20
TORSDOF 7
ENDMDL
