REMARK  Name = 40586225
REMARK  7 active torsions:
REMARK  status: ('A' for Active; 'I' for Inactive)
REMARK    1  A    between atoms: O_4  and  C_32
REMARK    2  A    between atoms: O_4  and  C_35
REMARK    3  A    between atoms: O_5  and  C_33
REMARK    4  A    between atoms: O_5  and  C_36
REMARK    5  A    between atoms: N_8  and  C_20
REMARK    6  A    between atoms: N_9  and  C_29
REMARK    7  A    between atoms: C_22  and  C_28
REMARK                            x       y       z     vdW  Elec       q    Type
REMARK                         _______ _______ _______ _____ _____    ______ ____
ROOT
ATOM      1  O   UNL     1       1.095   2.591  -2.002  0.00  0.00    -0.266 OA
ATOM      2  O   UNL     1       2.808  -2.188  -1.683  0.00  0.00    -0.252 OA
ATOM      6  N   UNL     1       2.541   1.826  -0.333  0.00  0.00    -0.310 N 
ATOM      7  N   UNL     1       3.870  -1.008  -0.003  0.00  0.00    -0.284 N 
ATOM      9  N   UNL     1       1.966  -2.314   0.476  0.00  0.00    -0.269 N 
ATOM     10  C   UNL     1       4.943   1.079  -0.819  0.00  0.00    +0.027 C 
ATOM     11  C   UNL     1       4.065   0.966   1.480  0.00  0.00    +0.054 C 
ATOM     12  C   UNL     1       5.212   1.501   0.622  0.00  0.00    +0.018 C 
ATOM     13  C   UNL     1       3.653   1.762  -1.293  0.00  0.00    +0.130 C 
ATOM     14  C   UNL     1       4.860  -0.456  -0.930  0.00  0.00    +0.114 C 
ATOM     15  C   UNL     1       4.044  -0.572   1.393  0.00  0.00    +0.119 C 
ATOM     16  C   UNL     1       2.732   1.526   1.020  0.00  0.00    +0.027 A 
ATOM     17  C   UNL     1       1.730   1.695   1.899  0.00  0.00    +0.024 A 
ATOM     18  C   UNL     1       1.306   2.297  -0.825  0.00  0.00    +0.273 A 
ATOM     19  C   UNL     1       2.873  -1.880  -0.490  0.00  0.00    +0.306 C 
ATOM     20  C   UNL     1       0.208   2.447   0.182  0.00  0.00    +0.099 A 
ATOM     21  C   UNL     1       0.443   2.164   1.468  0.00  0.00    +0.030 A 
ATOM     38  H   UNL     1       2.284  -2.390   1.435  0.00  0.00    +0.156 HD
ENDROOT
BRANCH   9  29
ATOM     29  C   UNL     1       0.607  -2.664   0.283  0.00  0.00    +0.042 A 
ATOM     30  C   UNL     1      -0.167  -3.081   1.366  0.00  0.00    +0.069 A 
ATOM     31  C   UNL     1       0.042  -2.591  -0.991  0.00  0.00    +0.069 A 
ATOM     32  C   UNL     1      -1.296  -2.935  -1.181  0.00  0.00    +0.125 A 
ATOM     33  C   UNL     1      -1.505  -3.425   1.176  0.00  0.00    +0.125 A 
ATOM     34  C   UNL     1      -2.070  -3.353  -0.098  0.00  0.00    +0.091 A 
BRANCH  32   4
ATOM      4  O   UNL     1      -1.848  -2.864  -2.423  0.00  0.00    -0.495 OA
ATOM     35  C   UNL     1      -3.221  -3.231  -2.546  0.00  0.00    +0.277 C 
ENDBRANCH  32   4
BRANCH  33   5
ATOM      5  O   UNL     1      -2.260  -3.833   2.233  0.00  0.00    -0.495 OA
ATOM     36  C   UNL     1      -3.621  -4.170   1.967  0.00  0.00    +0.277 C 
ENDBRANCH  33   5
ENDBRANCH   9  29
BRANCH  20   8
ATOM      3  O   UNL     1      -2.349   1.783   1.303  0.00  0.00    -0.275 OA
ATOM      8  N   UNL     1      -1.008   2.882  -0.257  0.00  0.00    -0.281 N 
ATOM     28  C   UNL     1      -2.210   2.533   0.339  0.00  0.00    +0.220 C 
ATOM     37  H   UNL     1      -1.035   3.297  -1.185  0.00  0.00    +0.155 HD
BRANCH  28  22
ATOM     22  C   UNL     1      -3.390   3.154  -0.349  0.00  0.00    +0.075 C 
ATOM     23  C   UNL     1      -3.862   2.289  -1.520  0.00  0.00    +0.013 C 
ATOM     24  C   UNL     1      -4.502   3.436   0.663  0.00  0.00    +0.013 C 
ATOM     25  C   UNL     1      -4.647   1.052  -1.085  0.00  0.00    +0.001 C 
ATOM     26  C   UNL     1      -5.264   2.180   1.082  0.00  0.00    +0.001 C 
ATOM     27  C   UNL     1      -5.778   1.405  -0.126  0.00  0.00    +0.000 C 
ENDBRANCH  28  22
ENDBRANCH  20   8
TORSDOF 5
