MODEL 1
REMARK VINA RESULT:      -6.3      0.000      0.000
REMARK  Name = 25339530
REMARK  13 active torsions:
REMARK  status: ('A' for Active; 'I' for Inactive)
REMARK    1  A    between atoms: O_1  and  C_14
REMARK    2  A    between atoms: N_4  and  C_10
REMARK    3  A    between atoms: N_4  and  C_21
REMARK    4  A    between atoms: N_5  and  C_29
REMARK    5  A    between atoms: N_6  and  C_30
REMARK    6  A    between atoms: C_7  and  C_15
REMARK    7  A    between atoms: C_9  and  C_17
REMARK    8  A    between atoms: C_9  and  C_18
REMARK    9  A    between atoms: C_14  and  C_20
REMARK   10  A    between atoms: C_15  and  C_19
REMARK   11  A    between atoms: C_19  and  C_23
REMARK   12  A    between atoms: C_21  and  C_22
REMARK   13  A    between atoms: C_29  and  C_30
REMARK                            x       y       z     vdW  Elec       q    Type
REMARK                         _______ _______ _______ _____ _____    ______ ____
ROOT
ATOM      7  C   UNL     1      -5.528 -11.826  15.950  0.00  0.00    -0.010 C 
ATOM      8  C   UNL     1      -5.561 -12.474  17.375  0.00  0.00    +0.005 C 
ATOM      9  C   UNL     1      -4.708 -11.505  18.288  0.00  0.00    -0.030 C 
ATOM     10  C   UNL     1      -4.072 -11.305  15.915  0.00  0.00    +0.061 C 
ATOM     11  C   UNL     1      -3.877 -10.651  17.291  0.00  0.00    +0.026 C 
ATOM     12  C   UNL     1      -5.876 -12.802  14.802  0.00  0.00    +0.011 C 
ATOM     13  C   UNL     1      -5.028 -13.928  17.391  0.00  0.00    +0.039 C 
ATOM     14  C   UNL     1      -5.603 -14.819  16.289  0.00  0.00    +0.064 C 
ATOM     16  C   UNL     1      -5.281 -14.198  14.928  0.00  0.00    +0.035 C 
ATOM     17  C   UNL     1      -5.636 -10.612  19.138  0.00  0.00    +0.011 C 
ATOM     18  C   UNL     1      -3.758 -12.199  19.284  0.00  0.00    +0.011 C 
ATOM     20  C   UNL     1      -5.026 -16.232  16.386  0.00  0.00    +0.041 C 
ENDROOT
BRANCH  14   1
ATOM      1  O   UNL     1      -7.017 -14.908  16.465  0.00  0.00    -0.389 OA
ATOM     36  H   UNL     1      -7.193 -15.093  17.403  0.00  0.00    +0.210 HD
ENDBRANCH  14   1
BRANCH  10   4
ATOM      4  N   UNL     1      -3.762 -10.382  14.831  0.00  0.00    -0.312 NA
ATOM     35  H   UNL     1      -4.623 -10.001  14.439  0.00  0.00    +0.122 HD
BRANCH   4  21
ATOM     21  C   UNL     1      -3.021 -11.055  13.772  0.00  0.00    +0.084 C 
BRANCH  21  22
ATOM     22  C   UNL     1      -3.619 -10.746  12.400  0.00  0.00    +0.003 C 
ATOM     24  C   UNL     1      -4.920  -9.945  12.542  0.00  0.00    +0.005 C 
ATOM     25  C   UNL     1      -2.606  -9.992  11.526  0.00  0.00    +0.005 C 
ATOM     26  C   UNL     1      -5.508  -9.578  11.183  0.00  0.00    +0.000 C 
ATOM     27  C   UNL     1      -3.199  -9.625  10.167  0.00  0.00    +0.000 C 
ATOM     28  C   UNL     1      -4.497  -8.837  10.314  0.00  0.00    +0.000 C 
ENDBRANCH  21  22
ENDBRANCH   4  21
ENDBRANCH  10   4
BRANCH   7  15
ATOM     15  C   UNL     1      -6.548 -10.661  15.828  0.00  0.00    +0.018 C 
BRANCH  15  19
ATOM     19  C   UNL     1      -7.906 -11.094  16.341  0.00  0.00    +0.096 C 
BRANCH  19  23
ATOM      2  O   UNL     1      -8.098  -8.860  17.256  0.00  0.00    -0.276 OA
ATOM      5  N   UNL     1      -9.900 -10.313  17.432  0.00  0.00    -0.314 N 
ATOM     23  C   UNL     1      -8.616  -9.955  17.051  0.00  0.00    +0.213 C 
ATOM     37  H   UNL     1     -10.249 -11.241  17.214  0.00  0.00    +0.149 HD
BRANCH   5  29
ATOM     29  C   UNL     1     -10.780  -9.402  18.127  0.00  0.00    +0.119 C 
BRANCH  29  30
ATOM     30  C   UNL     1     -12.042  -9.132  17.321  0.00  0.00    +0.103 C 
BRANCH  30   6
ATOM      3  O   UNL     1     -11.968  -5.645  14.987  0.00  0.00    -0.377 OA
ATOM      6  N   UNL     1     -11.759  -8.193  16.237  0.00  0.00    -0.297 NA
ATOM     31  C   UNL     1     -11.013  -7.029  16.735  0.00  0.00    +0.112 C 
ATOM     32  C   UNL     1     -13.003  -7.754  15.590  0.00  0.00    +0.112 C 
ATOM     33  C   UNL     1     -10.741  -6.058  15.590  0.00  0.00    +0.175 C 
ATOM     34  C   UNL     1     -12.683  -6.766  14.471  0.00  0.00    +0.175 C 
ENDBRANCH  30   6
ENDBRANCH  29  30
ENDBRANCH   5  29
ENDBRANCH  19  23
ENDBRANCH  15  19
ENDBRANCH   7  15
TORSDOF 10
ENDMDL
MODEL 2
REMARK VINA RESULT:      -6.3     27.317     30.808
REMARK  Name = 25339530
REMARK  13 active torsions:
REMARK  status: ('A' for Active; 'I' for Inactive)
REMARK    1  A    between atoms: O_1  and  C_14
REMARK    2  A    between atoms: N_4  and  C_10
REMARK    3  A    between atoms: N_4  and  C_21
REMARK    4  A    between atoms: N_5  and  C_29
REMARK    5  A    between atoms: N_6  and  C_30
REMARK    6  A    between atoms: C_7  and  C_15
REMARK    7  A    between atoms: C_9  and  C_17
REMARK    8  A    between atoms: C_9  and  C_18
REMARK    9  A    between atoms: C_14  and  C_20
REMARK   10  A    between atoms: C_15  and  C_19
REMARK   11  A    between atoms: C_19  and  C_23
REMARK   12  A    between atoms: C_21  and  C_22
REMARK   13  A    between atoms: C_29  and  C_30
REMARK                            x       y       z     vdW  Elec       q    Type
REMARK                         _______ _______ _______ _____ _____    ______ ____
ROOT
ATOM      7  C   UNL     1      18.803  -2.944  24.876  0.00  0.00    -0.010 C 
ATOM      8  C   UNL     1      18.106  -3.202  23.498  0.00  0.00    +0.005 C 
ATOM      9  C   UNL     1      16.827  -2.273  23.503  0.00  0.00    -0.030 C 
ATOM     10  C   UNL     1      17.564  -2.808  25.793  0.00  0.00    +0.061 C 
ATOM     11  C   UNL     1      16.608  -1.908  24.997  0.00  0.00    +0.026 C 
ATOM     12  C   UNL     1      19.787  -4.057  25.306  0.00  0.00    +0.011 C 
ATOM     13  C   UNL     1      17.757  -4.693  23.266  0.00  0.00    +0.039 C 
ATOM     14  C   UNL     1      18.900  -5.661  23.576  0.00  0.00    +0.064 C 
ATOM     16  C   UNL     1      19.322  -5.482  25.036  0.00  0.00    +0.035 C 
ATOM     17  C   UNL     1      17.078  -1.007  22.658  0.00  0.00    +0.011 C 
ATOM     18  C   UNL     1      15.542  -2.912  22.938  0.00  0.00    +0.011 C 
ATOM     20  C   UNL     1      18.468  -7.104  23.314  0.00  0.00    +0.041 C 
ENDROOT
BRANCH  14   1
ATOM      1  O   UNL     1      19.996  -5.366  22.709  0.00  0.00    -0.389 OA
ATOM     36  H   UNL     1      19.980  -6.004  21.977  0.00  0.00    +0.210 HD
ENDBRANCH  14   1
BRANCH  10   4
ATOM      4  N   UNL     1      17.825  -2.276  27.124  0.00  0.00    -0.312 NA
ATOM     35  H   UNL     1      18.732  -1.811  27.143  0.00  0.00    +0.122 HD
BRANCH   4  21
ATOM     21  C   UNL     1      17.819  -3.339  28.120  0.00  0.00    +0.084 C 
BRANCH  21  22
ATOM     22  C   UNL     1      17.907  -2.769  29.535  0.00  0.00    +0.003 C 
ATOM     24  C   UNL     1      19.072  -1.777  29.649  0.00  0.00    +0.005 C 
ATOM     25  C   UNL     1      16.582  -2.104  29.933  0.00  0.00    +0.005 C 
ATOM     26  C   UNL     1      19.147  -1.153  31.040  0.00  0.00    +0.000 C 
ATOM     27  C   UNL     1      16.661  -1.480  31.325  0.00  0.00    +0.000 C 
ATOM     28  C   UNL     1      17.826  -0.501  31.436  0.00  0.00    +0.000 C 
ENDBRANCH  21  22
ENDBRANCH   4  21
ENDBRANCH  10   4
BRANCH   7  15
ATOM     15  C   UNL     1      19.638  -1.635  24.858  0.00  0.00    +0.018 C 
BRANCH  15  19
ATOM     19  C   UNL     1      21.003  -1.873  25.471  0.00  0.00    +0.096 C 
BRANCH  19  23
ATOM      2  O   UNL     1      21.375   0.517  25.345  0.00  0.00    -0.276 OA
ATOM      5  N   UNL     1      23.202  -0.903  25.526  0.00  0.00    -0.314 N 
ATOM     23  C   UNL     1      21.849  -0.612  25.439  0.00  0.00    +0.213 C 
ATOM     37  H   UNL     1      23.504  -1.869  25.609  0.00  0.00    +0.149 HD
BRANCH   5  29
ATOM     29  C   UNL     1      24.214   0.127  25.515  0.00  0.00    +0.119 C 
BRANCH  29  30
ATOM     30  C   UNL     1      24.936   0.176  24.177  0.00  0.00    +0.103 C 
BRANCH  30   6
ATOM      3  O   UNL     1      23.736   3.043  21.356  0.00  0.00    -0.377 OA
ATOM      6  N   UNL     1      24.137   0.909  23.197  0.00  0.00    -0.297 NA
ATOM     31  C   UNL     1      24.808   0.933  21.889  0.00  0.00    +0.112 C 
ATOM     32  C   UNL     1      23.879   2.281  23.655  0.00  0.00    +0.112 C 
ATOM     33  C   UNL     1      23.964   1.714  20.887  0.00  0.00    +0.175 C 
ATOM     34  C   UNL     1      23.055   3.029  22.610  0.00  0.00    +0.175 C 
ENDBRANCH  30   6
ENDBRANCH  29  30
ENDBRANCH   5  29
ENDBRANCH  19  23
ENDBRANCH  15  19
ENDBRANCH   7  15
TORSDOF 10
ENDMDL
MODEL 3
REMARK VINA RESULT:      -6.2     24.774     28.401
REMARK  Name = 25339530
REMARK  13 active torsions:
REMARK  status: ('A' for Active; 'I' for Inactive)
REMARK    1  A    between atoms: O_1  and  C_14
REMARK    2  A    between atoms: N_4  and  C_10
REMARK    3  A    between atoms: N_4  and  C_21
REMARK    4  A    between atoms: N_5  and  C_29
REMARK    5  A    between atoms: N_6  and  C_30
REMARK    6  A    between atoms: C_7  and  C_15
REMARK    7  A    between atoms: C_9  and  C_17
REMARK    8  A    between atoms: C_9  and  C_18
REMARK    9  A    between atoms: C_14  and  C_20
REMARK   10  A    between atoms: C_15  and  C_19
REMARK   11  A    between atoms: C_19  and  C_23
REMARK   12  A    between atoms: C_21  and  C_22
REMARK   13  A    between atoms: C_29  and  C_30
REMARK                            x       y       z     vdW  Elec       q    Type
REMARK                         _______ _______ _______ _____ _____    ______ ____
ROOT
ATOM      7  C   UNL     1      10.214   6.798   4.969  0.00  0.00    -0.010 C 
ATOM      8  C   UNL     1      11.043   6.122   6.112  0.00  0.00    +0.005 C 
ATOM      9  C   UNL     1       9.966   5.543   7.115  0.00  0.00    -0.030 C 
ATOM     10  C   UNL     1       9.057   7.414   5.791  0.00  0.00    +0.061 C 
ATOM     11  C   UNL     1       8.652   6.293   6.761  0.00  0.00    +0.026 C 
ATOM     12  C   UNL     1      11.010   7.829   4.134  0.00  0.00    +0.011 C 
ATOM     13  C   UNL     1      12.033   7.095   6.800  0.00  0.00    +0.039 C 
ATOM     14  C   UNL     1      12.874   7.924   5.828  0.00  0.00    +0.064 C 
ATOM     16  C   UNL     1      11.940   8.736   4.928  0.00  0.00    +0.035 C 
ATOM     17  C   UNL     1       9.805   4.022   6.911  0.00  0.00    +0.011 C 
ATOM     18  C   UNL     1      10.281   5.740   8.611  0.00  0.00    +0.011 C 
ATOM     20  C   UNL     1      13.822   8.849   6.593  0.00  0.00    +0.041 C 
ENDROOT
BRANCH  14   1
ATOM      1  O   UNL     1      13.667   7.037   5.039  0.00  0.00    -0.389 OA
ATOM     36  H   UNL     1      13.953   7.516   4.242  0.00  0.00    +0.210 HD
ENDBRANCH  14   1
BRANCH  10   4
ATOM      4  N   UNL     1       7.921   7.891   5.014  0.00  0.00    -0.312 NA
ATOM     35  H   UNL     1       8.000   7.575   4.048  0.00  0.00    +0.122 HD
BRANCH   4  21
ATOM     21  C   UNL     1       7.856   9.347   5.029  0.00  0.00    +0.084 C 
BRANCH  21  22
ATOM     22  C   UNL     1       7.434   9.893   3.666  0.00  0.00    +0.003 C 
ATOM     24  C   UNL     1       7.899   8.960   2.540  0.00  0.00    +0.005 C 
ATOM     25  C   UNL     1       5.914  10.100   3.612  0.00  0.00    +0.005 C 
ATOM     26  C   UNL     1       7.443   9.457   1.171  0.00  0.00    +0.000 C 
ATOM     27  C   UNL     1       5.461  10.596   2.241  0.00  0.00    +0.000 C 
ATOM     28  C   UNL     1       5.933   9.670   1.124  0.00  0.00    +0.000 C 
ENDBRANCH  21  22
ENDBRANCH   4  21
ENDBRANCH  10   4
BRANCH   7  15
ATOM     15  C   UNL     1       9.689   5.754   3.948  0.00  0.00    +0.018 C 
BRANCH  15  19
ATOM     19  C   UNL     1      10.757   4.720   3.654  0.00  0.00    +0.096 C 
BRANCH  19  23
ATOM      2  O   UNL     1      11.009   5.324   1.323  0.00  0.00    -0.276 OA
ATOM      5  N   UNL     1      12.906   5.078   2.638  0.00  0.00    -0.314 N 
ATOM     23  C   UNL     1      11.539   5.075   2.403  0.00  0.00    +0.213 C 
ATOM     37  H   UNL     1      13.256   4.867   3.568  0.00  0.00    +0.149 HD
BRANCH   5  29
ATOM     29  C   UNL     1      13.866   5.385   1.604  0.00  0.00    +0.119 C 
BRANCH  29  30
ATOM     30  C   UNL     1      14.451   4.116   1.001  0.00  0.00    +0.103 C 
BRANCH  30   6
ATOM      3  O   UNL     1      12.197   4.295  -2.534  0.00  0.00    -0.377 OA
ATOM      6  N   UNL     1      14.055   3.991  -0.400  0.00  0.00    -0.297 NA
ATOM     31  C   UNL     1      13.755   5.310  -0.976  0.00  0.00    +0.112 C 
ATOM     32  C   UNL     1      12.891   3.106  -0.537  0.00  0.00    +0.112 C 
ATOM     33  C   UNL     1      13.332   5.154  -2.434  0.00  0.00    +0.175 C 
ATOM     34  C   UNL     1      12.490   3.002  -2.006  0.00  0.00    +0.175 C 
ENDBRANCH  30   6
ENDBRANCH  29  30
ENDBRANCH   5  29
ENDBRANCH  19  23
ENDBRANCH  15  19
ENDBRANCH   7  15
TORSDOF 10
ENDMDL
MODEL 4
REMARK VINA RESULT:      -6.2      3.225      6.109
REMARK  Name = 25339530
REMARK  13 active torsions:
REMARK  status: ('A' for Active; 'I' for Inactive)
REMARK    1  A    between atoms: O_1  and  C_14
REMARK    2  A    between atoms: N_4  and  C_10
REMARK    3  A    between atoms: N_4  and  C_21
REMARK    4  A    between atoms: N_5  and  C_29
REMARK    5  A    between atoms: N_6  and  C_30
REMARK    6  A    between atoms: C_7  and  C_15
REMARK    7  A    between atoms: C_9  and  C_17
REMARK    8  A    between atoms: C_9  and  C_18
REMARK    9  A    between atoms: C_14  and  C_20
REMARK   10  A    between atoms: C_15  and  C_19
REMARK   11  A    between atoms: C_19  and  C_23
REMARK   12  A    between atoms: C_21  and  C_22
REMARK   13  A    between atoms: C_29  and  C_30
REMARK                            x       y       z     vdW  Elec       q    Type
REMARK                         _______ _______ _______ _____ _____    ______ ____
ROOT
ATOM      7  C   UNL     1      -4.322 -11.721  12.954  0.00  0.00    -0.010 C 
ATOM      8  C   UNL     1      -3.555 -10.360  12.856  0.00  0.00    +0.005 C 
ATOM      9  C   UNL     1      -3.236 -10.177  11.318  0.00  0.00    -0.030 C 
ATOM     10  C   UNL     1      -3.552 -12.552  11.900  0.00  0.00    +0.061 C 
ATOM     11  C   UNL     1      -3.406 -11.595  10.707  0.00  0.00    +0.026 C 
ATOM     12  C   UNL     1      -4.325 -12.347  14.369  0.00  0.00    +0.011 C 
ATOM     13  C   UNL     1      -2.281 -10.318  13.737  0.00  0.00    +0.039 C 
ATOM     14  C   UNL     1      -2.492 -10.812  15.168  0.00  0.00    +0.064 C 
ATOM     16  C   UNL     1      -3.008 -12.252  15.128  0.00  0.00    +0.035 C 
ATOM     17  C   UNL     1      -4.224  -9.180  10.679  0.00  0.00    +0.011 C 
ATOM     18  C   UNL     1      -1.825  -9.645  10.993  0.00  0.00    +0.011 C 
ATOM     20  C   UNL     1      -1.188 -10.730  15.962  0.00  0.00    +0.041 C 
ENDROOT
BRANCH  14   1
ATOM      1  O   UNL     1      -3.449  -9.966  15.807  0.00  0.00    -0.389 OA
ATOM     36  H   UNL     1      -4.337 -10.277  15.562  0.00  0.00    +0.210 HD
ENDBRANCH  14   1
BRANCH  10   4
ATOM      4  N   UNL     1      -4.179 -13.808  11.510  0.00  0.00    -0.312 NA
ATOM     35  H   UNL     1      -4.826 -14.115  12.236  0.00  0.00    +0.122 HD
BRANCH   4  21
ATOM     21  C   UNL     1      -3.178 -14.846  11.302  0.00  0.00    +0.084 C 
BRANCH  21  22
ATOM     22  C   UNL     1      -3.067 -15.757  12.524  0.00  0.00    +0.003 C 
ATOM     24  C   UNL     1      -1.940 -15.284  13.452  0.00  0.00    +0.005 C 
ATOM     25  C   UNL     1      -4.404 -15.820  13.275  0.00  0.00    +0.005 C 
ATOM     26  C   UNL     1      -1.844 -16.147  14.707  0.00  0.00    +0.000 C 
ATOM     27  C   UNL     1      -4.304 -16.683  14.531  0.00  0.00    +0.000 C 
ATOM     28  C   UNL     1      -3.177 -16.215  15.447  0.00  0.00    +0.000 C 
ENDBRANCH  21  22
ENDBRANCH   4  21
ENDBRANCH  10   4
BRANCH   7  15
ATOM     15  C   UNL     1      -5.817 -11.565  12.567  0.00  0.00    +0.018 C 
BRANCH  15  19
ATOM     19  C   UNL     1      -6.345 -10.222  13.032  0.00  0.00    +0.096 C 
BRANCH  19  23
ATOM      2  O   UNL     1      -8.112 -11.054  14.462  0.00  0.00    -0.276 OA
ATOM      5  N   UNL     1      -6.543  -9.587  15.342  0.00  0.00    -0.314 N 
ATOM     23  C   UNL     1      -7.112 -10.353  14.336  0.00  0.00    +0.213 C 
ATOM     37  H   UNL     1      -5.709  -9.042  15.148  0.00  0.00    +0.149 HD
BRANCH   5  29
ATOM     29  C   UNL     1      -7.090  -9.541  16.678  0.00  0.00    +0.119 C 
BRANCH  29  30
ATOM     30  C   UNL     1      -6.311 -10.443  17.623  0.00  0.00    +0.103 C 
BRANCH  30   6
ATOM      3  O   UNL     1      -9.373 -12.449  19.676  0.00  0.00    -0.377 OA
ATOM      6  N   UNL     1      -7.180 -10.922  18.697  0.00  0.00    -0.297 NA
ATOM     31  C   UNL     1      -7.107 -12.386  18.812  0.00  0.00    +0.112 C 
ATOM     32  C   UNL     1      -8.569 -10.505  18.470  0.00  0.00    +0.112 C 
ATOM     33  C   UNL     1      -8.031 -12.865  19.928  0.00  0.00    +0.175 C 
ATOM     34  C   UNL     1      -9.458 -11.027  19.595  0.00  0.00    +0.175 C 
ENDBRANCH  30   6
ENDBRANCH  29  30
ENDBRANCH   5  29
ENDBRANCH  19  23
ENDBRANCH  15  19
ENDBRANCH   7  15
TORSDOF 10
ENDMDL
MODEL 5
REMARK VINA RESULT:      -6.1      2.747      7.566
REMARK  Name = 25339530
REMARK  13 active torsions:
REMARK  status: ('A' for Active; 'I' for Inactive)
REMARK    1  A    between atoms: O_1  and  C_14
REMARK    2  A    between atoms: N_4  and  C_10
REMARK    3  A    between atoms: N_4  and  C_21
REMARK    4  A    between atoms: N_5  and  C_29
REMARK    5  A    between atoms: N_6  and  C_30
REMARK    6  A    between atoms: C_7  and  C_15
REMARK    7  A    between atoms: C_9  and  C_17
REMARK    8  A    between atoms: C_9  and  C_18
REMARK    9  A    between atoms: C_14  and  C_20
REMARK   10  A    between atoms: C_15  and  C_19
REMARK   11  A    between atoms: C_19  and  C_23
REMARK   12  A    between atoms: C_21  and  C_22
REMARK   13  A    between atoms: C_29  and  C_30
REMARK                            x       y       z     vdW  Elec       q    Type
REMARK                         _______ _______ _______ _____ _____    ______ ____
ROOT
ATOM      7  C   UNL     1      -7.298 -10.511  16.791  0.00  0.00    -0.010 C 
ATOM      8  C   UNL     1      -7.578 -12.010  16.439  0.00  0.00    +0.005 C 
ATOM      9  C   UNL     1      -8.366 -11.972  15.070  0.00  0.00    -0.030 C 
ATOM     10  C   UNL     1      -8.621  -9.862  16.319  0.00  0.00    +0.061 C 
ATOM     11  C   UNL     1      -8.888 -10.513  14.953  0.00  0.00    +0.026 C 
ATOM     12  C   UNL     1      -6.971 -10.260  18.282  0.00  0.00    +0.011 C 
ATOM     13  C   UNL     1      -8.355 -12.759  17.552  0.00  0.00    +0.039 C 
ATOM     14  C   UNL     1      -7.797 -12.542  18.959  0.00  0.00    +0.064 C 
ATOM     16  C   UNL     1      -7.813 -11.046  19.278  0.00  0.00    +0.035 C 
ATOM     17  C   UNL     1      -7.424 -12.315  13.897  0.00  0.00    +0.011 C 
ATOM     18  C   UNL     1      -9.553 -12.951  14.960  0.00  0.00    +0.011 C 
ATOM     20  C   UNL     1      -8.621 -13.320  19.987  0.00  0.00    +0.041 C 
ENDROOT
BRANCH  14   1
ATOM      1  O   UNL     1      -6.459 -13.039  19.002  0.00  0.00    -0.389 OA
ATOM     36  H   UNL     1      -5.887 -12.404  18.539  0.00  0.00    +0.210 HD
ENDBRANCH  14   1
BRANCH  10   4
ATOM      4  N   UNL     1      -8.610  -8.408  16.230  0.00  0.00    -0.312 NA
ATOM     35  H   UNL     1      -7.719  -8.044  16.566  0.00  0.00    +0.122 HD
BRANCH   4  21
ATOM     21  C   UNL     1      -9.685  -7.831  17.028  0.00  0.00    +0.084 C 
BRANCH  21  22
ATOM     22  C   UNL     1     -10.951  -7.645  16.193  0.00  0.00    +0.003 C 
ATOM     24  C   UNL     1     -12.119  -8.439  16.794  0.00  0.00    +0.005 C 
ATOM     25  C   UNL     1     -11.306  -6.156  16.074  0.00  0.00    +0.005 C 
ATOM     26  C   UNL     1     -13.409  -8.225  16.008  0.00  0.00    +0.000 C 
ATOM     27  C   UNL     1     -12.599  -5.946  15.289  0.00  0.00    +0.000 C 
ATOM     28  C   UNL     1     -13.754  -6.744  15.885  0.00  0.00    +0.000 C 
ENDBRANCH  21  22
ENDBRANCH   4  21
ENDBRANCH  10   4
BRANCH   7  15
ATOM     15  C   UNL     1      -6.083  -9.955  16.000  0.00  0.00    +0.018 C 
BRANCH  15  19
ATOM     19  C   UNL     1      -4.833  -9.996  16.856  0.00  0.00    +0.096 C 
BRANCH  19  23
ATOM      2  O   UNL     1      -2.540 -10.452  16.228  0.00  0.00    -0.276 OA
ATOM      5  N   UNL     1      -4.217 -11.878  15.493  0.00  0.00    -0.314 N 
ATOM     23  C   UNL     1      -3.723 -10.776  16.174  0.00  0.00    +0.213 C 
ATOM     37  H   UNL     1      -5.214 -12.073  15.509  0.00  0.00    +0.149 HD
BRANCH   5  29
ATOM     29  C   UNL     1      -3.360 -12.780  14.760  0.00  0.00    +0.119 C 
BRANCH  29  30
ATOM     30  C   UNL     1      -3.672 -12.750  13.271  0.00  0.00    +0.103 C 
BRANCH  30   6
ATOM      3  O   UNL     1      -2.679  -9.668  10.602  0.00  0.00    -0.377 OA
ATOM      6  N   UNL     1      -3.403 -11.423  12.723  0.00  0.00    -0.297 NA
ATOM     31  C   UNL     1      -4.336 -11.111  11.631  0.00  0.00    +0.112 C 
ATOM     32  C   UNL     1      -2.018 -11.327  12.244  0.00  0.00    +0.112 C 
ATOM     33  C   UNL     1      -4.029  -9.727  11.066  0.00  0.00    +0.175 C 
ATOM     34  C   UNL     1      -1.765  -9.937  11.665  0.00  0.00    +0.175 C 
ENDBRANCH  30   6
ENDBRANCH  29  30
ENDBRANCH   5  29
ENDBRANCH  19  23
ENDBRANCH  15  19
ENDBRANCH   7  15
TORSDOF 10
ENDMDL
MODEL 6
REMARK VINA RESULT:      -6.1     25.378     28.481
REMARK  Name = 25339530
REMARK  13 active torsions:
REMARK  status: ('A' for Active; 'I' for Inactive)
REMARK    1  A    between atoms: O_1  and  C_14
REMARK    2  A    between atoms: N_4  and  C_10
REMARK    3  A    between atoms: N_4  and  C_21
REMARK    4  A    between atoms: N_5  and  C_29
REMARK    5  A    between atoms: N_6  and  C_30
REMARK    6  A    between atoms: C_7  and  C_15
REMARK    7  A    between atoms: C_9  and  C_17
REMARK    8  A    between atoms: C_9  and  C_18
REMARK    9  A    between atoms: C_14  and  C_20
REMARK   10  A    between atoms: C_15  and  C_19
REMARK   11  A    between atoms: C_19  and  C_23
REMARK   12  A    between atoms: C_21  and  C_22
REMARK   13  A    between atoms: C_29  and  C_30
REMARK                            x       y       z     vdW  Elec       q    Type
REMARK                         _______ _______ _______ _____ _____    ______ ____
ROOT
ATOM      7  C   UNL     1      11.486   5.055   1.018  0.00  0.00    -0.010 C 
ATOM      8  C   UNL     1      12.570   6.136   1.343  0.00  0.00    +0.005 C 
ATOM      9  C   UNL     1      11.930   7.510   0.894  0.00  0.00    -0.030 C 
ATOM     10  C   UNL     1      10.931   5.609  -0.316  0.00  0.00    +0.061 C 
ATOM     11  C   UNL     1      10.765   7.113  -0.054  0.00  0.00    +0.026 C 
ATOM     12  C   UNL     1      12.038   3.613   0.920  0.00  0.00    +0.011 C 
ATOM     13  C   UNL     1      13.928   5.859   0.650  0.00  0.00    +0.039 C 
ATOM     14  C   UNL     1      14.422   4.418   0.793  0.00  0.00    +0.064 C 
ATOM     16  C   UNL     1      13.374   3.471   0.205  0.00  0.00    +0.035 C 
ATOM     17  C   UNL     1      11.403   8.284   2.121  0.00  0.00    +0.011 C 
ATOM     18  C   UNL     1      12.882   8.477   0.160  0.00  0.00    +0.011 C 
ATOM     20  C   UNL     1      15.766   4.240   0.085  0.00  0.00    +0.041 C 
ENDROOT
BRANCH  14   1
ATOM      1  O   UNL     1      14.615   4.137   2.179  0.00  0.00    -0.389 OA
ATOM     36  H   UNL     1      15.134   3.318   2.251  0.00  0.00    +0.210 HD
ENDBRANCH  14   1
BRANCH  10   4
ATOM      4  N   UNL     1       9.691   5.002  -0.780  0.00  0.00    -0.312 NA
ATOM     35  H   UNL     1       9.589   4.068  -0.383  0.00  0.00    +0.122 HD
BRANCH   4  21
ATOM     21  C   UNL     1       9.674   4.899  -2.233  0.00  0.00    +0.084 C 
BRANCH  21  22
ATOM     22  C   UNL     1      11.022   4.419  -2.768  0.00  0.00    +0.003 C 
ATOM     24  C   UNL     1      11.100   2.887  -2.744  0.00  0.00    +0.005 C 
ATOM     25  C   UNL     1      11.265   4.957  -4.185  0.00  0.00    +0.005 C 
ATOM     26  C   UNL     1      12.418   2.381  -3.324  0.00  0.00    +0.000 C 
ATOM     27  C   UNL     1      12.584   4.447  -4.762  0.00  0.00    +0.000 C 
ATOM     28  C   UNL     1      12.661   2.924  -4.729  0.00  0.00    +0.000 C 
ENDBRANCH  21  22
ENDBRANCH   4  21
ENDBRANCH  10   4
BRANCH   7  15
ATOM     15  C   UNL     1      10.384   5.005   2.110  0.00  0.00    +0.018 C 
BRANCH  15  19
ATOM     19  C   UNL     1      10.938   4.418   3.392  0.00  0.00    +0.096 C 
BRANCH  19  23
ATOM      2  O   UNL     1      11.557   6.194   4.918  0.00  0.00    -0.276 OA
ATOM      5  N   UNL     1       9.500   5.149   5.174  0.00  0.00    -0.314 N 
ATOM     23  C   UNL     1      10.728   5.359   4.565  0.00  0.00    +0.213 C 
ATOM     37  H   UNL     1       8.873   4.439   4.809  0.00  0.00    +0.149 HD
BRANCH   5  29
ATOM     29  C   UNL     1       9.064   5.919   6.316  0.00  0.00    +0.119 C 
BRANCH  29  30
ATOM     30  C   UNL     1       8.047   6.977   5.912  0.00  0.00    +0.103 C 
BRANCH  30   6
ATOM      3  O   UNL     1      10.427  10.161   7.257  0.00  0.00    -0.377 OA
ATOM      6  N   UNL     1       8.460   8.290   6.403  0.00  0.00    -0.297 NA
ATOM     31  C   UNL     1       9.365   8.944   5.447  0.00  0.00    +0.112 C 
ATOM     32  C   UNL     1       9.111   8.175   7.714  0.00  0.00    +0.112 C 
ATOM     33  C   UNL     1       9.792  10.306   5.986  0.00  0.00    +0.175 C 
ATOM     34  C   UNL     1       9.543   9.556   8.200  0.00  0.00    +0.175 C 
ENDBRANCH  30   6
ENDBRANCH  29  30
ENDBRANCH   5  29
ENDBRANCH  19  23
ENDBRANCH  15  19
ENDBRANCH   7  15
TORSDOF 10
ENDMDL
MODEL 7
REMARK VINA RESULT:      -6.1     15.237     20.490
REMARK  Name = 25339530
REMARK  13 active torsions:
REMARK  status: ('A' for Active; 'I' for Inactive)
REMARK    1  A    between atoms: O_1  and  C_14
REMARK    2  A    between atoms: N_4  and  C_10
REMARK    3  A    between atoms: N_4  and  C_21
REMARK    4  A    between atoms: N_5  and  C_29
REMARK    5  A    between atoms: N_6  and  C_30
REMARK    6  A    between atoms: C_7  and  C_15
REMARK    7  A    between atoms: C_9  and  C_17
REMARK    8  A    between atoms: C_9  and  C_18
REMARK    9  A    between atoms: C_14  and  C_20
REMARK   10  A    between atoms: C_15  and  C_19
REMARK   11  A    between atoms: C_19  and  C_23
REMARK   12  A    between atoms: C_21  and  C_22
REMARK   13  A    between atoms: C_29  and  C_30
REMARK                            x       y       z     vdW  Elec       q    Type
REMARK                         _______ _______ _______ _____ _____    ______ ____
ROOT
ATOM      7  C   UNL     1       0.826 -14.018  -4.492  0.00  0.00    -0.010 C 
ATOM      8  C   UNL     1       0.669 -13.386  -5.915  0.00  0.00    +0.005 C 
ATOM      9  C   UNL     1       1.033 -14.548  -6.924  0.00  0.00    -0.030 C 
ATOM     10  C   UNL     1       2.072 -14.908  -4.718  0.00  0.00    +0.061 C 
ATOM     11  C   UNL     1       1.801 -15.591  -6.067  0.00  0.00    +0.026 C 
ATOM     12  C   UNL     1       0.990 -12.983  -3.354  0.00  0.00    +0.011 C 
ATOM     13  C   UNL     1       1.547 -12.126  -6.119  0.00  0.00    +0.039 C 
ATOM     14  C   UNL     1       1.464 -11.113  -4.976  0.00  0.00    +0.064 C 
ATOM     16  C   UNL     1       1.888 -11.796  -3.674  0.00  0.00    +0.035 C 
ATOM     17  C   UNL     1      -0.250 -15.163  -7.521  0.00  0.00    +0.011 C 
ATOM     18  C   UNL     1       1.904 -14.133  -8.127  0.00  0.00    +0.011 C 
ATOM     20  C   UNL     1       2.356  -9.904  -5.264  0.00  0.00    +0.041 C 
ENDROOT
BRANCH  14   1
ATOM      1  O   UNL     1       0.117 -10.651  -4.871  0.00  0.00    -0.389 OA
ATOM     36  H   UNL     1       0.140  -9.705  -4.650  0.00  0.00    +0.210 HD
ENDBRANCH  14   1
BRANCH  10   4
ATOM      4  N   UNL     1       2.348 -15.878  -3.667  0.00  0.00    -0.312 NA
ATOM     35  H   UNL     1       1.559 -15.933  -3.025  0.00  0.00    +0.122 HD
BRANCH   4  21
ATOM     21  C   UNL     1       3.541 -15.507  -2.917  0.00  0.00    +0.084 C 
BRANCH  21  22
ATOM     22  C   UNL     1       3.229 -15.352  -1.429  0.00  0.00    +0.003 C 
ATOM     24  C   UNL     1       3.538 -13.925  -0.956  0.00  0.00    +0.005 C 
ATOM     25  C   UNL     1       1.767 -15.719  -1.142  0.00  0.00    +0.005 C 
ATOM     26  C   UNL     1       3.184 -13.731   0.516  0.00  0.00    +0.000 C 
ATOM     27  C   UNL     1       1.416 -15.522   0.332  0.00  0.00    +0.000 C 
ATOM     28  C   UNL     1       1.732 -14.105   0.800  0.00  0.00    +0.000 C 
ENDBRANCH  21  22
ENDBRANCH   4  21
ENDBRANCH  10   4
BRANCH   7  15
ATOM     15  C   UNL     1      -0.413 -14.869  -4.104  0.00  0.00    +0.018 C 
BRANCH  15  19
ATOM     19  C   UNL     1      -1.679 -14.048  -4.238  0.00  0.00    +0.096 C 
BRANCH  19  23
ATOM      2  O   UNL     1      -3.512 -14.865  -2.883  0.00  0.00    -0.276 OA
ATOM      5  N   UNL     1      -2.055 -13.296  -1.986  0.00  0.00    -0.314 N 
ATOM     23  C   UNL     1      -2.529 -14.136  -2.983  0.00  0.00    +0.213 C 
ATOM     37  H   UNL     1      -1.227 -12.733  -2.155  0.00  0.00    +0.149 HD
BRANCH   5  29
ATOM     29  C   UNL     1      -2.693 -13.197  -0.694  0.00  0.00    +0.119 C 
BRANCH  29  30
ATOM     30  C   UNL     1      -2.153 -14.244   0.269  0.00  0.00    +0.103 C 
BRANCH  30   6
ATOM      3  O   UNL     1      -2.558 -13.422   4.364  0.00  0.00    -0.377 OA
ATOM      6  N   UNL     1      -1.952 -13.660   1.593  0.00  0.00    -0.297 NA
ATOM     31  C   UNL     1      -1.544 -14.689   2.560  0.00  0.00    +0.112 C 
ATOM     32  C   UNL     1      -3.173 -12.989   2.058  0.00  0.00    +0.112 C 
ATOM     33  C   UNL     1      -1.353 -14.059   3.937  0.00  0.00    +0.175 C 
ATOM     34  C   UNL     1      -2.944 -12.399   3.447  0.00  0.00    +0.175 C 
ENDBRANCH  30   6
ENDBRANCH  29  30
ENDBRANCH   5  29
ENDBRANCH  19  23
ENDBRANCH  15  19
ENDBRANCH   7  15
TORSDOF 10
ENDMDL
MODEL 8
REMARK VINA RESULT:      -6.0     18.849     21.968
REMARK  Name = 25339530
REMARK  13 active torsions:
REMARK  status: ('A' for Active; 'I' for Inactive)
REMARK    1  A    between atoms: O_1  and  C_14
REMARK    2  A    between atoms: N_4  and  C_10
REMARK    3  A    between atoms: N_4  and  C_21
REMARK    4  A    between atoms: N_5  and  C_29
REMARK    5  A    between atoms: N_6  and  C_30
REMARK    6  A    between atoms: C_7  and  C_15
REMARK    7  A    between atoms: C_9  and  C_17
REMARK    8  A    between atoms: C_9  and  C_18
REMARK    9  A    between atoms: C_14  and  C_20
REMARK   10  A    between atoms: C_15  and  C_19
REMARK   11  A    between atoms: C_19  and  C_23
REMARK   12  A    between atoms: C_21  and  C_22
REMARK   13  A    between atoms: C_29  and  C_30
REMARK                            x       y       z     vdW  Elec       q    Type
REMARK                         _______ _______ _______ _____ _____    ______ ____
ROOT
ATOM      7  C   UNL     1     -14.746   7.354  21.126  0.00  0.00    -0.010 C 
ATOM      8  C   UNL     1     -15.639   6.212  20.534  0.00  0.00    +0.005 C 
ATOM      9  C   UNL     1     -16.779   6.955  19.730  0.00  0.00    -0.030 C 
ATOM     10  C   UNL     1     -15.831   8.394  21.493  0.00  0.00    +0.061 C 
ATOM     11  C   UNL     1     -16.758   8.413  20.268  0.00  0.00    +0.026 C 
ATOM     12  C   UNL     1     -13.865   6.915  22.319  0.00  0.00    +0.011 C 
ATOM     13  C   UNL     1     -16.202   5.259  21.619  0.00  0.00    +0.039 C 
ATOM     14  C   UNL     1     -15.161   4.776  22.629  0.00  0.00    +0.064 C 
ATOM     16  C   UNL     1     -14.538   5.988  23.323  0.00  0.00    +0.035 C 
ATOM     17  C   UNL     1     -16.477   6.923  18.216  0.00  0.00    +0.011 C 
ATOM     18  C   UNL     1     -18.196   6.369  19.892  0.00  0.00    +0.011 C 
ATOM     20  C   UNL     1     -15.803   3.840  23.655  0.00  0.00    +0.041 C 
ENDROOT
BRANCH  14   1
ATOM      1  O   UNL     1     -14.156   4.039  21.932  0.00  0.00    -0.389 OA
ATOM     36  H   UNL     1     -14.198   3.115  22.230  0.00  0.00    +0.210 HD
ENDBRANCH  14   1
BRANCH  10   4
ATOM      4  N   UNL     1     -15.338   9.726  21.817  0.00  0.00    -0.312 NA
ATOM     35  H   UNL     1     -14.333   9.775  21.657  0.00  0.00    +0.122 HD
BRANCH   4  21
ATOM     21  C   UNL     1     -15.609  10.056  23.210  0.00  0.00    +0.084 C 
BRANCH  21  22
ATOM     22  C   UNL     1     -14.441  10.819  23.833  0.00  0.00    +0.003 C 
ATOM     24  C   UNL     1     -14.171  10.326  25.260  0.00  0.00    +0.005 C 
ATOM     25  C   UNL     1     -13.184  10.688  22.962  0.00  0.00    +0.005 C 
ATOM     26  C   UNL     1     -12.973  11.037  25.884  0.00  0.00    +0.000 C 
ATOM     27  C   UNL     1     -11.987  11.399  23.590  0.00  0.00    +0.000 C 
ATOM     28  C   UNL     1     -11.728  10.912  25.012  0.00  0.00    +0.000 C 
ENDBRANCH  21  22
ENDBRANCH   4  21
ENDBRANCH  10   4
BRANCH   7  15
ATOM     15  C   UNL     1     -13.760   7.916  20.066  0.00  0.00    +0.018 C 
BRANCH  15  19
ATOM     19  C   UNL     1     -12.385   7.307  20.250  0.00  0.00    +0.096 C 
BRANCH  19  23
ATOM      2  O   UNL     1     -10.584   8.858  19.790  0.00  0.00    -0.276 OA
ATOM      5  N   UNL     1     -11.403   7.534  18.068  0.00  0.00    -0.314 N 
ATOM     23  C   UNL     1     -11.355   7.997  19.374  0.00  0.00    +0.213 C 
ATOM     37  H   UNL     1     -12.070   6.811  17.816  0.00  0.00    +0.149 HD
BRANCH   5  29
ATOM     29  C   UNL     1     -10.522   8.035  17.039  0.00  0.00    +0.119 C 
BRANCH  29  30
ATOM     30  C   UNL     1     -11.310   8.649  15.891  0.00  0.00    +0.103 C 
BRANCH  30   6
ATOM      3  O   UNL     1     -10.639  12.791  15.903  0.00  0.00    -0.377 OA
ATOM      6  N   UNL     1     -10.779   9.969  15.560  0.00  0.00    -0.297 NA
ATOM     31  C   UNL     1     -10.113  10.571  16.725  0.00  0.00    +0.112 C 
ATOM     32  C   UNL     1     -11.846  10.856  15.079  0.00  0.00    +0.112 C 
ATOM     33  C   UNL     1      -9.579  11.952  16.361  0.00  0.00    +0.175 C 
ATOM     34  C   UNL     1     -11.270  12.231  14.752  0.00  0.00    +0.175 C 
ENDBRANCH  30   6
ENDBRANCH  29  30
ENDBRANCH   5  29
ENDBRANCH  19  23
ENDBRANCH  15  19
ENDBRANCH   7  15
TORSDOF 10
ENDMDL
MODEL 9
REMARK VINA RESULT:      -5.9     24.559     28.906
REMARK  Name = 25339530
REMARK  13 active torsions:
REMARK  status: ('A' for Active; 'I' for Inactive)
REMARK    1  A    between atoms: O_1  and  C_14
REMARK    2  A    between atoms: N_4  and  C_10
REMARK    3  A    between atoms: N_4  and  C_21
REMARK    4  A    between atoms: N_5  and  C_29
REMARK    5  A    between atoms: N_6  and  C_30
REMARK    6  A    between atoms: C_7  and  C_15
REMARK    7  A    between atoms: C_9  and  C_17
REMARK    8  A    between atoms: C_9  and  C_18
REMARK    9  A    between atoms: C_14  and  C_20
REMARK   10  A    between atoms: C_15  and  C_19
REMARK   11  A    between atoms: C_19  and  C_23
REMARK   12  A    between atoms: C_21  and  C_22
REMARK   13  A    between atoms: C_29  and  C_30
REMARK                            x       y       z     vdW  Elec       q    Type
REMARK                         _______ _______ _______ _____ _____    ______ ____
ROOT
ATOM      7  C   UNL     1       9.653   7.630   6.384  0.00  0.00    -0.010 C 
ATOM      8  C   UNL     1      10.526   6.390   5.993  0.00  0.00    +0.005 C 
ATOM      9  C   UNL     1      10.369   6.253   4.426  0.00  0.00    -0.030 C 
ATOM     10  C   UNL     1       8.452   7.438   5.427  0.00  0.00    +0.061 C 
ATOM     11  C   UNL     1       9.102   7.085   4.081  0.00  0.00    +0.026 C 
ATOM     12  C   UNL     1       9.264   7.683   7.880  0.00  0.00    +0.011 C 
ATOM     13  C   UNL     1      10.117   5.099   6.747  0.00  0.00    +0.039 C 
ATOM     14  C   UNL     1       9.937   5.284   8.254  0.00  0.00    +0.064 C 
ATOM     16  C   UNL     1       8.869   6.351   8.502  0.00  0.00    +0.035 C 
ATOM     17  C   UNL     1      11.612   6.820   3.710  0.00  0.00    +0.011 C 
ATOM     18  C   UNL     1      10.195   4.814   3.901  0.00  0.00    +0.011 C 
ATOM     20  C   UNL     1       9.540   3.962   8.913  0.00  0.00    +0.041 C 
ENDROOT
BRANCH  14   1
ATOM      1  O   UNL     1      11.183   5.697   8.816  0.00  0.00    -0.389 OA
ATOM     36  H   UNL     1      10.995   6.252   9.591  0.00  0.00    +0.210 HD
ENDBRANCH  14   1
BRANCH  10   4
ATOM      4  N   UNL     1       7.555   8.579   5.311  0.00  0.00    -0.312 NA
ATOM     35  H   UNL     1       6.611   8.311   5.585  0.00  0.00    +0.122 HD
BRANCH   4  21
ATOM     21  C   UNL     1       7.523   9.077   3.942  0.00  0.00    +0.084 C 
BRANCH  21  22
ATOM     22  C   UNL     1       7.048  10.528   3.894  0.00  0.00    +0.003 C 
ATOM     24  C   UNL     1       5.527  10.608   4.080  0.00  0.00    +0.005 C 
ATOM     25  C   UNL     1       7.773  11.370   4.954  0.00  0.00    +0.005 C 
ATOM     26  C   UNL     1       5.035  12.053   4.090  0.00  0.00    +0.000 C 
ATOM     27  C   UNL     1       7.277  12.814   4.963  0.00  0.00    +0.000 C 
ATOM     28  C   UNL     1       5.763  12.888   5.139  0.00  0.00    +0.000 C 
ENDBRANCH  21  22
ENDBRANCH   4  21
ENDBRANCH  10   4
BRANCH   7  15
ATOM     15  C   UNL     1      10.394   8.963   6.100  0.00  0.00    +0.018 C 
BRANCH  15  19
ATOM     19  C   UNL     1      11.036   9.491   7.367  0.00  0.00    +0.096 C 
BRANCH  19  23
ATOM      2  O   UNL     1      13.072  10.798   7.455  0.00  0.00    -0.276 OA
ATOM      5  N   UNL     1      13.158   8.626   6.641  0.00  0.00    -0.314 N 
ATOM     23  C   UNL     1      12.522   9.737   7.173  0.00  0.00    +0.213 C 
ATOM     37  H   UNL     1      12.622   7.786   6.446  0.00  0.00    +0.149 HD
BRANCH   5  29
ATOM     29  C   UNL     1      14.574   8.609   6.362  0.00  0.00    +0.119 C 
BRANCH  29  30
ATOM     30  C   UNL     1      14.859   9.036   4.929  0.00  0.00    +0.103 C 
BRANCH  30   6
ATOM      3  O   UNL     1      18.914   8.000   4.633  0.00  0.00    -0.377 OA
ATOM      6  N   UNL     1      16.300   9.122   4.702  0.00  0.00    -0.297 NA
ATOM     31  C   UNL     1      16.714   8.205   3.631  0.00  0.00    +0.112 C 
ATOM     32  C   UNL     1      17.041   8.824   5.935  0.00  0.00    +0.112 C 
ATOM     33  C   UNL     1      18.222   8.301   3.421  0.00  0.00    +0.175 C 
ATOM     34  C   UNL     1      18.542   8.907   5.670  0.00  0.00    +0.175 C 
ENDBRANCH  30   6
ENDBRANCH  29  30
ENDBRANCH   5  29
ENDBRANCH  19  23
ENDBRANCH  15  19
ENDBRANCH   7  15
TORSDOF 10
ENDMDL
MODEL 10
REMARK VINA RESULT:      -5.9     25.630     29.796
REMARK  Name = 25339530
REMARK  13 active torsions:
REMARK  status: ('A' for Active; 'I' for Inactive)
REMARK    1  A    between atoms: O_1  and  C_14
REMARK    2  A    between atoms: N_4  and  C_10
REMARK    3  A    between atoms: N_4  and  C_21
REMARK    4  A    between atoms: N_5  and  C_29
REMARK    5  A    between atoms: N_6  and  C_30
REMARK    6  A    between atoms: C_7  and  C_15
REMARK    7  A    between atoms: C_9  and  C_17
REMARK    8  A    between atoms: C_9  and  C_18
REMARK    9  A    between atoms: C_14  and  C_20
REMARK   10  A    between atoms: C_15  and  C_19
REMARK   11  A    between atoms: C_19  and  C_23
REMARK   12  A    between atoms: C_21  and  C_22
REMARK   13  A    between atoms: C_29  and  C_30
REMARK                            x       y       z     vdW  Elec       q    Type
REMARK                         _______ _______ _______ _____ _____    ______ ____
ROOT
ATOM      7  C   UNL     1      13.152   8.117   4.708  0.00  0.00    -0.010 C 
ATOM      8  C   UNL     1      14.262   9.213   4.582  0.00  0.00    +0.005 C 
ATOM      9  C   UNL     1      15.533   8.597   5.291  0.00  0.00    -0.030 C 
ATOM     10  C   UNL     1      13.449   7.583   6.130  0.00  0.00    +0.061 C 
ATOM     11  C   UNL     1      14.977   7.435   6.160  0.00  0.00    +0.026 C 
ATOM     12  C   UNL     1      11.712   8.649   4.523  0.00  0.00    +0.011 C 
ATOM     13  C   UNL     1      13.842  10.574   5.193  0.00  0.00    +0.039 C 
ATOM     14  C   UNL     1      12.449  11.046   4.773  0.00  0.00    +0.064 C 
ATOM     16  C   UNL     1      11.420   9.991   5.182  0.00  0.00    +0.035 C 
ATOM     17  C   UNL     1      16.532   8.069   4.240  0.00  0.00    +0.011 C 
ATOM     18  C   UNL     1      16.331   9.568   6.184  0.00  0.00    +0.011 C 
ATOM     20  C   UNL     1      12.123  12.394   5.417  0.00  0.00    +0.041 C 
ENDROOT
BRANCH  14   1
ATOM      1  O   UNL     1      12.435  11.222   3.356  0.00  0.00    -0.389 OA
ATOM     36  H   UNL     1      11.527  11.442   3.089  0.00  0.00    +0.210 HD
ENDBRANCH  14   1
BRANCH  10   4
ATOM      4  N   UNL     1      12.779   6.339   6.485  0.00  0.00    -0.312 NA
ATOM     35  H   UNL     1      12.231   5.999   5.695  0.00  0.00    +0.122 HD
BRANCH   4  21
ATOM     21  C   UNL     1      11.893   6.532   7.624  0.00  0.00    +0.084 C 
BRANCH  21  22
ATOM     22  C   UNL     1      10.433   6.312   7.230  0.00  0.00    +0.003 C 
ATOM     24  C   UNL     1       9.672   7.645   7.203  0.00  0.00    +0.005 C 
ATOM     25  C   UNL     1      10.340   5.601   5.873  0.00  0.00    +0.005 C 
ATOM     26  C   UNL     1       8.224   7.458   6.759  0.00  0.00    +0.000 C 
ATOM     27  C   UNL     1       8.890   5.417   5.432  0.00  0.00    +0.000 C 
ATOM     28  C   UNL     1       8.135   6.743   5.414  0.00  0.00    +0.000 C 
ENDBRANCH  21  22
ENDBRANCH   4  21
ENDBRANCH  10   4
BRANCH   7  15
ATOM     15  C   UNL     1      13.324   7.004   3.640  0.00  0.00    +0.018 C 
BRANCH  15  19
ATOM     19  C   UNL     1      11.991   6.682   2.995  0.00  0.00    +0.096 C 
BRANCH  19  23
ATOM      2  O   UNL     1      11.203   5.104   1.336  0.00  0.00    -0.276 OA
ATOM      5  N   UNL     1      13.283   4.773   2.313  0.00  0.00    -0.314 N 
ATOM     23  C   UNL     1      12.087   5.447   2.116  0.00  0.00    +0.213 C 
ATOM     37  H   UNL     1      13.961   5.135   2.976  0.00  0.00    +0.149 HD
BRANCH   5  29
ATOM     29  C   UNL     1      13.613   3.564   1.594  0.00  0.00    +0.119 C 
BRANCH  29  30
ATOM     30  C   UNL     1      14.567   3.851   0.443  0.00  0.00    +0.103 C 
BRANCH  30   6
ATOM      3  O   UNL     1      12.979   3.471  -3.423  0.00  0.00    -0.377 OA
ATOM      6  N   UNL     1      13.817   4.121  -0.781  0.00  0.00    -0.297 NA
ATOM     31  C   UNL     1      12.834   3.058  -1.037  0.00  0.00    +0.112 C 
ATOM     32  C   UNL     1      14.723   4.255  -1.930  0.00  0.00    +0.112 C 
ATOM     33  C   UNL     1      12.073   3.354  -2.326  0.00  0.00    +0.175 C 
ATOM     34  C   UNL     1      13.916   4.524  -3.197  0.00  0.00    +0.175 C 
ENDBRANCH  30   6
ENDBRANCH  29  30
ENDBRANCH   5  29
ENDBRANCH  19  23
ENDBRANCH  15  19
ENDBRANCH   7  15
TORSDOF 10
ENDMDL
