MODEL 1
REMARK VINA RESULT:      -6.1      0.000      0.000
REMARK  Name = 86769007
REMARK  12 active torsions:
REMARK  status: ('A' for Active; 'I' for Inactive)
REMARK    1  A    between atoms: O_2  and  C_8
REMARK    2  A    between atoms: N_4  and  C_7
REMARK    3  A    between atoms: N_4  and  C_12
REMARK    4  A    between atoms: N_5  and  C_13
REMARK    5  A    between atoms: N_6  and  C_18
REMARK    6  A    between atoms: C_9  and  C_13
REMARK    7  A    between atoms: C_11  and  C_12
REMARK    8  A    between atoms: C_11  and  C_14
REMARK    9  A    between atoms: C_11  and  C_15
REMARK   10  A    between atoms: C_11  and  C_16
REMARK   11  A    between atoms: C_18  and  C_19
REMARK   12  A    between atoms: C_18  and  C_20
REMARK                            x       y       z     vdW  Elec       q    Type
REMARK                         _______ _______ _______ _____ _____    ______ ____
ROOT
ATOM      1  O   UNL     1      11.225   8.835  20.170  0.00  0.00    -0.371 OA
ATOM      7  C   UNL     1      12.501   6.887  19.702  0.00  0.00    +0.111 C 
ATOM      8  C   UNL     1      12.141   6.901  21.176  0.00  0.00    +0.164 C 
ATOM      9  C   UNL     1      10.949   7.849  21.178  0.00  0.00    +0.165 C 
ATOM     10  C   UNL     1      12.280   8.343  19.325  0.00  0.00    +0.181 C 
ENDROOT
BRANCH   8   2
ATOM      2  O   UNL     1      11.796   5.619  21.666  0.00  0.00    -0.388 OA
ATOM     22  H   UNL     1      11.030   5.714  22.257  0.00  0.00    +0.210 HD
ENDBRANCH   8   2
BRANCH   7   4
ATOM      4  N   UNL     1      13.856   6.433  19.437  0.00  0.00    -0.308 NA
ATOM     21  H   UNL     1      13.895   6.034  18.500  0.00  0.00    +0.122 HD
BRANCH   4  12
ATOM     12  C   UNL     1      14.807   7.534  19.532  0.00  0.00    +0.087 C 
BRANCH  12  11
ATOM     11  C   UNL     1      16.146   7.157  20.215  0.00  0.00    -0.025 C 
ATOM     14  C   UNL     1      17.000   6.253  19.307  0.00  0.00    +0.012 C 
ATOM     15  C   UNL     1      15.895   6.439  21.554  0.00  0.00    +0.012 C 
ATOM     16  C   UNL     1      16.930   8.453  20.491  0.00  0.00    +0.012 C 
ENDBRANCH  12  11
ENDBRANCH   4  12
ENDBRANCH   7   4
BRANCH   9  13
ATOM     13  C   UNL     1      10.727   8.532  22.516  0.00  0.00    +0.140 C 
BRANCH  13   5
ATOM      3  O   UNL     1      11.121  10.567  24.524  0.00  0.00    -0.253 OA
ATOM      5  N   UNL     1      10.556   9.948  22.358  0.00  0.00    -0.297 N 
ATOM      6  N   UNL     1      10.531  12.175  22.959  0.00  0.00    -0.297 N 
ATOM     17  C   UNL     1      10.769  10.870  23.385  0.00  0.00    +0.300 C 
ATOM     23  H   UNL     1      10.251  10.295  21.454  0.00  0.00    +0.150 HD
ATOM     24  H   UNL     1      10.317  12.332  21.979  0.00  0.00    +0.150 HD
BRANCH   6  18
ATOM     18  C   UNL     1      10.677  13.320  23.827  0.00  0.00    +0.068 C 
ATOM     19  C   UNL     1      12.085  13.894  23.723  0.00  0.00    +0.027 C 
ATOM     20  C   UNL     1       9.627  14.373  23.496  0.00  0.00    +0.027 C 
ENDBRANCH   6  18
ENDBRANCH  13   5
ENDBRANCH   9  13
TORSDOF 7
ENDMDL
MODEL 2
REMARK VINA RESULT:      -5.8      1.927      2.466
REMARK  Name = 86769007
REMARK  12 active torsions:
REMARK  status: ('A' for Active; 'I' for Inactive)
REMARK    1  A    between atoms: O_2  and  C_8
REMARK    2  A    between atoms: N_4  and  C_7
REMARK    3  A    between atoms: N_4  and  C_12
REMARK    4  A    between atoms: N_5  and  C_13
REMARK    5  A    between atoms: N_6  and  C_18
REMARK    6  A    between atoms: C_9  and  C_13
REMARK    7  A    between atoms: C_11  and  C_12
REMARK    8  A    between atoms: C_11  and  C_14
REMARK    9  A    between atoms: C_11  and  C_15
REMARK   10  A    between atoms: C_11  and  C_16
REMARK   11  A    between atoms: C_18  and  C_19
REMARK   12  A    between atoms: C_18  and  C_20
REMARK                            x       y       z     vdW  Elec       q    Type
REMARK                         _______ _______ _______ _____ _____    ______ ____
ROOT
ATOM      1  O   UNL     1      10.504   8.253  19.963  0.00  0.00    -0.371 OA
ATOM      7  C   UNL     1      12.625   7.633  19.092  0.00  0.00    +0.111 C 
ATOM      8  C   UNL     1      12.645   7.478  20.601  0.00  0.00    +0.164 C 
ATOM      9  C   UNL     1      11.156   7.388  20.906  0.00  0.00    +0.165 C 
ATOM     10  C   UNL     1      11.427   8.549  18.899  0.00  0.00    +0.181 C 
ENDROOT
BRANCH   8   2
ATOM      2  O   UNL     1      13.341   6.320  21.022  0.00  0.00    -0.388 OA
ATOM     22  H   UNL     1      14.240   6.351  20.650  0.00  0.00    +0.210 HD
ENDBRANCH   8   2
BRANCH   7   4
ATOM      4  N   UNL     1      13.854   8.186  18.546  0.00  0.00    -0.308 NA
ATOM     21  H   UNL     1      14.155   7.612  17.760  0.00  0.00    +0.122 HD
BRANCH   4  12
ATOM     12  C   UNL     1      13.657   9.559  18.094  0.00  0.00    +0.087 C 
BRANCH  12  11
ATOM     11  C   UNL     1      14.428  10.615  18.925  0.00  0.00    -0.025 C 
ATOM     14  C   UNL     1      15.420   9.947  19.893  0.00  0.00    +0.012 C 
ATOM     15  C   UNL     1      13.455  11.500  19.725  0.00  0.00    +0.012 C 
ATOM     16  C   UNL     1      15.220  11.510  17.953  0.00  0.00    +0.012 C 
ENDBRANCH  12  11
ENDBRANCH   4  12
ENDBRANCH   7   4
BRANCH   9  13
ATOM     13  C   UNL     1      10.806   7.815  22.321  0.00  0.00    +0.140 C 
BRANCH  13   5
ATOM      3  O   UNL     1      12.388  10.156  22.908  0.00  0.00    -0.253 OA
ATOM      5  N   UNL     1      10.355   9.176  22.359  0.00  0.00    -0.297 N 
ATOM      6  N   UNL     1      10.493  11.465  22.620  0.00  0.00    -0.297 N 
ATOM     17  C   UNL     1      11.189  10.258  22.652  0.00  0.00    +0.300 C 
ATOM     23  H   UNL     1       9.374   9.360  22.175  0.00  0.00    +0.150 HD
ATOM     24  H   UNL     1       9.522  11.454  22.325  0.00  0.00    +0.150 HD
BRANCH   6  18
ATOM     18  C   UNL     1      11.121  12.737  22.889  0.00  0.00    +0.068 C 
ATOM     19  C   UNL     1      11.002  13.658  21.680  0.00  0.00    +0.027 C 
ATOM     20  C   UNL     1      10.514  13.376  24.131  0.00  0.00    +0.027 C 
ENDBRANCH   6  18
ENDBRANCH  13   5
ENDBRANCH   9  13
TORSDOF 7
ENDMDL
MODEL 3
REMARK VINA RESULT:      -5.7     29.029     30.969
REMARK  Name = 86769007
REMARK  12 active torsions:
REMARK  status: ('A' for Active; 'I' for Inactive)
REMARK    1  A    between atoms: O_2  and  C_8
REMARK    2  A    between atoms: N_4  and  C_7
REMARK    3  A    between atoms: N_4  and  C_12
REMARK    4  A    between atoms: N_5  and  C_13
REMARK    5  A    between atoms: N_6  and  C_18
REMARK    6  A    between atoms: C_9  and  C_13
REMARK    7  A    between atoms: C_11  and  C_12
REMARK    8  A    between atoms: C_11  and  C_14
REMARK    9  A    between atoms: C_11  and  C_15
REMARK   10  A    between atoms: C_11  and  C_16
REMARK   11  A    between atoms: C_18  and  C_19
REMARK   12  A    between atoms: C_18  and  C_20
REMARK                            x       y       z     vdW  Elec       q    Type
REMARK                         _______ _______ _______ _____ _____    ______ ____
ROOT
ATOM      1  O   UNL     1     -13.193   3.651  31.877  0.00  0.00    -0.371 OA
ATOM      7  C   UNL     1     -14.511   3.775  33.849  0.00  0.00    +0.111 C 
ATOM      8  C   UNL     1     -14.802   2.466  33.141  0.00  0.00    +0.164 C 
ATOM      9  C   UNL     1     -13.560   2.320  32.272  0.00  0.00    +0.165 C 
ATOM     10  C   UNL     1     -13.875   4.586  32.732  0.00  0.00    +0.181 C 
ENDROOT
BRANCH   8   2
ATOM      2  O   UNL     1     -14.949   1.381  34.037  0.00  0.00    -0.388 OA
ATOM     22  H   UNL     1     -15.740   0.876  33.779  0.00  0.00    +0.210 HD
ENDBRANCH   8   2
BRANCH   7   4
ATOM      4  N   UNL     1     -15.693   4.411  34.408  0.00  0.00    -0.308 NA
ATOM     21  H   UNL     1     -15.458   4.809  35.316  0.00  0.00    +0.122 HD
BRANCH   4  12
ATOM     12  C   UNL     1     -16.185   5.468  33.531  0.00  0.00    +0.087 C 
BRANCH  12  11
ATOM     11  C   UNL     1     -17.590   5.194  32.938  0.00  0.00    -0.025 C 
ATOM     14  C   UNL     1     -18.425   4.298  33.871  0.00  0.00    +0.012 C 
ATOM     15  C   UNL     1     -17.480   4.524  31.556  0.00  0.00    +0.012 C 
ATOM     16  C   UNL     1     -18.317   6.542  32.775  0.00  0.00    +0.012 C 
ENDBRANCH  12  11
ENDBRANCH   4  12
ENDBRANCH   7   4
BRANCH   9  13
ATOM     13  C   UNL     1     -13.787   1.463  31.039  0.00  0.00    +0.140 C 
BRANCH  13   5
ATOM      3  O   UNL     1     -16.295   1.791  29.649  0.00  0.00    -0.253 OA
ATOM      5  N   UNL     1     -14.034   2.272  29.880  0.00  0.00    -0.297 N 
ATOM      6  N   UNL     1     -15.241   3.226  28.161  0.00  0.00    -0.297 N 
ATOM     17  C   UNL     1     -15.284   2.377  29.264  0.00  0.00    +0.300 C 
ATOM     23  H   UNL     1     -13.255   2.783  29.478  0.00  0.00    +0.150 HD
ATOM     24  H   UNL     1     -14.377   3.724  27.967  0.00  0.00    +0.150 HD
BRANCH   6  18
ATOM     18  C   UNL     1     -16.400   3.508  27.346  0.00  0.00    +0.068 C 
ATOM     19  C   UNL     1     -16.986   4.869  27.703  0.00  0.00    +0.027 C 
ATOM     20  C   UNL     1     -16.038   3.434  25.868  0.00  0.00    +0.027 C 
ENDBRANCH   6  18
ENDBRANCH  13   5
ENDBRANCH   9  13
TORSDOF 7
ENDMDL
MODEL 4
REMARK VINA RESULT:      -5.6      3.976      7.865
REMARK  Name = 86769007
REMARK  12 active torsions:
REMARK  status: ('A' for Active; 'I' for Inactive)
REMARK    1  A    between atoms: O_2  and  C_8
REMARK    2  A    between atoms: N_4  and  C_7
REMARK    3  A    between atoms: N_4  and  C_12
REMARK    4  A    between atoms: N_5  and  C_13
REMARK    5  A    between atoms: N_6  and  C_18
REMARK    6  A    between atoms: C_9  and  C_13
REMARK    7  A    between atoms: C_11  and  C_12
REMARK    8  A    between atoms: C_11  and  C_14
REMARK    9  A    between atoms: C_11  and  C_15
REMARK   10  A    between atoms: C_11  and  C_16
REMARK   11  A    between atoms: C_18  and  C_19
REMARK   12  A    between atoms: C_18  and  C_20
REMARK                            x       y       z     vdW  Elec       q    Type
REMARK                         _______ _______ _______ _____ _____    ______ ____
ROOT
ATOM      1  O   UNL     1      14.894   7.956  22.292  0.00  0.00    -0.371 OA
ATOM      7  C   UNL     1      13.863   6.623  20.618  0.00  0.00    +0.111 C 
ATOM      8  C   UNL     1      15.261   6.994  20.163  0.00  0.00    +0.164 C 
ATOM      9  C   UNL     1      15.919   7.345  21.491  0.00  0.00    +0.165 C 
ATOM     10  C   UNL     1      13.615   7.658  21.704  0.00  0.00    +0.181 C 
ENDROOT
BRANCH   8   2
ATOM      2  O   UNL     1      15.925   5.927  19.513  0.00  0.00    -0.388 OA
ATOM     22  H   UNL     1      15.737   5.986  18.560  0.00  0.00    +0.210 HD
ENDBRANCH   8   2
BRANCH   7   4
ATOM      4  N   UNL     1      12.872   6.670  19.556  0.00  0.00    -0.308 NA
ATOM     21  H   UNL     1      11.973   6.942  19.952  0.00  0.00    +0.122 HD
BRANCH   4  12
ATOM     12  C   UNL     1      13.253   7.628  18.524  0.00  0.00    +0.087 C 
BRANCH  12  11
ATOM     11  C   UNL     1      12.261   8.808  18.359  0.00  0.00    -0.025 C 
ATOM     14  C   UNL     1      11.047   8.650  19.291  0.00  0.00    +0.012 C 
ATOM     15  C   UNL     1      11.774   8.913  16.903  0.00  0.00    +0.012 C 
ATOM     16  C   UNL     1      12.995  10.110  18.728  0.00  0.00    +0.012 C 
ENDBRANCH  12  11
ENDBRANCH   4  12
ENDBRANCH   7   4
BRANCH   9  13
ATOM     13  C   UNL     1      17.093   8.297  21.347  0.00  0.00    +0.140 C 
BRANCH  13   5
ATOM      3  O   UNL     1      18.771   6.370  20.006  0.00  0.00    -0.253 OA
ATOM      5  N   UNL     1      18.304   7.710  21.845  0.00  0.00    -0.297 N 
ATOM      6  N   UNL     1      20.186   6.375  21.846  0.00  0.00    -0.297 N 
ATOM     17  C   UNL     1      19.062   6.780  21.129  0.00  0.00    +0.300 C 
ATOM     23  H   UNL     1      18.619   7.976  22.773  0.00  0.00    +0.150 HD
ATOM     24  H   UNL     1      20.381   6.827  22.734  0.00  0.00    +0.150 HD
BRANCH   6  18
ATOM     18  C   UNL     1      21.138   5.417  21.333  0.00  0.00    +0.068 C 
ATOM     19  C   UNL     1      22.196   6.116  20.487  0.00  0.00    +0.027 C 
ATOM     20  C   UNL     1      21.772   4.637  22.476  0.00  0.00    +0.027 C 
ENDBRANCH   6  18
ENDBRANCH  13   5
ENDBRANCH   9  13
TORSDOF 7
ENDMDL
MODEL 5
REMARK VINA RESULT:      -5.4     27.441     29.829
REMARK  Name = 86769007
REMARK  12 active torsions:
REMARK  status: ('A' for Active; 'I' for Inactive)
REMARK    1  A    between atoms: O_2  and  C_8
REMARK    2  A    between atoms: N_4  and  C_7
REMARK    3  A    between atoms: N_4  and  C_12
REMARK    4  A    between atoms: N_5  and  C_13
REMARK    5  A    between atoms: N_6  and  C_18
REMARK    6  A    between atoms: C_9  and  C_13
REMARK    7  A    between atoms: C_11  and  C_12
REMARK    8  A    between atoms: C_11  and  C_14
REMARK    9  A    between atoms: C_11  and  C_15
REMARK   10  A    between atoms: C_11  and  C_16
REMARK   11  A    between atoms: C_18  and  C_19
REMARK   12  A    between atoms: C_18  and  C_20
REMARK                            x       y       z     vdW  Elec       q    Type
REMARK                         _______ _______ _______ _____ _____    ______ ____
ROOT
ATOM      1  O   UNL     1     -12.457  -8.086  15.364  0.00  0.00    -0.371 OA
ATOM      7  C   UNL     1     -11.805  -6.075  14.281  0.00  0.00    +0.111 C 
ATOM      8  C   UNL     1     -11.027  -6.214  15.576  0.00  0.00    +0.164 C 
ATOM      9  C   UNL     1     -11.152  -7.710  15.834  0.00  0.00    +0.165 C 
ATOM     10  C   UNL     1     -12.959  -7.036  14.518  0.00  0.00    +0.181 C 
ENDROOT
BRANCH   8   2
ATOM      2  O   UNL     1      -9.677  -5.813  15.448  0.00  0.00    -0.388 OA
ATOM     22  H   UNL     1      -9.293  -5.741  16.339  0.00  0.00    +0.210 HD
ENDBRANCH   8   2
BRANCH   7   4
ATOM      4  N   UNL     1     -12.246  -4.717  14.009  0.00  0.00    -0.308 NA
ATOM     21  H   UNL     1     -11.613  -4.292  13.334  0.00  0.00    +0.122 HD
BRANCH   4  12
ATOM     12  C   UNL     1     -13.603  -4.703  13.474  0.00  0.00    +0.087 C 
BRANCH  12  11
ATOM     11  C   UNL     1     -13.717  -4.087  12.056  0.00  0.00    -0.025 C 
ATOM     14  C   UNL     1     -14.860  -3.058  11.986  0.00  0.00    +0.012 C 
ATOM     15  C   UNL     1     -13.954  -5.183  11.001  0.00  0.00    +0.012 C 
ATOM     16  C   UNL     1     -12.393  -3.371  11.733  0.00  0.00    +0.012 C 
ENDBRANCH  12  11
ENDBRANCH   4  12
ENDBRANCH   7   4
BRANCH   9  13
ATOM     13  C   UNL     1     -11.009  -8.081  17.299  0.00  0.00    +0.140 C 
BRANCH  13   5
ATOM      3  O   UNL     1      -9.439 -10.501  17.210  0.00  0.00    -0.253 OA
ATOM      5  N   UNL     1      -9.630  -8.231  17.667  0.00  0.00    -0.297 N 
ATOM      6  N   UNL     1      -7.617  -9.307  18.010  0.00  0.00    -0.297 N 
ATOM     17  C   UNL     1      -8.939  -9.444  17.594  0.00  0.00    +0.300 C 
ATOM     23  H   UNL     1      -9.134  -7.415  18.011  0.00  0.00    +0.150 HD
ATOM     24  H   UNL     1      -7.277  -8.377  18.237  0.00  0.00    +0.150 HD
BRANCH   6  18
ATOM     18  C   UNL     1      -6.686 -10.410  18.033  0.00  0.00    +0.068 C 
ATOM     19  C   UNL     1      -5.575 -10.193  17.012  0.00  0.00    +0.027 C 
ATOM     20  C   UNL     1      -6.119 -10.595  19.434  0.00  0.00    +0.027 C 
ENDBRANCH   6  18
ENDBRANCH  13   5
ENDBRANCH   9  13
TORSDOF 7
ENDMDL
MODEL 6
REMARK VINA RESULT:      -5.3      3.576      6.503
REMARK  Name = 86769007
REMARK  12 active torsions:
REMARK  status: ('A' for Active; 'I' for Inactive)
REMARK    1  A    between atoms: O_2  and  C_8
REMARK    2  A    between atoms: N_4  and  C_7
REMARK    3  A    between atoms: N_4  and  C_12
REMARK    4  A    between atoms: N_5  and  C_13
REMARK    5  A    between atoms: N_6  and  C_18
REMARK    6  A    between atoms: C_9  and  C_13
REMARK    7  A    between atoms: C_11  and  C_12
REMARK    8  A    between atoms: C_11  and  C_14
REMARK    9  A    between atoms: C_11  and  C_15
REMARK   10  A    between atoms: C_11  and  C_16
REMARK   11  A    between atoms: C_18  and  C_19
REMARK   12  A    between atoms: C_18  and  C_20
REMARK                            x       y       z     vdW  Elec       q    Type
REMARK                         _______ _______ _______ _____ _____    ______ ____
ROOT
ATOM      1  O   UNL     1      14.252   7.876  18.956  0.00  0.00    -0.371 OA
ATOM      7  C   UNL     1      13.380   7.933  21.165  0.00  0.00    +0.111 C 
ATOM      8  C   UNL     1      12.230   7.991  20.177  0.00  0.00    +0.164 C 
ATOM      9  C   UNL     1      12.889   7.424  18.926  0.00  0.00    +0.165 C 
ATOM     10  C   UNL     1      14.553   8.337  20.285  0.00  0.00    +0.181 C 
ENDROOT
BRANCH   8   2
ATOM      2  O   UNL     1      11.120   7.215  20.586  0.00  0.00    -0.388 OA
ATOM     22  H   UNL     1      10.519   7.117  19.827  0.00  0.00    +0.210 HD
ENDBRANCH   8   2
BRANCH   7   4
ATOM      4  N   UNL     1      13.207   8.806  22.313  0.00  0.00    -0.308 NA
ATOM     21  H   UNL     1      14.002   8.690  22.941  0.00  0.00    +0.122 HD
BRANCH   4  12
ATOM     12  C   UNL     1      13.118  10.203  21.903  0.00  0.00    +0.087 C 
BRANCH  12  11
ATOM     11  C   UNL     1      11.972  10.991  22.587  0.00  0.00    -0.025 C 
ATOM     14  C   UNL     1      12.463  11.688  23.869  0.00  0.00    +0.012 C 
ATOM     15  C   UNL     1      10.798  10.058  22.935  0.00  0.00    +0.012 C 
ATOM     16  C   UNL     1      11.472  12.066  21.605  0.00  0.00    +0.012 C 
ENDBRANCH  12  11
ENDBRANCH   4  12
ENDBRANCH   7   4
BRANCH   9  13
ATOM     13  C   UNL     1      12.224   7.880  17.639  0.00  0.00    +0.140 C 
BRANCH  13   5
ATOM      3  O   UNL     1      13.531   8.630  15.178  0.00  0.00    -0.253 OA
ATOM      5  N   UNL     1      12.667   9.191  17.260  0.00  0.00    -0.297 N 
ATOM      6  N   UNL     1      13.617  10.822  15.934  0.00  0.00    -0.297 N 
ATOM     17  C   UNL     1      13.294   9.472  16.043  0.00  0.00    +0.300 C 
ATOM     23  H   UNL     1      12.528   9.952  17.917  0.00  0.00    +0.150 HD
ATOM     24  H   UNL     1      13.313  11.453  16.669  0.00  0.00    +0.150 HD
BRANCH   6  18
ATOM     18  C   UNL     1      14.275  11.378  14.774  0.00  0.00    +0.068 C 
ATOM     19  C   UNL     1      13.787  12.798  14.512  0.00  0.00    +0.027 C 
ATOM     20  C   UNL     1      15.787  11.338  14.952  0.00  0.00    +0.027 C 
ENDBRANCH   6  18
ENDBRANCH  13   5
ENDBRANCH   9  13
TORSDOF 7
ENDMDL
MODEL 7
REMARK VINA RESULT:      -5.3     25.935     28.559
REMARK  Name = 86769007
REMARK  12 active torsions:
REMARK  status: ('A' for Active; 'I' for Inactive)
REMARK    1  A    between atoms: O_2  and  C_8
REMARK    2  A    between atoms: N_4  and  C_7
REMARK    3  A    between atoms: N_4  and  C_12
REMARK    4  A    between atoms: N_5  and  C_13
REMARK    5  A    between atoms: N_6  and  C_18
REMARK    6  A    between atoms: C_9  and  C_13
REMARK    7  A    between atoms: C_11  and  C_12
REMARK    8  A    between atoms: C_11  and  C_14
REMARK    9  A    between atoms: C_11  and  C_15
REMARK   10  A    between atoms: C_11  and  C_16
REMARK   11  A    between atoms: C_18  and  C_19
REMARK   12  A    between atoms: C_18  and  C_20
REMARK                            x       y       z     vdW  Elec       q    Type
REMARK                         _______ _______ _______ _____ _____    ______ ____
ROOT
ATOM      1  O   UNL     1      -8.510 -11.200  18.806  0.00  0.00    -0.371 OA
ATOM      7  C   UNL     1      -9.240  -9.389  17.454  0.00  0.00    +0.111 C 
ATOM      8  C   UNL     1      -7.724  -9.383  17.512  0.00  0.00    +0.164 C 
ATOM      9  C   UNL     1      -7.441 -10.822  17.924  0.00  0.00    +0.165 C 
ATOM     10  C   UNL     1      -9.584 -10.255  18.655  0.00  0.00    +0.181 C 
ENDROOT
BRANCH   8   2
ATOM      2  O   UNL     1      -7.131  -9.065  16.267  0.00  0.00    -0.388 OA
ATOM     22  H   UNL     1      -7.121  -8.097  16.173  0.00  0.00    +0.210 HD
ENDBRANCH   8   2
BRANCH   7   4
ATOM      4  N   UNL     1      -9.831  -8.063  17.524  0.00  0.00    -0.308 NA
ATOM     21  H   UNL     1      -9.334  -7.444  16.885  0.00  0.00    +0.122 HD
BRANCH   4  12
ATOM     12  C   UNL     1     -11.244  -8.097  17.162  0.00  0.00    +0.087 C 
BRANCH  12  11
ATOM     11  C   UNL     1     -11.580  -7.334  15.856  0.00  0.00    -0.025 C 
ATOM     14  C   UNL     1     -11.488  -8.260  14.630  0.00  0.00    +0.012 C 
ATOM     15  C   UNL     1     -10.631  -6.138  15.660  0.00  0.00    +0.012 C 
ATOM     16  C   UNL     1     -13.022  -6.805  15.963  0.00  0.00    +0.012 C 
ENDBRANCH  12  11
ENDBRANCH   4  12
ENDBRANCH   7   4
BRANCH   9  13
ATOM     13  C   UNL     1      -6.108 -10.993  18.630  0.00  0.00    +0.140 C 
BRANCH  13   5
ATOM      3  O   UNL     1      -4.383 -12.316  16.732  0.00  0.00    -0.253 OA
ATOM      5  N   UNL     1      -5.039 -10.404  17.876  0.00  0.00    -0.297 N 
ATOM      6  N   UNL     1      -3.285 -10.302  16.380  0.00  0.00    -0.297 N 
ATOM     17  C   UNL     1      -4.247 -11.117  16.972  0.00  0.00    +0.300 C 
ATOM     23  H   UNL     1      -4.839  -9.419  18.018  0.00  0.00    +0.150 HD
ATOM     24  H   UNL     1      -3.301  -9.308  16.587  0.00  0.00    +0.150 HD
BRANCH   6  18
ATOM     18  C   UNL     1      -2.336 -10.792  15.408  0.00  0.00    +0.068 C 
ATOM     19  C   UNL     1      -2.878 -10.613  13.994  0.00  0.00    +0.027 C 
ATOM     20  C   UNL     1      -0.995 -10.091  15.577  0.00  0.00    +0.027 C 
ENDBRANCH   6  18
ENDBRANCH  13   5
ENDBRANCH   9  13
TORSDOF 7
ENDMDL
MODEL 8
REMARK VINA RESULT:      -5.3     15.583     17.740
REMARK  Name = 86769007
REMARK  12 active torsions:
REMARK  status: ('A' for Active; 'I' for Inactive)
REMARK    1  A    between atoms: O_2  and  C_8
REMARK    2  A    between atoms: N_4  and  C_7
REMARK    3  A    between atoms: N_4  and  C_12
REMARK    4  A    between atoms: N_5  and  C_13
REMARK    5  A    between atoms: N_6  and  C_18
REMARK    6  A    between atoms: C_9  and  C_13
REMARK    7  A    between atoms: C_11  and  C_12
REMARK    8  A    between atoms: C_11  and  C_14
REMARK    9  A    between atoms: C_11  and  C_15
REMARK   10  A    between atoms: C_11  and  C_16
REMARK   11  A    between atoms: C_18  and  C_19
REMARK   12  A    between atoms: C_18  and  C_20
REMARK                            x       y       z     vdW  Elec       q    Type
REMARK                         _______ _______ _______ _____ _____    ______ ____
ROOT
ATOM      1  O   UNL     1      -1.284  -2.000  23.519  0.00  0.00    -0.371 OA
ATOM      7  C   UNL     1       0.033  -0.307  24.542  0.00  0.00    +0.111 C 
ATOM      8  C   UNL     1      -1.197  -0.560  25.394  0.00  0.00    +0.164 C 
ATOM      9  C   UNL     1      -1.601  -1.950  24.920  0.00  0.00    +0.165 C 
ATOM     10  C   UNL     1      -0.392  -0.913  23.214  0.00  0.00    +0.181 C 
ENDROOT
BRANCH   8   2
ATOM      2  O   UNL     1      -0.914  -0.538  26.780  0.00  0.00    -0.388 OA
ATOM     22  H   UNL     1      -1.353  -1.301  27.194  0.00  0.00    +0.210 HD
ENDBRANCH   8   2
BRANCH   7   4
ATOM      4  N   UNL     1       0.389   1.098  24.435  0.00  0.00    -0.308 NA
ATOM     21  H   UNL     1       0.927   1.239  23.582  0.00  0.00    +0.122 HD
BRANCH   4  12
ATOM     12  C   UNL     1      -0.800   1.941  24.401  0.00  0.00    +0.087 C 
BRANCH  12  11
ATOM     11  C   UNL     1      -0.781   3.104  25.425  0.00  0.00    -0.025 C 
ATOM     14  C   UNL     1      -2.145   3.255  26.123  0.00  0.00    +0.012 C 
ATOM     15  C   UNL     1      -0.412   4.431  24.739  0.00  0.00    +0.012 C 
ATOM     16  C   UNL     1       0.283   2.789  26.493  0.00  0.00    +0.012 C 
ENDBRANCH  12  11
ENDBRANCH   4  12
ENDBRANCH   7   4
BRANCH   9  13
ATOM     13  C   UNL     1      -3.076  -2.247  25.122  0.00  0.00    +0.140 C 
BRANCH  13   5
ATOM      3  O   UNL     1      -3.965  -0.057  23.467  0.00  0.00    -0.253 OA
ATOM      5  N   UNL     1      -3.791  -1.078  25.546  0.00  0.00    -0.297 N 
ATOM      6  N   UNL     1      -4.864   0.956  25.351  0.00  0.00    -0.297 N 
ATOM     17  C   UNL     1      -4.188  -0.058  24.677  0.00  0.00    +0.300 C 
ATOM     23  H   UNL     1      -4.008  -0.981  26.533  0.00  0.00    +0.150 HD
ATOM     24  H   UNL     1      -5.065   0.829  26.339  0.00  0.00    +0.150 HD
BRANCH   6  18
ATOM     18  C   UNL     1      -5.380   2.130  24.686  0.00  0.00    +0.068 C 
ATOM     19  C   UNL     1      -5.872   3.150  25.706  0.00  0.00    +0.027 C 
ATOM     20  C   UNL     1      -4.319   2.730  23.773  0.00  0.00    +0.027 C 
ENDBRANCH   6  18
ENDBRANCH  13   5
ENDBRANCH   9  13
TORSDOF 7
ENDMDL
MODEL 9
REMARK VINA RESULT:      -5.2     18.314     21.345
REMARK  Name = 86769007
REMARK  12 active torsions:
REMARK  status: ('A' for Active; 'I' for Inactive)
REMARK    1  A    between atoms: O_2  and  C_8
REMARK    2  A    between atoms: N_4  and  C_7
REMARK    3  A    between atoms: N_4  and  C_12
REMARK    4  A    between atoms: N_5  and  C_13
REMARK    5  A    between atoms: N_6  and  C_18
REMARK    6  A    between atoms: C_9  and  C_13
REMARK    7  A    between atoms: C_11  and  C_12
REMARK    8  A    between atoms: C_11  and  C_14
REMARK    9  A    between atoms: C_11  and  C_15
REMARK   10  A    between atoms: C_11  and  C_16
REMARK   11  A    between atoms: C_18  and  C_19
REMARK   12  A    between atoms: C_18  and  C_20
REMARK                            x       y       z     vdW  Elec       q    Type
REMARK                         _______ _______ _______ _____ _____    ______ ____
ROOT
ATOM      1  O   UNL     1      -0.020   9.149  37.480  0.00  0.00    -0.371 OA
ATOM      7  C   UNL     1      -1.787   7.664  38.039  0.00  0.00    +0.111 C 
ATOM      8  C   UNL     1      -2.357   8.845  37.276  0.00  0.00    +0.164 C 
ATOM      9  C   UNL     1      -1.112   9.366  36.571  0.00  0.00    +0.165 C 
ATOM     10  C   UNL     1      -0.444   8.216  38.489  0.00  0.00    +0.181 C 
ENDROOT
BRANCH   8   2
ATOM      2  O   UNL     1      -3.364   8.467  36.357  0.00  0.00    -0.388 OA
ATOM     22  H   UNL     1      -4.104   9.092  36.440  0.00  0.00    +0.210 HD
ENDBRANCH   8   2
BRANCH   7   4
ATOM      4  N   UNL     1      -2.621   7.230  39.148  0.00  0.00    -0.308 NA
ATOM     21  H   UNL     1      -2.969   6.292  38.954  0.00  0.00    +0.122 HD
BRANCH   4  12
ATOM     12  C   UNL     1      -1.868   7.215  40.397  0.00  0.00    +0.087 C 
BRANCH  12  11
ATOM     11  C   UNL     1      -1.806   5.827  41.083  0.00  0.00    -0.025 C 
ATOM     14  C   UNL     1      -3.178   5.425  41.653  0.00  0.00    +0.012 C 
ATOM     15  C   UNL     1      -0.764   5.822  42.216  0.00  0.00    +0.012 C 
ATOM     16  C   UNL     1      -1.390   4.786  40.027  0.00  0.00    +0.012 C 
ENDBRANCH  12  11
ENDBRANCH   4  12
ENDBRANCH   7   4
BRANCH   9  13
ATOM     13  C   UNL     1      -1.197  10.839  36.213  0.00  0.00    +0.140 C 
BRANCH  13   5
ATOM      3  O   UNL     1      -1.302  13.074  34.390  0.00  0.00    -0.253 OA
ATOM      5  N   UNL     1      -0.222  11.193  35.221  0.00  0.00    -0.297 N 
ATOM      6  N   UNL     1       0.739  12.405  33.509  0.00  0.00    -0.297 N 
ATOM     17  C   UNL     1      -0.348  12.296  34.374  0.00  0.00    +0.300 C 
ATOM     23  H   UNL     1       0.596  10.600  35.121  0.00  0.00    +0.150 HD
ATOM     24  H   UNL     1       1.513  11.759  33.623  0.00  0.00    +0.150 HD
BRANCH   6  18
ATOM     18  C   UNL     1       0.856  13.460  32.529  0.00  0.00    +0.068 C 
ATOM     19  C   UNL     1       1.631  14.640  33.104  0.00  0.00    +0.027 C 
ATOM     20  C   UNL     1       1.514  12.933  31.261  0.00  0.00    +0.027 C 
ENDBRANCH   6  18
ENDBRANCH  13   5
ENDBRANCH   9  13
TORSDOF 7
ENDMDL
MODEL 10
REMARK VINA RESULT:      -5.2     15.280     18.371
REMARK  Name = 86769007
REMARK  12 active torsions:
REMARK  status: ('A' for Active; 'I' for Inactive)
REMARK    1  A    between atoms: O_2  and  C_8
REMARK    2  A    between atoms: N_4  and  C_7
REMARK    3  A    between atoms: N_4  and  C_12
REMARK    4  A    between atoms: N_5  and  C_13
REMARK    5  A    between atoms: N_6  and  C_18
REMARK    6  A    between atoms: C_9  and  C_13
REMARK    7  A    between atoms: C_11  and  C_12
REMARK    8  A    between atoms: C_11  and  C_14
REMARK    9  A    between atoms: C_11  and  C_15
REMARK   10  A    between atoms: C_11  and  C_16
REMARK   11  A    between atoms: C_18  and  C_19
REMARK   12  A    between atoms: C_18  and  C_20
REMARK                            x       y       z     vdW  Elec       q    Type
REMARK                         _______ _______ _______ _____ _____    ______ ____
ROOT
ATOM      1  O   UNL     1      13.834   9.456   5.558  0.00  0.00    -0.371 OA
ATOM      7  C   UNL     1      12.449   8.110   6.942  0.00  0.00    +0.111 C 
ATOM      8  C   UNL     1      13.475   7.225   6.258  0.00  0.00    +0.164 C 
ATOM      9  C   UNL     1      14.540   8.247   5.883  0.00  0.00    +0.165 C 
ATOM     10  C   UNL     1      12.492   9.352   6.067  0.00  0.00    +0.181 C 
ENDROOT
BRANCH   8   2
ATOM      2  O   UNL     1      13.986   6.220   7.112  0.00  0.00    -0.388 OA
ATOM     22  H   UNL     1      14.379   6.652   7.890  0.00  0.00    +0.210 HD
ENDBRANCH   8   2
BRANCH   7   4
ATOM      4  N   UNL     1      11.125   7.516   7.017  0.00  0.00    -0.308 NA
ATOM     21  H   UNL     1      10.455   8.233   7.292  0.00  0.00    +0.122 HD
BRANCH   4  12
ATOM     12  C   UNL     1      10.727   6.952   5.732  0.00  0.00    +0.087 C 
BRANCH  12  11
ATOM     11  C   UNL     1       9.763   5.744   5.843  0.00  0.00    -0.025 C 
ATOM     14  C   UNL     1       8.315   6.156   5.524  0.00  0.00    +0.012 C 
ATOM     15  C   UNL     1       9.817   5.128   7.253  0.00  0.00    +0.012 C 
ATOM     16  C   UNL     1      10.205   4.679   4.823  0.00  0.00    +0.012 C 
ENDBRANCH  12  11
ENDBRANCH   4  12
ENDBRANCH   7   4
BRANCH   9  13
ATOM     13  C   UNL     1      15.393   7.819   4.702  0.00  0.00    +0.140 C 
BRANCH  13   5
ATOM      3  O   UNL     1      15.194   7.164   1.898  0.00  0.00    -0.253 OA
ATOM      5  N   UNL     1      14.918   6.591   4.133  0.00  0.00    -0.297 N 
ATOM      6  N   UNL     1      14.355   5.080   2.482  0.00  0.00    -0.297 N 
ATOM     17  C   UNL     1      14.854   6.351   2.758  0.00  0.00    +0.300 C 
ATOM     23  H   UNL     1      14.600   5.862   4.764  0.00  0.00    +0.150 HD
ATOM     24  H   UNL     1      14.173   4.454   3.260  0.00  0.00    +0.150 HD
BRANCH   6  18
ATOM     18  C   UNL     1      14.185   4.581   1.137  0.00  0.00    +0.068 C 
ATOM     19  C   UNL     1      15.482   3.960   0.630  0.00  0.00    +0.027 C 
ATOM     20  C   UNL     1      13.038   3.582   1.084  0.00  0.00    +0.027 C 
ENDBRANCH   6  18
ENDBRANCH  13   5
ENDBRANCH   9  13
TORSDOF 7
ENDMDL
