REMARK  Name = 40779659
REMARK  5 active torsions:
REMARK  status: ('A' for Active; 'I' for Inactive)
REMARK    1  A    between atoms: N_3  and  C_12
REMARK    2  A    between atoms: N_4  and  C_13
REMARK    3  A    between atoms: C_6  and  C_12
REMARK    4  A    between atoms: C_7  and  C_13
REMARK    5  A    between atoms: C_19  and  C_22
REMARK                            x       y       z     vdW  Elec       q    Type
REMARK                         _______ _______ _______ _____ _____    ______ ____
ROOT
ATOM      2  N   UNL     1       0.859  -3.126  -0.179  0.00  0.00    -0.298 NA
ATOM      5  C   UNL     1      -0.686  -1.343   0.916  0.00  0.00    -0.003 C 
ATOM      6  C   UNL     1      -1.324  -1.909  -0.373  0.00  0.00    +0.020 C 
ATOM      7  C   UNL     1       1.624  -1.874   0.072  0.00  0.00    +0.074 C 
ATOM      8  C   UNL     1       0.695  -0.750   0.583  0.00  0.00    +0.024 C 
ATOM      9  C   UNL     1      -0.306  -2.850  -1.054  0.00  0.00    +0.089 C 
ATOM     10  C   UNL     1      -0.454  -2.536   1.862  0.00  0.00    +0.019 C 
ATOM     11  C   UNL     1       0.352  -3.620   1.124  0.00  0.00    +0.085 C 
ENDROOT
BRANCH   6  12
ATOM     12  C   UNL     1      -1.816  -0.825  -1.328  0.00  0.00    +0.089 C 
BRANCH  12   3
ATOM      3  N   UNL     1      -2.760   0.071  -0.660  0.00  0.00    -0.298 NA
ATOM     14  C   UNL     1      -2.808   1.374  -1.334  0.00  0.00    +0.089 C 
ATOM     15  C   UNL     1      -4.103  -0.534  -0.625  0.00  0.00    +0.119 C 
ATOM     16  C   UNL     1      -3.637   2.359  -0.503  0.00  0.00    +0.051 C 
ATOM     17  C   UNL     1      -5.162   0.393  -0.073  0.00  0.00    -0.030 A 
ATOM     18  C   UNL     1      -4.955   1.783  -0.057  0.00  0.00    -0.042 A 
ATOM     20  C   UNL     1      -6.386  -0.128   0.367  0.00  0.00    +0.005 A 
ATOM     21  C   UNL     1      -5.959   2.628   0.434  0.00  0.00    +0.004 A 
ATOM     23  C   UNL     1      -7.383   0.722   0.845  0.00  0.00    +0.000 A 
ATOM     24  C   UNL     1      -7.169   2.098   0.881  0.00  0.00    +0.000 A 
ENDBRANCH  12   3
ENDBRANCH   6  12
BRANCH   7  13
ATOM     13  C   UNL     1       2.434  -1.431  -1.149  0.00  0.00    +0.123 C 
BRANCH  13   4
ATOM      1  O   UNL     1       5.128  -1.544  -0.163  0.00  0.00    -0.270 OA
ATOM      4  N   UNL     1       3.286  -0.300  -0.818  0.00  0.00    -0.310 N 
ATOM     19  C   UNL     1       4.575  -0.464  -0.349  0.00  0.00    +0.244 C 
ATOM     30  H   UNL     1       2.866   0.621  -0.885  0.00  0.00    +0.149 HD
BRANCH  19  22
ATOM     22  C   UNL     1       5.306   0.790  -0.032  0.00  0.00    +0.037 A 
ATOM     25  C   UNL     1       6.320   0.784   0.925  0.00  0.00    +0.013 A 
ATOM     26  C   UNL     1       4.979   1.974  -0.694  0.00  0.00    +0.013 A 
ATOM     27  C   UNL     1       7.007   1.962   1.221  0.00  0.00    +0.001 A 
ATOM     28  C   UNL     1       5.665   3.151  -0.398  0.00  0.00    +0.001 A 
ATOM     29  C   UNL     1       6.680   3.145   0.559  0.00  0.00    +0.000 A 
ENDBRANCH  19  22
ENDBRANCH  13   4
ENDBRANCH   7  13
TORSDOF 5
