MODEL 1
REMARK VINA RESULT:      -7.0      0.000      0.000
REMARK  Name = 45784341
REMARK  3 active torsions:
REMARK  status: ('A' for Active; 'I' for Inactive)
REMARK    1  A    between atoms: N_4  and  C_10
REMARK    2  A    between atoms: C_6  and  C_11
REMARK    3  A    between atoms: C_10  and  C_12
REMARK                            x       y       z     vdW  Elec       q    Type
REMARK                         _______ _______ _______ _____ _____    ______ ____
ROOT
ATOM      4  N   UNL     1      11.932   4.316   1.793  0.00  0.00    -0.297 NA
ATOM      6  C   UNL     1      10.442   5.145   3.404  0.00  0.00    +0.090 C 
ATOM      7  C   UNL     1      11.392   6.268   2.954  0.00  0.00    +0.029 C 
ATOM      8  C   UNL     1      11.110   3.853   2.914  0.00  0.00    +0.097 C 
ATOM      9  C   UNL     1      12.548   5.556   2.266  0.00  0.00    +0.085 C 
ENDROOT
BRANCH   6  11
ATOM      2  F   UNL     1       9.136   4.430  10.474  0.00  0.00    -0.205 F 
ATOM      3  O   UNL     1       9.729   6.307   5.424  0.00  0.00    -0.439 OA
ATOM      5  N   UNL     1      10.213   4.112   5.720  0.00  0.00    -0.213 NA
ATOM     11  C   UNL     1      10.136   5.125   4.883  0.00  0.00    +0.201 A 
ATOM     13  C   UNL     1       9.825   4.662   6.917  0.00  0.00    +0.112 A 
ATOM     14  C   UNL     1       9.528   6.006   6.741  0.00  0.00    +0.156 A 
ATOM     17  C   UNL     1       9.696   4.103   8.197  0.00  0.00    +0.070 A 
ATOM     18  C   UNL     1       9.104   6.863   7.748  0.00  0.00    +0.051 A 
ATOM     21  C   UNL     1       9.270   4.937   9.241  0.00  0.00    +0.126 A 
ATOM     22  C   UNL     1       8.980   6.289   9.019  0.00  0.00    +0.042 A 
ENDBRANCH   6  11
BRANCH   4  10
ATOM     10  C   UNL     1      12.919   3.328   1.383  0.00  0.00    +0.122 C 
BRANCH  10  12
ATOM      1  F   UNL     1      15.669   3.950   1.113  0.00  0.00    -0.205 F 
ATOM     12  C   UNL     1      13.556   3.685   0.066  0.00  0.00    +0.002 A 
ATOM     15  C   UNL     1      14.917   3.980   0.004  0.00  0.00    +0.128 A 
ATOM     16  C   UNL     1      12.781   3.718  -1.093  0.00  0.00    +0.008 A 
ATOM     19  C   UNL     1      15.504   4.310  -1.217  0.00  0.00    +0.038 A 
ATOM     20  C   UNL     1      13.368   4.048  -2.315  0.00  0.00    +0.000 A 
ATOM     23  C   UNL     1      14.730   4.344  -2.377  0.00  0.00    +0.003 A 
ENDBRANCH  10  12
ENDBRANCH   4  10
TORSDOF 3
ENDMDL
MODEL 2
REMARK VINA RESULT:      -6.9     22.107     24.843
REMARK  Name = 45784341
REMARK  3 active torsions:
REMARK  status: ('A' for Active; 'I' for Inactive)
REMARK    1  A    between atoms: N_4  and  C_10
REMARK    2  A    between atoms: C_6  and  C_11
REMARK    3  A    between atoms: C_10  and  C_12
REMARK                            x       y       z     vdW  Elec       q    Type
REMARK                         _______ _______ _______ _____ _____    ______ ____
ROOT
ATOM      4  N   UNL     1      -2.262 -11.243  12.966  0.00  0.00    -0.297 NA
ATOM      6  C   UNL     1      -2.872 -10.447  15.085  0.00  0.00    +0.090 C 
ATOM      7  C   UNL     1      -1.707 -11.441  15.225  0.00  0.00    +0.029 C 
ATOM      8  C   UNL     1      -3.418 -10.683  13.670  0.00  0.00    +0.097 C 
ATOM      9  C   UNL     1      -1.675 -12.199  13.904  0.00  0.00    +0.085 C 
ENDROOT
BRANCH   6  11
ATOM      2  F   UNL     1      -8.345 -10.662  19.797  0.00  0.00    -0.205 F 
ATOM      3  O   UNL     1      -3.575 -11.224  17.285  0.00  0.00    -0.439 OA
ATOM      5  N   UNL     1      -5.168 -10.099  16.130  0.00  0.00    -0.213 NA
ATOM     11  C   UNL     1      -3.936 -10.559  16.152  0.00  0.00    +0.201 A 
ATOM     13  C   UNL     1      -5.672 -10.487  17.347  0.00  0.00    +0.112 A 
ATOM     14  C   UNL     1      -4.700 -11.177  18.058  0.00  0.00    +0.156 A 
ATOM     17  C   UNL     1      -6.934 -10.301  17.931  0.00  0.00    +0.070 A 
ATOM     18  C   UNL     1      -4.876 -11.709  19.328  0.00  0.00    +0.051 A 
ATOM     21  C   UNL     1      -7.150 -10.825  19.214  0.00  0.00    +0.126 A 
ATOM     22  C   UNL     1      -6.141 -11.515  19.897  0.00  0.00    +0.042 A 
ENDBRANCH   6  11
BRANCH   4  10
ATOM     10  C   UNL     1      -2.629 -11.862  11.701  0.00  0.00    +0.122 C 
BRANCH  10  12
ATOM      1  F   UNL     1      -1.706  -9.360  10.744  0.00  0.00    -0.205 F 
ATOM     12  C   UNL     1      -3.469 -10.946  10.850  0.00  0.00    +0.002 A 
ATOM     15  C   UNL     1      -2.952  -9.727  10.412  0.00  0.00    +0.128 A 
ATOM     16  C   UNL     1      -4.766 -11.320  10.499  0.00  0.00    +0.008 A 
ATOM     19  C   UNL     1      -3.732  -8.882   9.625  0.00  0.00    +0.038 A 
ATOM     20  C   UNL     1      -5.547 -10.474   9.712  0.00  0.00    +0.000 A 
ATOM     23  C   UNL     1      -5.030  -9.255   9.274  0.00  0.00    +0.003 A 
ENDBRANCH  10  12
ENDBRANCH   4  10
TORSDOF 3
ENDMDL
MODEL 3
REMARK VINA RESULT:      -6.7     22.536     25.370
REMARK  Name = 45784341
REMARK  3 active torsions:
REMARK  status: ('A' for Active; 'I' for Inactive)
REMARK    1  A    between atoms: N_4  and  C_10
REMARK    2  A    between atoms: C_6  and  C_11
REMARK    3  A    between atoms: C_10  and  C_12
REMARK                            x       y       z     vdW  Elec       q    Type
REMARK                         _______ _______ _______ _____ _____    ______ ____
ROOT
ATOM      4  N   UNL     1      -2.100 -10.975  13.768  0.00  0.00    -0.297 NA
ATOM      6  C   UNL     1      -3.311 -10.344  15.674  0.00  0.00    +0.090 C 
ATOM      7  C   UNL     1      -1.883 -10.745  16.081  0.00  0.00    +0.029 C 
ATOM      8  C   UNL     1      -3.480 -10.897  14.252  0.00  0.00    +0.097 C 
ATOM      9  C   UNL     1      -1.337 -11.522  14.889  0.00  0.00    +0.085 C 
ENDROOT
BRANCH   6  11
ATOM      2  F   UNL     1      -8.197 -13.122  20.214  0.00  0.00    -0.205 F 
ATOM      3  O   UNL     1      -5.359  -9.891  16.915  0.00  0.00    -0.439 OA
ATOM      5  N   UNL     1      -4.531 -11.982  17.194  0.00  0.00    -0.213 NA
ATOM     11  C   UNL     1      -4.396 -10.807  16.618  0.00  0.00    +0.201 A 
ATOM     13  C   UNL     1      -5.678 -11.841  17.936  0.00  0.00    +0.112 A 
ATOM     14  C   UNL     1      -6.189 -10.561  17.768  0.00  0.00    +0.156 A 
ATOM     17  C   UNL     1      -6.357 -12.736  18.775  0.00  0.00    +0.070 A 
ATOM     18  C   UNL     1      -7.343 -10.082  18.375  0.00  0.00    +0.051 A 
ATOM     21  C   UNL     1      -7.527 -12.288  19.407  0.00  0.00    +0.126 A 
ATOM     22  C   UNL     1      -8.008 -10.988  19.209  0.00  0.00    +0.042 A 
ENDBRANCH   6  11
BRANCH   4  10
ATOM     10  C   UNL     1      -1.979 -11.789  12.567  0.00  0.00    +0.122 C 
BRANCH  10  12
ATOM      1  F   UNL     1      -3.666 -13.310  10.875  0.00  0.00    -0.205 F 
ATOM     12  C   UNL     1      -2.733 -11.194  11.407  0.00  0.00    +0.002 A 
ATOM     15  C   UNL     1      -3.548 -12.001  10.614  0.00  0.00    +0.128 A 
ATOM     16  C   UNL     1      -2.617  -9.832  11.128  0.00  0.00    +0.008 A 
ATOM     19  C   UNL     1      -4.245 -11.447   9.541  0.00  0.00    +0.038 A 
ATOM     20  C   UNL     1      -3.315  -9.278  10.055  0.00  0.00    +0.000 A 
ATOM     23  C   UNL     1      -4.129 -10.085   9.262  0.00  0.00    +0.003 A 
ENDBRANCH  10  12
ENDBRANCH   4  10
TORSDOF 3
ENDMDL
MODEL 4
REMARK VINA RESULT:      -6.6     23.062     26.159
REMARK  Name = 45784341
REMARK  3 active torsions:
REMARK  status: ('A' for Active; 'I' for Inactive)
REMARK    1  A    between atoms: N_4  and  C_10
REMARK    2  A    between atoms: C_6  and  C_11
REMARK    3  A    between atoms: C_10  and  C_12
REMARK                            x       y       z     vdW  Elec       q    Type
REMARK                         _______ _______ _______ _____ _____    ______ ____
ROOT
ATOM      4  N   UNL     1      -4.309 -10.636  14.635  0.00  0.00    -0.297 NA
ATOM      6  C   UNL     1      -5.616  -9.608  16.288  0.00  0.00    +0.090 C 
ATOM      7  C   UNL     1      -4.503 -10.436  16.953  0.00  0.00    +0.029 C 
ATOM      8  C   UNL     1      -5.660 -10.109  14.838  0.00  0.00    +0.097 C 
ATOM      9  C   UNL     1      -4.003 -11.373  15.860  0.00  0.00    +0.085 C 
ENDROOT
BRANCH   6  11
ATOM      2  F   UNL     1     -12.241  -9.505  19.168  0.00  0.00    -0.205 F 
ATOM      3  O   UNL     1      -7.050 -10.553  18.017  0.00  0.00    -0.439 OA
ATOM      5  N   UNL     1      -8.055  -9.005  16.702  0.00  0.00    -0.213 NA
ATOM     11  C   UNL     1      -6.959  -9.679  16.977  0.00  0.00    +0.201 A 
ATOM     13  C   UNL     1      -8.951  -9.466  17.635  0.00  0.00    +0.112 A 
ATOM     14  C   UNL     1      -8.340 -10.415  18.442  0.00  0.00    +0.156 A 
ATOM     17  C   UNL     1     -10.295  -9.141  17.871  0.00  0.00    +0.070 A 
ATOM     18  C   UNL     1      -8.962 -11.085  19.488  0.00  0.00    +0.051 A 
ATOM     21  C   UNL     1     -10.957  -9.796  18.919  0.00  0.00    +0.126 A 
ATOM     22  C   UNL     1     -10.302 -10.748  19.710  0.00  0.00    +0.042 A 
ENDBRANCH   6  11
BRANCH   4  10
ATOM     10  C   UNL     1      -4.212 -11.472  13.447  0.00  0.00    +0.122 C 
BRANCH  10  12
ATOM      1  F   UNL     1      -1.630 -10.577  12.697  0.00  0.00    -0.205 F 
ATOM     12  C   UNL     1      -3.951 -10.657  12.207  0.00  0.00    +0.002 A 
ATOM     15  C   UNL     1      -2.655 -10.250  11.897  0.00  0.00    +0.128 A 
ATOM     16  C   UNL     1      -5.011 -10.312  11.368  0.00  0.00    +0.008 A 
ATOM     19  C   UNL     1      -2.417  -9.496  10.748  0.00  0.00    +0.038 A 
ATOM     20  C   UNL     1      -4.773  -9.558  10.219  0.00  0.00    +0.000 A 
ATOM     23  C   UNL     1      -3.476  -9.150   9.908  0.00  0.00    +0.003 A 
ENDBRANCH  10  12
ENDBRANCH   4  10
TORSDOF 3
ENDMDL
MODEL 5
REMARK VINA RESULT:      -6.5     29.196     33.394
REMARK  Name = 45784341
REMARK  3 active torsions:
REMARK  status: ('A' for Active; 'I' for Inactive)
REMARK    1  A    between atoms: N_4  and  C_10
REMARK    2  A    between atoms: C_6  and  C_11
REMARK    3  A    between atoms: C_10  and  C_12
REMARK                            x       y       z     vdW  Elec       q    Type
REMARK                         _______ _______ _______ _____ _____    ______ ____
ROOT
ATOM      4  N   UNL     1     -15.062   5.850  21.947  0.00  0.00    -0.297 NA
ATOM      6  C   UNL     1     -15.832   3.884  22.966  0.00  0.00    +0.090 C 
ATOM      7  C   UNL     1     -17.026   4.676  22.407  0.00  0.00    +0.029 C 
ATOM      8  C   UNL     1     -14.672   4.888  22.981  0.00  0.00    +0.097 C 
ATOM      9  C   UNL     1     -16.489   6.081  22.165  0.00  0.00    +0.085 C 
ENDROOT
BRANCH   6  11
ATOM      2  F   UNL     1     -17.125   0.271  29.089  0.00  0.00    -0.205 F 
ATOM      3  O   UNL     1     -15.857   4.033  25.398  0.00  0.00    -0.439 OA
ATOM      5  N   UNL     1     -16.457   2.010  24.573  0.00  0.00    -0.213 NA
ATOM     11  C   UNL     1     -16.071   3.240  24.312  0.00  0.00    +0.201 A 
ATOM     13  C   UNL     1     -16.507   1.978  25.945  0.00  0.00    +0.112 A 
ATOM     14  C   UNL     1     -16.139   3.216  26.455  0.00  0.00    +0.156 A 
ATOM     17  C   UNL     1     -16.849   0.952  26.838  0.00  0.00    +0.070 A 
ATOM     18  C   UNL     1     -16.082   3.530  27.806  0.00  0.00    +0.051 A 
ATOM     21  C   UNL     1     -16.803   1.232  28.211  0.00  0.00    +0.126 A 
ATOM     22  C   UNL     1     -16.427   2.496  28.684  0.00  0.00    +0.042 A 
ENDBRANCH   6  11
BRANCH   4  10
ATOM     10  C   UNL     1     -14.286   7.080  22.012  0.00  0.00    +0.122 C 
BRANCH  10  12
ATOM      1  F   UNL     1     -11.644   6.149  21.587  0.00  0.00    -0.205 F 
ATOM     12  C   UNL     1     -13.520   7.328  20.739  0.00  0.00    +0.002 A 
ATOM     15  C   UNL     1     -12.222   6.841  20.596  0.00  0.00    +0.128 A 
ATOM     16  C   UNL     1     -14.114   8.046  19.701  0.00  0.00    +0.008 A 
ATOM     19  C   UNL     1     -11.516   7.072  19.416  0.00  0.00    +0.038 A 
ATOM     20  C   UNL     1     -13.408   8.278  18.520  0.00  0.00    +0.000 A 
ATOM     23  C   UNL     1     -12.109   7.791  18.377  0.00  0.00    +0.003 A 
ENDBRANCH  10  12
ENDBRANCH   4  10
TORSDOF 3
ENDMDL
MODEL 6
REMARK VINA RESULT:      -6.4     27.658     32.023
REMARK  Name = 45784341
REMARK  3 active torsions:
REMARK  status: ('A' for Active; 'I' for Inactive)
REMARK    1  A    between atoms: N_4  and  C_10
REMARK    2  A    between atoms: C_6  and  C_11
REMARK    3  A    between atoms: C_10  and  C_12
REMARK                            x       y       z     vdW  Elec       q    Type
REMARK                         _______ _______ _______ _____ _____    ______ ____
ROOT
ATOM      4  N   UNL     1     -13.545   6.897  20.932  0.00  0.00    -0.297 NA
ATOM      6  C   UNL     1     -14.821   5.068  21.658  0.00  0.00    +0.090 C 
ATOM      7  C   UNL     1     -15.743   6.116  21.013  0.00  0.00    +0.029 C 
ATOM      8  C   UNL     1     -13.507   5.817  21.920  0.00  0.00    +0.097 C 
ATOM      9  C   UNL     1     -14.919   7.396  20.971  0.00  0.00    +0.085 C 
ENDROOT
BRANCH   6  11
ATOM      2  F   UNL     1     -17.171   2.341  27.922  0.00  0.00    -0.205 F 
ATOM      3  O   UNL     1     -16.191   3.335  22.685  0.00  0.00    -0.439 OA
ATOM      5  N   UNL     1     -15.182   4.733  24.156  0.00  0.00    -0.213 NA
ATOM     11  C   UNL     1     -15.379   4.407  22.897  0.00  0.00    +0.201 A 
ATOM     13  C   UNL     1     -15.924   3.802  24.842  0.00  0.00    +0.112 A 
ATOM     14  C   UNL     1     -16.544   2.944  23.945  0.00  0.00    +0.156 A 
ATOM     17  C   UNL     1     -16.129   3.609  26.216  0.00  0.00    +0.070 A 
ATOM     18  C   UNL     1     -17.369   1.886  24.302  0.00  0.00    +0.051 A 
ATOM     21  C   UNL     1     -16.957   2.550  26.616  0.00  0.00    +0.126 A 
ATOM     22  C   UNL     1     -17.564   1.706  25.677  0.00  0.00    +0.042 A 
ENDBRANCH   6  11
BRANCH   4  10
ATOM     10  C   UNL     1     -12.568   7.939  21.210  0.00  0.00    +0.122 C 
BRANCH  10  12
ATOM      1  F   UNL     1     -11.282  10.440  20.864  0.00  0.00    -0.205 F 
ATOM     12  C   UNL     1     -11.750   8.282  19.994  0.00  0.00    +0.002 A 
ATOM     15  C   UNL     1     -11.143   9.533  19.887  0.00  0.00    +0.128 A 
ATOM     16  C   UNL     1     -11.599   7.344  18.972  0.00  0.00    +0.008 A 
ATOM     19  C   UNL     1     -10.386   9.847  18.759  0.00  0.00    +0.038 A 
ATOM     20  C   UNL     1     -10.842   7.658  17.843  0.00  0.00    +0.000 A 
ATOM     23  C   UNL     1     -10.235   8.909  17.737  0.00  0.00    +0.003 A 
ENDBRANCH  10  12
ENDBRANCH   4  10
TORSDOF 3
ENDMDL
MODEL 7
REMARK VINA RESULT:      -6.2      2.035      2.559
REMARK  Name = 45784341
REMARK  3 active torsions:
REMARK  status: ('A' for Active; 'I' for Inactive)
REMARK    1  A    between atoms: N_4  and  C_10
REMARK    2  A    between atoms: C_6  and  C_11
REMARK    3  A    between atoms: C_10  and  C_12
REMARK                            x       y       z     vdW  Elec       q    Type
REMARK                         _______ _______ _______ _____ _____    ______ ____
ROOT
ATOM      4  N   UNL     1      11.623   4.899   0.770  0.00  0.00    -0.297 NA
ATOM      6  C   UNL     1      10.809   5.944   2.705  0.00  0.00    +0.090 C 
ATOM      7  C   UNL     1      12.257   6.395   2.446  0.00  0.00    +0.029 C 
ATOM      8  C   UNL     1      10.627   4.700   1.825  0.00  0.00    +0.097 C 
ATOM      9  C   UNL     1      12.819   5.375   1.465  0.00  0.00    +0.085 C 
ENDROOT
BRANCH   6  11
ATOM      2  F   UNL     1       9.247   4.120   9.520  0.00  0.00    -0.205 F 
ATOM      3  O   UNL     1      10.250   6.801   4.917  0.00  0.00    -0.439 OA
ATOM      5  N   UNL     1      10.364   4.541   4.783  0.00  0.00    -0.213 NA
ATOM     11  C   UNL     1      10.471   5.693   4.156  0.00  0.00    +0.201 A 
ATOM     13  C   UNL     1      10.044   4.909   6.067  0.00  0.00    +0.112 A 
ATOM     14  C   UNL     1       9.974   6.292   6.154  0.00  0.00    +0.156 A 
ATOM     17  C   UNL     1       9.797   4.145   7.217  0.00  0.00    +0.070 A 
ATOM     18  C   UNL     1       9.672   6.999   7.310  0.00  0.00    +0.051 A 
ATOM     21  C   UNL     1       9.489   4.824   8.405  0.00  0.00    +0.126 A 
ATOM     22  C   UNL     1       9.428   6.222   8.449  0.00  0.00    +0.042 A 
ENDBRANCH   6  11
BRANCH   4  10
ATOM     10  C   UNL     1      11.873   3.686   0.005  0.00  0.00    +0.122 C 
BRANCH  10  12
ATOM      1  F   UNL     1      12.197   1.660  -1.949  0.00  0.00    -0.205 F 
ATOM     12  C   UNL     1      11.164   3.704  -1.323  0.00  0.00    +0.002 A 
ATOM     15  C   UNL     1      11.369   2.673  -2.240  0.00  0.00    +0.128 A 
ATOM     16  C   UNL     1      10.300   4.753  -1.635  0.00  0.00    +0.008 A 
ATOM     19  C   UNL     1      10.711   2.693  -3.469  0.00  0.00    +0.038 A 
ATOM     20  C   UNL     1       9.642   4.773  -2.864  0.00  0.00    +0.000 A 
ATOM     23  C   UNL     1       9.846   3.742  -3.781  0.00  0.00    +0.003 A 
ENDBRANCH  10  12
ENDBRANCH   4  10
TORSDOF 3
ENDMDL
MODEL 8
REMARK VINA RESULT:      -6.1     32.941     36.594
REMARK  Name = 45784341
REMARK  3 active torsions:
REMARK  status: ('A' for Active; 'I' for Inactive)
REMARK    1  A    between atoms: N_4  and  C_10
REMARK    2  A    between atoms: C_6  and  C_11
REMARK    3  A    between atoms: C_10  and  C_12
REMARK                            x       y       z     vdW  Elec       q    Type
REMARK                         _______ _______ _______ _____ _____    ______ ____
ROOT
ATOM      4  N   UNL     1      -1.213   8.827  37.948  0.00  0.00    -0.297 NA
ATOM      6  C   UNL     1      -0.234  10.672  36.884  0.00  0.00    +0.090 C 
ATOM      7  C   UNL     1      -0.809  11.107  38.242  0.00  0.00    +0.029 C 
ATOM      8  C   UNL     1      -0.882   9.309  36.605  0.00  0.00    +0.097 C 
ATOM      9  C   UNL     1      -1.764   9.990  38.642  0.00  0.00    +0.085 C 
ENDROOT
BRANCH   6  11
ATOM      2  F   UNL     1      -1.808  15.487  31.731  0.00  0.00    -0.205 F 
ATOM      3  O   UNL     1       0.629  11.860  34.939  0.00  0.00    -0.439 OA
ATOM      5  N   UNL     1      -1.516  12.359  35.472  0.00  0.00    -0.213 NA
ATOM     11  C   UNL     1      -0.439  11.662  35.760  0.00  0.00    +0.201 A 
ATOM     13  C   UNL     1      -1.138  13.083  34.367  0.00  0.00    +0.112 A 
ATOM     14  C   UNL     1       0.175  12.780  34.037  0.00  0.00    +0.156 A 
ATOM     17  C   UNL     1      -1.836  14.013  33.584  0.00  0.00    +0.070 A 
ATOM     18  C   UNL     1       0.872  13.334  32.971  0.00  0.00    +0.051 A 
ATOM     21  C   UNL     1      -1.166  14.595  32.498  0.00  0.00    +0.126 A 
ATOM     22  C   UNL     1       0.161  14.261  32.199  0.00  0.00    +0.042 A 
ENDBRANCH   6  11
BRANCH   4  10
ATOM     10  C   UNL     1      -2.142   7.706  37.922  0.00  0.00    +0.122 C 
BRANCH  10  12
ATOM      1  F   UNL     1       0.077   5.959  38.151  0.00  0.00    -0.205 F 
ATOM     12  C   UNL     1      -1.939   6.782  39.094  0.00  0.00    +0.002 A 
ATOM     15  C   UNL     1      -0.823   5.948  39.143  0.00  0.00    +0.128 A 
ATOM     16  C   UNL     1      -2.870   6.763  40.132  0.00  0.00    +0.008 A 
ATOM     19  C   UNL     1      -0.638   5.094  40.230  0.00  0.00    +0.038 A 
ATOM     20  C   UNL     1      -2.686   5.909  41.219  0.00  0.00    +0.000 A 
ATOM     23  C   UNL     1      -1.570   5.074  41.268  0.00  0.00    +0.003 A 
ENDBRANCH  10  12
ENDBRANCH   4  10
TORSDOF 3
ENDMDL
MODEL 9
REMARK VINA RESULT:      -6.1     26.835     28.777
REMARK  Name = 45784341
REMARK  3 active torsions:
REMARK  status: ('A' for Active; 'I' for Inactive)
REMARK    1  A    between atoms: N_4  and  C_10
REMARK    2  A    between atoms: C_6  and  C_11
REMARK    3  A    between atoms: C_10  and  C_12
REMARK                            x       y       z     vdW  Elec       q    Type
REMARK                         _______ _______ _______ _____ _____    ______ ____
ROOT
ATOM      4  N   UNL     1      -8.597 -10.055  17.476  0.00  0.00    -0.297 NA
ATOM      6  C   UNL     1      -9.891  -8.106  17.325  0.00  0.00    +0.090 C 
ATOM      7  C   UNL     1     -10.608  -9.132  18.219  0.00  0.00    +0.029 C 
ATOM      8  C   UNL     1      -8.823  -8.918  16.580  0.00  0.00    +0.097 C 
ATOM      9  C   UNL     1      -9.932 -10.462  17.914  0.00  0.00    +0.085 C 
ENDROOT
BRANCH   6  11
ATOM      2  F   UNL     1     -13.699  -4.086  12.682  0.00  0.00    -0.205 F 
ATOM      3  O   UNL     1     -12.117  -7.662  16.436  0.00  0.00    -0.439 OA
ATOM      5  N   UNL     1     -10.474  -6.377  15.548  0.00  0.00    -0.213 NA
ATOM     11  C   UNL     1     -10.796  -7.331  16.395  0.00  0.00    +0.201 A 
ATOM     13  C   UNL     1     -11.678  -6.043  14.977  0.00  0.00    +0.112 A 
ATOM     14  C   UNL     1     -12.687  -6.827  15.518  0.00  0.00    +0.156 A 
ATOM     17  C   UNL     1     -12.009  -5.094  13.999  0.00  0.00    +0.070 A 
ATOM     18  C   UNL     1     -14.027  -6.749  15.163  0.00  0.00    +0.051 A 
ATOM     21  C   UNL     1     -13.353  -4.985  13.614  0.00  0.00    +0.126 A 
ATOM     22  C   UNL     1     -14.341  -5.797  14.186  0.00  0.00    +0.042 A 
ENDBRANCH   6  11
BRANCH   4  10
ATOM     10  C   UNL     1      -7.873 -11.138  16.826  0.00  0.00    +0.122 C 
BRANCH  10  12
ATOM      1  F   UNL     1      -7.224 -12.459  19.247  0.00  0.00    -0.205 F 
ATOM     12  C   UNL     1      -6.465 -11.262  17.343  0.00  0.00    +0.002 A 
ATOM     15  C   UNL     1      -6.215 -11.926  18.544  0.00  0.00    +0.128 A 
ATOM     16  C   UNL     1      -5.408 -10.711  16.619  0.00  0.00    +0.008 A 
ATOM     19  C   UNL     1      -4.910 -12.039  19.020  0.00  0.00    +0.038 A 
ATOM     20  C   UNL     1      -4.102 -10.824  17.095  0.00  0.00    +0.000 A 
ATOM     23  C   UNL     1      -3.852 -11.488  18.296  0.00  0.00    +0.003 A 
ENDBRANCH  10  12
ENDBRANCH   4  10
TORSDOF 3
ENDMDL
MODEL 10
REMARK VINA RESULT:      -6.1     29.333     31.819
REMARK  Name = 45784341
REMARK  3 active torsions:
REMARK  status: ('A' for Active; 'I' for Inactive)
REMARK    1  A    between atoms: N_4  and  C_10
REMARK    2  A    between atoms: C_6  and  C_11
REMARK    3  A    between atoms: C_10  and  C_12
REMARK                            x       y       z     vdW  Elec       q    Type
REMARK                         _______ _______ _______ _____ _____    ______ ____
ROOT
ATOM      4  N   UNL     1       7.557  -6.945  33.626  0.00  0.00    -0.297 NA
ATOM      6  C   UNL     1       9.859  -6.556  33.845  0.00  0.00    +0.090 C 
ATOM      7  C   UNL     1       9.078  -5.376  34.448  0.00  0.00    +0.029 C 
ATOM      8  C   UNL     1       8.827  -7.312  32.997  0.00  0.00    +0.097 C 
ATOM      9  C   UNL     1       7.667  -5.511  33.890  0.00  0.00    +0.085 C 
ENDROOT
BRANCH   6  11
ATOM      2  F   UNL     1      15.851  -4.240  30.539  0.00  0.00    -0.205 F 
ATOM      3  O   UNL     1      11.367  -6.929  31.968  0.00  0.00    -0.439 OA
ATOM      5  N   UNL     1      11.941  -5.193  33.308  0.00  0.00    -0.213 NA
ATOM     11  C   UNL     1      11.093  -6.169  33.065  0.00  0.00    +0.201 A 
ATOM     13  C   UNL     1      12.856  -5.309  32.290  0.00  0.00    +0.112 A 
ATOM     14  C   UNL     1      12.508  -6.371  31.467  0.00  0.00    +0.156 A 
ATOM     17  C   UNL     1      14.005  -4.564  31.985  0.00  0.00    +0.070 A 
ATOM     18  C   UNL     1      13.219  -6.766  30.341  0.00  0.00    +0.051 A 
ATOM     21  C   UNL     1      14.749  -4.934  30.855  0.00  0.00    +0.126 A 
ATOM     22  C   UNL     1      14.362  -6.013  30.051  0.00  0.00    +0.042 A 
ENDBRANCH   6  11
BRANCH   4  10
ATOM     10  C   UNL     1       6.409  -7.268  32.791  0.00  0.00    +0.122 C 
BRANCH  10  12
ATOM      1  F   UNL     1       6.330  -9.678  34.279  0.00  0.00    -0.205 F 
ATOM     12  C   UNL     1       6.539  -8.629  32.160  0.00  0.00    +0.002 A 
ATOM     15  C   UNL     1       6.491  -9.776  32.952  0.00  0.00    +0.128 A 
ATOM     16  C   UNL     1       6.707  -8.741  30.780  0.00  0.00    +0.008 A 
ATOM     19  C   UNL     1       6.612 -11.034  32.365  0.00  0.00    +0.038 A 
ATOM     20  C   UNL     1       6.828 -10.001  30.192  0.00  0.00    +0.000 A 
ATOM     23  C   UNL     1       6.780 -11.147  30.985  0.00  0.00    +0.003 A 
ENDBRANCH  10  12
ENDBRANCH   4  10
TORSDOF 3
ENDMDL
