MODEL 1
REMARK VINA RESULT:      -7.2      0.000      0.000
REMARK  Name = 45783635
REMARK  9 active torsions:
REMARK  status: ('A' for Active; 'I' for Inactive)
REMARK    1  A    between atoms: O_4  and  C_31
REMARK    2  A    between atoms: O_4  and  C_32
REMARK    3  A    between atoms: N_6  and  C_16
REMARK    4  A    between atoms: N_9  and  C_24
REMARK    5  A    between atoms: N_11  and  C_29
REMARK    6  A    between atoms: C_12  and  C_17
REMARK    7  A    between atoms: C_16  and  C_18
REMARK    8  A    between atoms: C_21  and  C_25
REMARK    9  A    between atoms: C_30  and  C_31
REMARK                            x       y       z     vdW  Elec       q    Type
REMARK                         _______ _______ _______ _____ _____    ______ ____
ROOT
ATOM      1  O   UNL     1      15.098   8.723  19.879  0.00  0.00    -0.336 OA
ATOM      7  N   UNL     1      15.917   6.775  19.139  0.00  0.00    -0.190 NA
ATOM      8  N   UNL     1      16.301   8.521  20.566  0.00  0.00    -0.056 NA
ATOM     17  C   UNL     1      14.946   7.649  19.061  0.00  0.00    +0.245 A 
ATOM     21  C   UNL     1      16.724   7.353  20.075  0.00  0.00    +0.204 A 
ENDROOT
BRANCH  21  25
ATOM     10  N   UNL     1      19.758   6.620  22.099  0.00  0.00    -0.239 NA
ATOM     25  C   UNL     1      17.947   6.735  20.500  0.00  0.00    +0.041 A 
ATOM     26  C   UNL     1      18.513   5.693  19.774  0.00  0.00    +0.016 A 
ATOM     27  C   UNL     1      18.603   7.159  21.645  0.00  0.00    +0.124 A 
ATOM     28  C   UNL     1      19.701   5.114  20.210  0.00  0.00    +0.044 A 
ATOM     29  C   UNL     1      20.277   5.610  21.367  0.00  0.00    +0.125 A 
BRANCH  29  11
ATOM      5  O   UNL     1      23.122   6.140  20.544  0.00  0.00    -0.273 OA
ATOM     11  N   UNL     1      21.472   5.020  21.797  0.00  0.00    -0.268 N 
ATOM     30  C   UNL     1      22.774   5.309  21.377  0.00  0.00    +0.244 C 
ATOM     33  H   UNL     1      21.354   4.295  22.501  0.00  0.00    +0.156 HD
BRANCH  30  31
ATOM     31  C   UNL     1      23.802   4.445  22.075  0.00  0.00    +0.255 C 
BRANCH  31   4
ATOM      4  O   UNL     1      23.257   3.158  22.274  0.00  0.00    -0.374 OA
ATOM     32  C   UNL     1      23.934   2.449  23.307  0.00  0.00    +0.194 C 
ENDBRANCH  31   4
ENDBRANCH  30  31
ENDBRANCH  29  11
ENDBRANCH  21  25
BRANCH  17  12
ATOM      6  N   UNL     1      12.636   8.507  18.719  0.00  0.00    -0.287 NA
ATOM     12  C   UNL     1      13.703   7.629  18.198  0.00  0.00    +0.146 C 
ATOM     13  C   UNL     1      13.964   8.137  16.767  0.00  0.00    +0.030 C 
ATOM     14  C   UNL     1      12.958   9.259  16.555  0.00  0.00    +0.017 C 
ATOM     15  C   UNL     1      11.865   8.954  17.559  0.00  0.00    +0.085 C 
BRANCH   6  16
ATOM     16  C   UNL     1      11.797   7.860  19.719  0.00  0.00    +0.120 C 
BRANCH  16  18
ATOM     18  C   UNL     1      11.537   8.758  20.899  0.00  0.00    -0.033 A 
ATOM     19  C   UNL     1      10.804   8.286  21.988  0.00  0.00    +0.007 A 
ATOM     20  C   UNL     1      12.029  10.064  20.902  0.00  0.00    +0.007 A 
ATOM     22  C   UNL     1      10.563   9.119  23.081  0.00  0.00    +0.033 A 
ATOM     23  C   UNL     1      11.788  10.897  21.995  0.00  0.00    +0.033 A 
ATOM     24  C   UNL     1      11.055  10.425  23.084  0.00  0.00    +0.126 A 
BRANCH  24   9
ATOM      2  O   UNL     1      10.088  12.287  24.041  0.00  0.00    -0.126 OA
ATOM      3  O   UNL     1      11.323  10.985  25.305  0.00  0.00    -0.126 OA
ATOM      9  N   UNL     1      10.810  11.273  24.197  0.00  0.00    +0.056 N 
ENDBRANCH  24   9
ENDBRANCH  16  18
ENDBRANCH   6  16
ENDBRANCH  17  12
TORSDOF 8
ENDMDL
MODEL 2
REMARK VINA RESULT:      -6.7      3.114      4.588
REMARK  Name = 45783635
REMARK  9 active torsions:
REMARK  status: ('A' for Active; 'I' for Inactive)
REMARK    1  A    between atoms: O_4  and  C_31
REMARK    2  A    between atoms: O_4  and  C_32
REMARK    3  A    between atoms: N_6  and  C_16
REMARK    4  A    between atoms: N_9  and  C_24
REMARK    5  A    between atoms: N_11  and  C_29
REMARK    6  A    between atoms: C_12  and  C_17
REMARK    7  A    between atoms: C_16  and  C_18
REMARK    8  A    between atoms: C_21  and  C_25
REMARK    9  A    between atoms: C_30  and  C_31
REMARK                            x       y       z     vdW  Elec       q    Type
REMARK                         _______ _______ _______ _____ _____    ______ ____
ROOT
ATOM      1  O   UNL     1      18.315   9.233  21.432  0.00  0.00    -0.336 OA
ATOM      7  N   UNL     1      17.763   7.077  21.176  0.00  0.00    -0.190 NA
ATOM      8  N   UNL     1      19.504   8.506  21.578  0.00  0.00    -0.056 NA
ATOM     17  C   UNL     1      17.340   8.316  21.199  0.00  0.00    +0.245 A 
ATOM     21  C   UNL     1      19.096   7.244  21.414  0.00  0.00    +0.204 A 
ENDROOT
BRANCH  21  25
ATOM     10  N   UNL     1      21.695   4.917  22.703  0.00  0.00    -0.239 NA
ATOM     25  C   UNL     1      19.994   6.128  21.483  0.00  0.00    +0.041 A 
ATOM     26  C   UNL     1      20.057   5.194  20.455  0.00  0.00    +0.016 A 
ATOM     27  C   UNL     1      20.826   5.946  22.577  0.00  0.00    +0.124 A 
ATOM     28  C   UNL     1      20.938   4.122  20.550  0.00  0.00    +0.044 A 
ATOM     29  C   UNL     1      21.728   4.030  21.684  0.00  0.00    +0.125 A 
BRANCH  29  11
ATOM      5  O   UNL     1      24.290   3.480  20.205  0.00  0.00    -0.273 OA
ATOM     11  N   UNL     1      22.612   2.947  21.769  0.00  0.00    -0.268 N 
ATOM     30  C   UNL     1      23.795   2.743  21.053  0.00  0.00    +0.244 C 
ATOM     33  H   UNL     1      22.338   2.234  22.441  0.00  0.00    +0.156 HD
BRANCH  30  31
ATOM     31  C   UNL     1      24.468   1.440  21.425  0.00  0.00    +0.255 C 
BRANCH  31   4
ATOM      4  O   UNL     1      24.056   1.068  22.723  0.00  0.00    -0.374 OA
ATOM     32  C   UNL     1      25.121   0.490  23.472  0.00  0.00    +0.194 C 
ENDBRANCH  31   4
ENDBRANCH  30  31
ENDBRANCH  29  11
ENDBRANCH  21  25
BRANCH  17  12
ATOM      6  N   UNL     1      14.902   7.955  21.542  0.00  0.00    -0.287 NA
ATOM     12  C   UNL     1      15.939   8.857  21.002  0.00  0.00    +0.146 C 
ATOM     13  C   UNL     1      15.712  10.195  21.730  0.00  0.00    +0.030 C 
ATOM     14  C   UNL     1      14.491   9.967  22.609  0.00  0.00    +0.017 C 
ATOM     15  C   UNL     1      13.781   8.807  21.940  0.00  0.00    +0.085 C 
BRANCH   6  16
ATOM     16  C   UNL     1      14.496   6.919  20.601  0.00  0.00    +0.120 C 
BRANCH  16  18
ATOM     18  C   UNL     1      13.852   7.501  19.371  0.00  0.00    -0.033 A 
ATOM     19  C   UNL     1      14.615   7.727  18.225  0.00  0.00    +0.007 A 
ATOM     20  C   UNL     1      12.493   7.814  19.378  0.00  0.00    +0.007 A 
ATOM     22  C   UNL     1      14.018   8.266  17.085  0.00  0.00    +0.033 A 
ATOM     23  C   UNL     1      11.896   8.353  18.238  0.00  0.00    +0.033 A 
ATOM     24  C   UNL     1      12.659   8.579  17.092  0.00  0.00    +0.126 A 
BRANCH  24   9
ATOM      2  O   UNL     1      12.720   9.899  15.201  0.00  0.00    -0.126 OA
ATOM      3  O   UNL     1      10.861   8.828  15.668  0.00  0.00    -0.126 OA
ATOM      9  N   UNL     1      12.051   9.128  15.931  0.00  0.00    +0.056 N 
ENDBRANCH  24   9
ENDBRANCH  16  18
ENDBRANCH   6  16
ENDBRANCH  17  12
TORSDOF 8
ENDMDL
MODEL 3
REMARK VINA RESULT:      -6.5     29.766     32.054
REMARK  Name = 45783635
REMARK  9 active torsions:
REMARK  status: ('A' for Active; 'I' for Inactive)
REMARK    1  A    between atoms: O_4  and  C_31
REMARK    2  A    between atoms: O_4  and  C_32
REMARK    3  A    between atoms: N_6  and  C_16
REMARK    4  A    between atoms: N_9  and  C_24
REMARK    5  A    between atoms: N_11  and  C_29
REMARK    6  A    between atoms: C_12  and  C_17
REMARK    7  A    between atoms: C_16  and  C_18
REMARK    8  A    between atoms: C_21  and  C_25
REMARK    9  A    between atoms: C_30  and  C_31
REMARK                            x       y       z     vdW  Elec       q    Type
REMARK                         _______ _______ _______ _____ _____    ______ ____
ROOT
ATOM      1  O   UNL     1     -13.340  -6.348  12.707  0.00  0.00    -0.336 OA
ATOM      7  N   UNL     1     -11.888  -5.395  14.121  0.00  0.00    -0.190 NA
ATOM      8  N   UNL     1     -12.771  -7.394  13.445  0.00  0.00    -0.056 NA
ATOM     17  C   UNL     1     -12.764  -5.207  13.167  0.00  0.00    +0.245 A 
ATOM     21  C   UNL     1     -11.926  -6.752  14.256  0.00  0.00    +0.204 A 
ENDROOT
BRANCH  21  25
ATOM     10  N   UNL     1      -9.725  -9.344  15.762  0.00  0.00    -0.239 NA
ATOM     25  C   UNL     1     -11.105  -7.436  15.214  0.00  0.00    +0.041 A 
ATOM     26  C   UNL     1     -10.885  -6.904  16.479  0.00  0.00    +0.016 A 
ATOM     27  C   UNL     1     -10.508  -8.648  14.906  0.00  0.00    +0.124 A 
ATOM     28  C   UNL     1     -10.085  -7.591  17.386  0.00  0.00    +0.044 A 
ATOM     29  C   UNL     1      -9.533  -8.796  16.982  0.00  0.00    +0.125 A 
BRANCH  29  11
ATOM      5  O   UNL     1      -6.600  -9.460  16.897  0.00  0.00    -0.273 OA
ATOM     11  N   UNL     1      -8.730  -9.479  17.903  0.00  0.00    -0.268 N 
ATOM     30  C   UNL     1      -7.363  -9.760  17.811  0.00  0.00    +0.244 C 
ATOM     33  H   UNL     1      -9.222  -9.801  18.733  0.00  0.00    +0.156 HD
BRANCH  30  31
ATOM     31  C   UNL     1      -6.858 -10.529  19.011  0.00  0.00    +0.255 C 
BRANCH  31   4
ATOM      4  O   UNL     1      -7.964 -11.036  19.727  0.00  0.00    -0.374 OA
ATOM     32  C   UNL     1      -7.960 -12.460  19.773  0.00  0.00    +0.194 C 
ENDBRANCH  31   4
ENDBRANCH  30  31
ENDBRANCH  29  11
ENDBRANCH  21  25
BRANCH  17  12
ATOM      6  N   UNL     1     -13.146  -3.964  11.046  0.00  0.00    -0.287 NA
ATOM     12  C   UNL     1     -13.217  -3.915  12.520  0.00  0.00    +0.146 C 
ATOM     13  C   UNL     1     -14.689  -3.580  12.829  0.00  0.00    +0.030 C 
ATOM     14  C   UNL     1     -15.349  -3.399  11.470  0.00  0.00    +0.017 C 
ATOM     15  C   UNL     1     -14.190  -3.067  10.551  0.00  0.00    +0.085 C 
BRANCH   6  16
ATOM     16  C   UNL     1     -11.831  -3.614  10.523  0.00  0.00    +0.120 C 
BRANCH  16  18
ATOM     18  C   UNL     1     -11.261  -4.710   9.662  0.00  0.00    -0.033 A 
ATOM     19  C   UNL     1     -11.934  -5.926   9.545  0.00  0.00    +0.007 A 
ATOM     20  C   UNL     1     -10.059  -4.509   8.983  0.00  0.00    +0.007 A 
ATOM     22  C   UNL     1     -11.405  -6.942   8.747  0.00  0.00    +0.033 A 
ATOM     23  C   UNL     1      -9.530  -5.524   8.186  0.00  0.00    +0.033 A 
ATOM     24  C   UNL     1     -10.203  -6.741   8.068  0.00  0.00    +0.126 A 
BRANCH  24   9
ATOM      2  O   UNL     1      -9.333  -7.510   6.076  0.00  0.00    -0.126 OA
ATOM      3  O   UNL     1      -9.536  -8.924   7.742  0.00  0.00    -0.126 OA
ATOM      9  N   UNL     1      -9.664  -7.774   7.256  0.00  0.00    +0.056 N 
ENDBRANCH  24   9
ENDBRANCH  16  18
ENDBRANCH   6  16
ENDBRANCH  17  12
TORSDOF 8
ENDMDL
MODEL 4
REMARK VINA RESULT:      -6.4      3.217      9.984
REMARK  Name = 45783635
REMARK  9 active torsions:
REMARK  status: ('A' for Active; 'I' for Inactive)
REMARK    1  A    between atoms: O_4  and  C_31
REMARK    2  A    between atoms: O_4  and  C_32
REMARK    3  A    between atoms: N_6  and  C_16
REMARK    4  A    between atoms: N_9  and  C_24
REMARK    5  A    between atoms: N_11  and  C_29
REMARK    6  A    between atoms: C_12  and  C_17
REMARK    7  A    between atoms: C_16  and  C_18
REMARK    8  A    between atoms: C_21  and  C_25
REMARK    9  A    between atoms: C_30  and  C_31
REMARK                            x       y       z     vdW  Elec       q    Type
REMARK                         _______ _______ _______ _____ _____    ______ ____
ROOT
ATOM      1  O   UNL     1      22.210   6.795  20.669  0.00  0.00    -0.336 OA
ATOM      7  N   UNL     1      20.794   5.095  21.017  0.00  0.00    -0.190 NA
ATOM      8  N   UNL     1      20.931   7.288  20.380  0.00  0.00    -0.056 NA
ATOM     17  C   UNL     1      22.039   5.498  21.035  0.00  0.00    +0.245 A 
ATOM     21  C   UNL     1      20.152   6.227  20.609  0.00  0.00    +0.204 A 
ENDROOT
BRANCH  21  25
ATOM     10  N   UNL     1      16.792   5.703  19.102  0.00  0.00    -0.239 NA
ATOM     25  C   UNL     1      18.728   6.265  20.437  0.00  0.00    +0.041 A 
ATOM     26  C   UNL     1      17.908   6.869  21.384  0.00  0.00    +0.016 A 
ATOM     27  C   UNL     1      18.126   5.701  19.323  0.00  0.00    +0.124 A 
ATOM     28  C   UNL     1      16.530   6.890  21.191  0.00  0.00    +0.044 A 
ATOM     29  C   UNL     1      16.027   6.299  20.043  0.00  0.00    +0.125 A 
BRANCH  29  11
ATOM      5  O   UNL     1      14.295   8.258  18.556  0.00  0.00    -0.273 OA
ATOM     11  N   UNL     1      14.640   6.326  19.858  0.00  0.00    -0.268 N 
ATOM     30  C   UNL     1      13.884   7.268  19.153  0.00  0.00    +0.244 C 
ATOM     33  H   UNL     1      14.142   5.558  20.301  0.00  0.00    +0.156 HD
BRANCH  30  31
ATOM     31  C   UNL     1      12.404   6.953  19.190  0.00  0.00    +0.255 C 
BRANCH  31   4
ATOM      4  O   UNL     1      11.679   8.147  18.992  0.00  0.00    -0.374 OA
ATOM     32  C   UNL     1      11.075   8.608  20.197  0.00  0.00    +0.194 C 
ENDBRANCH  31   4
ENDBRANCH  30  31
ENDBRANCH  29  11
ENDBRANCH  21  25
BRANCH  17  12
ATOM      6  N   UNL     1      23.329   4.359  22.832  0.00  0.00    -0.287 NA
ATOM     12  C   UNL     1      23.292   4.731  21.404  0.00  0.00    +0.146 C 
ATOM     13  C   UNL     1      23.415   3.395  20.648  0.00  0.00    +0.030 C 
ATOM     14  C   UNL     1      23.577   2.339  21.732  0.00  0.00    +0.017 C 
ATOM     15  C   UNL     1      24.105   3.122  22.917  0.00  0.00    +0.085 C 
BRANCH   6  16
ATOM     16  C   UNL     1      23.874   5.408  23.685  0.00  0.00    +0.120 C 
BRANCH  16  18
ATOM     18  C   UNL     1      22.920   5.788  24.785  0.00  0.00    -0.033 A 
ATOM     19  C   UNL     1      21.819   6.598  24.505  0.00  0.00    +0.007 A 
ATOM     20  C   UNL     1      23.137   5.331  26.085  0.00  0.00    +0.007 A 
ATOM     22  C   UNL     1      20.935   6.951  25.524  0.00  0.00    +0.033 A 
ATOM     23  C   UNL     1      22.252   5.684  27.105  0.00  0.00    +0.033 A 
ATOM     24  C   UNL     1      21.152   6.494  26.824  0.00  0.00    +0.126 A 
BRANCH  24   9
ATOM      2  O   UNL     1      19.826   5.960  28.634  0.00  0.00    -0.126 OA
ATOM      3  O   UNL     1      19.905   8.053  27.979  0.00  0.00    -0.126 OA
ATOM      9  N   UNL     1      20.251   6.853  27.863  0.00  0.00    +0.056 N 
ENDBRANCH  24   9
ENDBRANCH  16  18
ENDBRANCH   6  16
ENDBRANCH  17  12
TORSDOF 8
ENDMDL
MODEL 5
REMARK VINA RESULT:      -6.4     27.582     30.246
REMARK  Name = 45783635
REMARK  9 active torsions:
REMARK  status: ('A' for Active; 'I' for Inactive)
REMARK    1  A    between atoms: O_4  and  C_31
REMARK    2  A    between atoms: O_4  and  C_32
REMARK    3  A    between atoms: N_6  and  C_16
REMARK    4  A    between atoms: N_9  and  C_24
REMARK    5  A    between atoms: N_11  and  C_29
REMARK    6  A    between atoms: C_12  and  C_17
REMARK    7  A    between atoms: C_16  and  C_18
REMARK    8  A    between atoms: C_21  and  C_25
REMARK    9  A    between atoms: C_30  and  C_31
REMARK                            x       y       z     vdW  Elec       q    Type
REMARK                         _______ _______ _______ _____ _____    ______ ____
ROOT
ATOM      1  O   UNL     1      -6.681 -11.771  20.389  0.00  0.00    -0.336 OA
ATOM      7  N   UNL     1      -7.301 -11.907  18.242  0.00  0.00    -0.190 NA
ATOM      8  N   UNL     1      -5.566 -11.380  19.637  0.00  0.00    -0.056 NA
ATOM     17  C   UNL     1      -7.657 -12.066  19.491  0.00  0.00    +0.245 A 
ATOM     21  C   UNL     1      -6.011 -11.486  18.381  0.00  0.00    +0.204 A 
ENDROOT
BRANCH  21  25
ATOM     10  N   UNL     1      -5.032 -10.731  14.873  0.00  0.00    -0.239 NA
ATOM     25  C   UNL     1      -5.192 -11.180  17.244  0.00  0.00    +0.041 A 
ATOM     26  C   UNL     1      -3.814 -11.037  17.370  0.00  0.00    +0.016 A 
ATOM     27  C   UNL     1      -5.747 -11.018  15.985  0.00  0.00    +0.124 A 
ATOM     28  C   UNL     1      -3.046 -10.740  16.250  0.00  0.00    +0.044 A 
ATOM     29  C   UNL     1      -3.697 -10.599  15.036  0.00  0.00    +0.125 A 
BRANCH  29  11
ATOM      5  O   UNL     1      -2.533 -12.408  12.932  0.00  0.00    -0.273 OA
ATOM     11  N   UNL     1      -2.914 -10.301  13.914  0.00  0.00    -0.268 N 
ATOM     30  C   UNL     1      -2.398 -11.188  12.964  0.00  0.00    +0.244 C 
ATOM     33  H   UNL     1      -2.708  -9.312  13.796  0.00  0.00    +0.156 HD
BRANCH  30  31
ATOM     31  C   UNL     1      -1.590 -10.476  11.901  0.00  0.00    +0.255 C 
BRANCH  31   4
ATOM      4  O   UNL     1      -2.423  -9.547  11.240  0.00  0.00    -0.374 OA
ATOM     32  C   UNL     1      -3.344 -10.190  10.364  0.00  0.00    +0.194 C 
ENDBRANCH  31   4
ENDBRANCH  30  31
ENDBRANCH  29  11
ENDBRANCH  21  25
BRANCH  17  12
ATOM      6  N   UNL     1     -10.137 -11.975  19.320  0.00  0.00    -0.287 NA
ATOM     12  C   UNL     1      -8.983 -12.521  20.062  0.00  0.00    +0.146 C 
ATOM     13  C   UNL     1      -9.165 -14.049  19.999  0.00  0.00    +0.030 C 
ATOM     14  C   UNL     1     -10.476 -14.263  19.256  0.00  0.00    +0.017 C 
ATOM     15  C   UNL     1     -11.215 -12.955  19.453  0.00  0.00    +0.085 C 
BRANCH   6  16
ATOM     16  C   UNL     1     -10.541 -10.652  19.777  0.00  0.00    +0.120 C 
BRANCH  16  18
ATOM     18  C   UNL     1     -10.704  -9.689  18.632  0.00  0.00    -0.033 A 
ATOM     19  C   UNL     1     -11.978  -9.386  18.150  0.00  0.00    +0.007 A 
ATOM     20  C   UNL     1      -9.580  -9.100  18.051  0.00  0.00    +0.007 A 
ATOM     22  C   UNL     1     -12.128  -8.494  17.089  0.00  0.00    +0.033 A 
ATOM     23  C   UNL     1      -9.731  -8.208  16.989  0.00  0.00    +0.033 A 
ATOM     24  C   UNL     1     -11.005  -7.905  16.508  0.00  0.00    +0.126 A 
BRANCH  24   9
ATOM      2  O   UNL     1     -10.836  -5.795  15.592  0.00  0.00    -0.126 OA
ATOM      3  O   UNL     1     -11.612  -7.420  14.336  0.00  0.00    -0.126 OA
ATOM      9  N   UNL     1     -11.158  -6.997  15.427  0.00  0.00    +0.056 N 
ENDBRANCH  24   9
ENDBRANCH  16  18
ENDBRANCH   6  16
ENDBRANCH  17  12
TORSDOF 8
ENDMDL
MODEL 6
REMARK VINA RESULT:      -6.3     27.728     31.232
REMARK  Name = 45783635
REMARK  9 active torsions:
REMARK  status: ('A' for Active; 'I' for Inactive)
REMARK    1  A    between atoms: O_4  and  C_31
REMARK    2  A    between atoms: O_4  and  C_32
REMARK    3  A    between atoms: N_6  and  C_16
REMARK    4  A    between atoms: N_9  and  C_24
REMARK    5  A    between atoms: N_11  and  C_29
REMARK    6  A    between atoms: C_12  and  C_17
REMARK    7  A    between atoms: C_16  and  C_18
REMARK    8  A    between atoms: C_21  and  C_25
REMARK    9  A    between atoms: C_30  and  C_31
REMARK                            x       y       z     vdW  Elec       q    Type
REMARK                         _______ _______ _______ _____ _____    ______ ____
ROOT
ATOM      1  O   UNL     1      -5.302  -9.632  15.909  0.00  0.00    -0.336 OA
ATOM      7  N   UNL     1      -5.787 -11.319  17.299  0.00  0.00    -0.190 NA
ATOM      8  N   UNL     1      -6.534  -9.312  16.494  0.00  0.00    -0.056 NA
ATOM     17  C   UNL     1      -4.934 -10.828  16.437  0.00  0.00    +0.245 A 
ATOM     21  C   UNL     1      -6.752 -10.354  17.301  0.00  0.00    +0.204 A 
ENDROOT
BRANCH  21  25
ATOM     10  N   UNL     1      -8.993 -11.382  20.087  0.00  0.00    -0.239 NA
ATOM     25  C   UNL     1      -7.924 -10.463  18.122  0.00  0.00    +0.041 A 
ATOM     26  C   UNL     1      -9.098  -9.796  17.787  0.00  0.00    +0.016 A 
ATOM     27  C   UNL     1      -7.923 -11.237  19.272  0.00  0.00    +0.124 A 
ATOM     28  C   UNL     1     -10.218  -9.921  18.602  0.00  0.00    +0.044 A 
ATOM     29  C   UNL     1     -10.115 -10.718  19.729  0.00  0.00    +0.125 A 
BRANCH  29  11
ATOM      5  O   UNL     1     -12.541 -12.476  19.450  0.00  0.00    -0.273 OA
ATOM     11  N   UNL     1     -11.248 -10.837  20.542  0.00  0.00    -0.268 N 
ATOM     30  C   UNL     1     -12.352 -11.676  20.362  0.00  0.00    +0.244 C 
ATOM     33  H   UNL     1     -11.247 -10.228  21.357  0.00  0.00    +0.156 HD
BRANCH  30  31
ATOM     31  C   UNL     1     -13.381 -11.506  21.458  0.00  0.00    +0.255 C 
BRANCH  31   4
ATOM      4  O   UNL     1     -13.806 -12.782  21.888  0.00  0.00    -0.374 OA
ATOM     32  C   UNL     1     -13.083 -13.223  23.034  0.00  0.00    +0.194 C 
ENDBRANCH  31   4
ENDBRANCH  30  31
ENDBRANCH  29  11
ENDBRANCH  21  25
BRANCH  17  12
ATOM      6  N   UNL     1      -3.307 -11.020  14.565  0.00  0.00    -0.287 NA
ATOM     12  C   UNL     1      -3.616 -11.400  15.958  0.00  0.00    +0.146 C 
ATOM     13  C   UNL     1      -2.415 -10.892  16.777  0.00  0.00    +0.030 C 
ATOM     14  C   UNL     1      -1.458 -10.298  15.754  0.00  0.00    +0.017 C 
ATOM     15  C   UNL     1      -1.848 -10.984  14.460  0.00  0.00    +0.085 C 
BRANCH   6  16
ATOM     16  C   UNL     1      -3.905 -11.912  13.580  0.00  0.00    +0.120 C 
BRANCH  16  18
ATOM     18  C   UNL     1      -4.336 -11.172  12.342  0.00  0.00    -0.033 A 
ATOM     19  C   UNL     1      -3.892 -11.591  11.088  0.00  0.00    +0.007 A 
ATOM     20  C   UNL     1      -5.178 -10.065  12.450  0.00  0.00    +0.007 A 
ATOM     22  C   UNL     1      -4.292 -10.905   9.941  0.00  0.00    +0.033 A 
ATOM     23  C   UNL     1      -5.578  -9.379  11.303  0.00  0.00    +0.033 A 
ATOM     24  C   UNL     1      -5.134  -9.798  10.049  0.00  0.00    +0.126 A 
BRANCH  24   9
ATOM      2  O   UNL     1      -5.208  -9.547   7.757  0.00  0.00    -0.126 OA
ATOM      3  O   UNL     1      -6.222  -8.052   9.005  0.00  0.00    -0.126 OA
ATOM      9  N   UNL     1      -5.541  -9.099   8.881  0.00  0.00    +0.056 N 
ENDBRANCH  24   9
ENDBRANCH  16  18
ENDBRANCH   6  16
ENDBRANCH  17  12
TORSDOF 8
ENDMDL
MODEL 7
REMARK VINA RESULT:      -6.3     26.921     30.664
REMARK  Name = 45783635
REMARK  9 active torsions:
REMARK  status: ('A' for Active; 'I' for Inactive)
REMARK    1  A    between atoms: O_4  and  C_31
REMARK    2  A    between atoms: O_4  and  C_32
REMARK    3  A    between atoms: N_6  and  C_16
REMARK    4  A    between atoms: N_9  and  C_24
REMARK    5  A    between atoms: N_11  and  C_29
REMARK    6  A    between atoms: C_12  and  C_17
REMARK    7  A    between atoms: C_16  and  C_18
REMARK    8  A    between atoms: C_21  and  C_25
REMARK    9  A    between atoms: C_30  and  C_31
REMARK                            x       y       z     vdW  Elec       q    Type
REMARK                         _______ _______ _______ _____ _____    ______ ____
ROOT
ATOM      1  O   UNL     1      -4.667 -11.505  17.325  0.00  0.00    -0.336 OA
ATOM      7  N   UNL     1      -5.376 -10.322  15.561  0.00  0.00    -0.190 NA
ATOM      8  N   UNL     1      -5.977 -11.108  17.624  0.00  0.00    -0.056 NA
ATOM     17  C   UNL     1      -4.392 -10.999  16.094  0.00  0.00    +0.245 A 
ATOM     21  C   UNL     1      -6.326 -10.416  16.535  0.00  0.00    +0.204 A 
ENDROOT
BRANCH  21  25
ATOM     10  N   UNL     1      -9.436  -8.561  17.387  0.00  0.00    -0.239 NA
ATOM     25  C   UNL     1      -7.616  -9.804  16.391  0.00  0.00    +0.041 A 
ATOM     26  C   UNL     1      -8.296  -9.843  15.179  0.00  0.00    +0.016 A 
ATOM     27  C   UNL     1      -8.223  -9.157  17.456  0.00  0.00    +0.124 A 
ATOM     28  C   UNL     1      -9.546  -9.241  15.070  0.00  0.00    +0.044 A 
ATOM     29  C   UNL     1     -10.067  -8.620  16.193  0.00  0.00    +0.125 A 
BRANCH  29  11
ATOM      5  O   UNL     1     -10.817  -5.754  15.665  0.00  0.00    -0.273 OA
ATOM     11  N   UNL     1     -11.325  -8.018  16.072  0.00  0.00    -0.268 N 
ATOM     30  C   UNL     1     -11.615  -6.673  15.824  0.00  0.00    +0.244 C 
ATOM     33  H   UNL     1     -12.109  -8.657  16.183  0.00  0.00    +0.156 HD
BRANCH  30  31
ATOM     31  C   UNL     1     -13.105  -6.412  15.772  0.00  0.00    +0.255 C 
BRANCH  31   4
ATOM      4  O   UNL     1     -13.403  -5.706  14.586  0.00  0.00    -0.374 OA
ATOM     32  C   UNL     1     -13.832  -6.578  13.544  0.00  0.00    +0.194 C 
ENDBRANCH  31   4
ENDBRANCH  30  31
ENDBRANCH  29  11
ENDBRANCH  21  25
BRANCH  17  12
ATOM      6  N   UNL     1      -2.847 -10.805  14.154  0.00  0.00    -0.287 NA
ATOM     12  C   UNL     1      -3.015 -11.294  15.537  0.00  0.00    +0.146 C 
ATOM     13  C   UNL     1      -1.891 -10.607  16.334  0.00  0.00    +0.030 C 
ATOM     14  C   UNL     1      -1.109  -9.803  15.306  0.00  0.00    +0.017 C 
ATOM     15  C   UNL     1      -1.426 -10.494  13.995  0.00  0.00    +0.085 C 
BRANCH   6  16
ATOM     16  C   UNL     1      -3.316 -11.751  13.149  0.00  0.00    +0.120 C 
BRANCH  16  18
ATOM     18  C   UNL     1      -3.961 -11.054  11.981  0.00  0.00    -0.033 A 
ATOM     19  C   UNL     1      -3.566 -11.361  10.679  0.00  0.00    +0.007 A 
ATOM     20  C   UNL     1      -4.955 -10.099  12.202  0.00  0.00    +0.007 A 
ATOM     22  C   UNL     1      -4.164 -10.714   9.598  0.00  0.00    +0.033 A 
ATOM     23  C   UNL     1      -5.553  -9.453  11.120  0.00  0.00    +0.033 A 
ATOM     24  C   UNL     1      -5.158  -9.760   9.818  0.00  0.00    +0.126 A 
BRANCH  24   9
ATOM      2  O   UNL     1      -5.561  -9.537   7.559  0.00  0.00    -0.126 OA
ATOM      3  O   UNL     1      -6.494  -8.101   8.933  0.00  0.00    -0.126 OA
ATOM      9  N   UNL     1      -5.767  -9.101   8.717  0.00  0.00    +0.056 N 
ENDBRANCH  24   9
ENDBRANCH  16  18
ENDBRANCH   6  16
ENDBRANCH  17  12
TORSDOF 8
ENDMDL
MODEL 8
REMARK VINA RESULT:      -6.3     16.609     20.432
REMARK  Name = 45783635
REMARK  9 active torsions:
REMARK  status: ('A' for Active; 'I' for Inactive)
REMARK    1  A    between atoms: O_4  and  C_31
REMARK    2  A    between atoms: O_4  and  C_32
REMARK    3  A    between atoms: N_6  and  C_16
REMARK    4  A    between atoms: N_9  and  C_24
REMARK    5  A    between atoms: N_11  and  C_29
REMARK    6  A    between atoms: C_12  and  C_17
REMARK    7  A    between atoms: C_16  and  C_18
REMARK    8  A    between atoms: C_21  and  C_25
REMARK    9  A    between atoms: C_30  and  C_31
REMARK                            x       y       z     vdW  Elec       q    Type
REMARK                         _______ _______ _______ _____ _____    ______ ____
ROOT
ATOM      1  O   UNL     1      10.146   4.430   5.537  0.00  0.00    -0.336 OA
ATOM      7  N   UNL     1      11.004   5.895   4.077  0.00  0.00    -0.190 NA
ATOM      8  N   UNL     1      10.294   3.735   4.330  0.00  0.00    -0.056 NA
ATOM     17  C   UNL     1      10.586   5.693   5.300  0.00  0.00    +0.245 A 
ATOM     21  C   UNL     1      10.805   4.666   3.519  0.00  0.00    +0.204 A 
ENDROOT
BRANCH  21  25
ATOM     10  N   UNL     1      10.486   4.497  -0.183  0.00  0.00    -0.239 NA
ATOM     25  C   UNL     1      11.128   4.400   2.147  0.00  0.00    +0.041 A 
ATOM     26  C   UNL     1      12.338   3.811   1.795  0.00  0.00    +0.016 A 
ATOM     27  C   UNL     1      10.244   4.721   1.129  0.00  0.00    +0.124 A 
ATOM     28  C   UNL     1      12.622   3.566   0.456  0.00  0.00    +0.044 A 
ATOM     29  C   UNL     1      11.671   3.924  -0.485  0.00  0.00    +0.125 A 
BRANCH  29  11
ATOM      5  O   UNL     1      10.429   1.993  -2.429  0.00  0.00    -0.273 OA
ATOM     11  N   UNL     1      11.968   3.672  -1.830  0.00  0.00    -0.268 N 
ATOM     30  C   UNL     1      11.353   2.757  -2.690  0.00  0.00    +0.244 C 
ATOM     33  H   UNL     1      12.727   4.235  -2.206  0.00  0.00    +0.156 HD
BRANCH  30  31
ATOM     31  C   UNL     1      11.966   2.775  -4.074  0.00  0.00    +0.255 C 
BRANCH  31   4
ATOM      4  O   UNL     1      13.154   3.538  -4.036  0.00  0.00    -0.374 OA
ATOM     32  C   UNL     1      13.269   4.398  -5.165  0.00  0.00    +0.194 C 
ENDBRANCH  31   4
ENDBRANCH  30  31
ENDBRANCH  29  11
ENDBRANCH  21  25
BRANCH  17  12
ATOM      6  N   UNL     1       9.394   7.597   6.371  0.00  0.00    -0.287 NA
ATOM     12  C   UNL     1      10.529   6.657   6.467  0.00  0.00    +0.146 C 
ATOM     13  C   UNL     1      10.333   5.943   7.818  0.00  0.00    +0.030 C 
ATOM     14  C   UNL     1       9.101   6.590   8.434  0.00  0.00    +0.017 C 
ATOM     15  C   UNL     1       9.023   7.938   7.745  0.00  0.00    +0.085 C 
BRANCH   6  16
ATOM     16  C   UNL     1       9.694   8.780   5.575  0.00  0.00    +0.120 C 
BRANCH  16  18
ATOM     18  C   UNL     1       8.553   9.146   4.664  0.00  0.00    -0.033 A 
ATOM     19  C   UNL     1       8.480   8.599   3.382  0.00  0.00    +0.007 A 
ATOM     20  C   UNL     1       7.569  10.033   5.101  0.00  0.00    +0.007 A 
ATOM     22  C   UNL     1       7.423   8.939   2.538  0.00  0.00    +0.033 A 
ATOM     23  C   UNL     1       6.512  10.373   4.256  0.00  0.00    +0.033 A 
ATOM     24  C   UNL     1       6.439   9.826   2.975  0.00  0.00    +0.126 A 
BRANCH  24   9
ATOM      2  O   UNL     1       4.219   9.717   2.360  0.00  0.00    -0.126 OA
ATOM      3  O   UNL     1       5.585  10.923   1.135  0.00  0.00    -0.126 OA
ATOM      9  N   UNL     1       5.362  10.172   2.116  0.00  0.00    +0.056 N 
ENDBRANCH  24   9
ENDBRANCH  16  18
ENDBRANCH   6  16
ENDBRANCH  17  12
TORSDOF 8
ENDMDL
MODEL 9
REMARK VINA RESULT:      -6.3      3.057     11.819
REMARK  Name = 45783635
REMARK  9 active torsions:
REMARK  status: ('A' for Active; 'I' for Inactive)
REMARK    1  A    between atoms: O_4  and  C_31
REMARK    2  A    between atoms: O_4  and  C_32
REMARK    3  A    between atoms: N_6  and  C_16
REMARK    4  A    between atoms: N_9  and  C_24
REMARK    5  A    between atoms: N_11  and  C_29
REMARK    6  A    between atoms: C_12  and  C_17
REMARK    7  A    between atoms: C_16  and  C_18
REMARK    8  A    between atoms: C_21  and  C_25
REMARK    9  A    between atoms: C_30  and  C_31
REMARK                            x       y       z     vdW  Elec       q    Type
REMARK                         _______ _______ _______ _____ _____    ______ ____
ROOT
ATOM      1  O   UNL     1      20.987   6.471  22.853  0.00  0.00    -0.336 OA
ATOM      7  N   UNL     1      20.411   5.647  20.852  0.00  0.00    -0.190 NA
ATOM      8  N   UNL     1      19.676   6.903  22.618  0.00  0.00    -0.056 NA
ATOM     17  C   UNL     1      21.344   5.740  21.765  0.00  0.00    +0.245 A 
ATOM     21  C   UNL     1      19.407   6.376  21.419  0.00  0.00    +0.204 A 
ENDROOT
BRANCH  21  25
ATOM     10  N   UNL     1      16.647   5.958  18.961  0.00  0.00    -0.239 NA
ATOM     25  C   UNL     1      18.147   6.562  20.760  0.00  0.00    +0.041 A 
ATOM     26  C   UNL     1      17.217   7.480  21.236  0.00  0.00    +0.016 A 
ATOM     27  C   UNL     1      17.817   5.831  19.629  0.00  0.00    +0.124 A 
ATOM     28  C   UNL     1      16.003   7.638  20.575  0.00  0.00    +0.044 A 
ATOM     29  C   UNL     1      15.769   6.860  19.453  0.00  0.00    +0.125 A 
BRANCH  29  11
ATOM      5  O   UNL     1      14.627   9.253  18.032  0.00  0.00    -0.273 OA
ATOM     11  N   UNL     1      14.544   7.027  18.796  0.00  0.00    -0.268 N 
ATOM     30  C   UNL     1      14.063   8.169  18.149  0.00  0.00    +0.244 C 
ATOM     33  H   UNL     1      13.948   6.203  18.804  0.00  0.00    +0.156 HD
BRANCH  30  31
ATOM     31  C   UNL     1      12.684   7.954  17.564  0.00  0.00    +0.255 C 
BRANCH  31   4
ATOM      4  O   UNL     1      11.815   7.525  18.591  0.00  0.00    -0.374 OA
ATOM     32  C   UNL     1      11.362   8.613  19.392  0.00  0.00    +0.194 C 
ENDBRANCH  31   4
ENDBRANCH  30  31
ENDBRANCH  29  11
ENDBRANCH  21  25
BRANCH  17  12
ATOM      6  N   UNL     1      22.981   4.243  20.638  0.00  0.00    -0.287 NA
ATOM     12  C   UNL     1      22.740   5.152  21.776  0.00  0.00    +0.146 C 
ATOM     13  C   UNL     1      23.838   6.226  21.659  0.00  0.00    +0.030 C 
ATOM     14  C   UNL     1      24.682   5.803  20.466  0.00  0.00    +0.017 C 
ATOM     15  C   UNL     1      24.413   4.316  20.348  0.00  0.00    +0.085 C 
BRANCH   6  16
ATOM     16  C   UNL     1      22.542   2.877  20.891  0.00  0.00    +0.120 C 
BRANCH  16  18
ATOM     18  C   UNL     1      23.511   2.131  21.771  0.00  0.00    -0.033 A 
ATOM     19  C   UNL     1      24.447   1.267  21.202  0.00  0.00    +0.007 A 
ATOM     20  C   UNL     1      23.470   2.304  23.155  0.00  0.00    +0.007 A 
ATOM     22  C   UNL     1      25.344   0.577  22.018  0.00  0.00    +0.033 A 
ATOM     23  C   UNL     1      24.367   1.613  23.970  0.00  0.00    +0.033 A 
ATOM     24  C   UNL     1      25.304   0.749  23.402  0.00  0.00    +0.126 A 
BRANCH  24   9
ATOM      2  O   UNL     1      25.939  -1.125  24.585  0.00  0.00    -0.126 OA
ATOM      3  O   UNL     1      27.276   0.616  24.589  0.00  0.00    -0.126 OA
ATOM      9  N   UNL     1      26.217   0.046  24.232  0.00  0.00    +0.056 N 
ENDBRANCH  24   9
ENDBRANCH  16  18
ENDBRANCH   6  16
ENDBRANCH  17  12
TORSDOF 8
ENDMDL
MODEL 10
REMARK VINA RESULT:      -6.3     14.871     17.586
REMARK  Name = 45783635
REMARK  9 active torsions:
REMARK  status: ('A' for Active; 'I' for Inactive)
REMARK    1  A    between atoms: O_4  and  C_31
REMARK    2  A    between atoms: O_4  and  C_32
REMARK    3  A    between atoms: N_6  and  C_16
REMARK    4  A    between atoms: N_9  and  C_24
REMARK    5  A    between atoms: N_11  and  C_29
REMARK    6  A    between atoms: C_12  and  C_17
REMARK    7  A    between atoms: C_16  and  C_18
REMARK    8  A    between atoms: C_21  and  C_25
REMARK    9  A    between atoms: C_30  and  C_31
REMARK                            x       y       z     vdW  Elec       q    Type
REMARK                         _______ _______ _______ _____ _____    ______ ____
ROOT
ATOM      1  O   UNL     1      12.451   6.760   7.156  0.00  0.00    -0.336 OA
ATOM      7  N   UNL     1      12.922   8.140   5.457  0.00  0.00    -0.190 NA
ATOM      8  N   UNL     1      13.844   6.736   7.011  0.00  0.00    -0.056 NA
ATOM     17  C   UNL     1      11.987   7.609   6.202  0.00  0.00    +0.245 A 
ATOM     21  C   UNL     1      14.043   7.574   5.989  0.00  0.00    +0.204 A 
ENDROOT
BRANCH  21  25
ATOM     10  N   UNL     1      17.554   8.796   5.842  0.00  0.00    -0.239 NA
ATOM     25  C   UNL     1      15.351   7.868   5.476  0.00  0.00    +0.041 A 
ATOM     26  C   UNL     1      15.700   7.536   4.171  0.00  0.00    +0.016 A 
ATOM     27  C   UNL     1      16.305   8.491   6.264  0.00  0.00    +0.124 A 
ATOM     28  C   UNL     1      16.975   7.834   3.702  0.00  0.00    +0.044 A 
ATOM     29  C   UNL     1      17.856   8.458   4.569  0.00  0.00    +0.125 A 
BRANCH  29  11
ATOM      5  O   UNL     1      20.539   7.334   5.339  0.00  0.00    -0.273 OA
ATOM     11  N   UNL     1      19.137   8.753   4.086  0.00  0.00    -0.268 N 
ATOM     30  C   UNL     1      20.356   8.195   4.484  0.00  0.00    +0.244 C 
ATOM     33  H   UNL     1      19.158   9.463   3.358  0.00  0.00    +0.156 HD
BRANCH  30  31
ATOM     31  C   UNL     1      21.525   8.786   3.727  0.00  0.00    +0.255 C 
BRANCH  31   4
ATOM      4  O   UNL     1      22.312   7.733   3.209  0.00  0.00    -0.374 OA
ATOM     32  C   UNL     1      21.836   7.288   1.943  0.00  0.00    +0.194 C 
ENDBRANCH  31   4
ENDBRANCH  30  31
ENDBRANCH  29  11
ENDBRANCH  21  25
BRANCH  17  12
ATOM      6  N   UNL     1       9.791   6.714   5.448  0.00  0.00    -0.287 NA
ATOM     12  C   UNL     1      10.487   7.810   6.151  0.00  0.00    +0.146 C 
ATOM     13  C   UNL     1       9.844   7.847   7.551  0.00  0.00    +0.030 C 
ATOM     14  C   UNL     1       8.760   6.779   7.518  0.00  0.00    +0.017 C 
ATOM     15  C   UNL     1       8.457   6.622   6.042  0.00  0.00    +0.085 C 
BRANCH   6  16
ATOM     16  C   UNL     1       9.737   6.901   4.004  0.00  0.00    +0.120 C 
BRANCH  16  18
ATOM     18  C   UNL     1      10.686   5.982   3.284  0.00  0.00    -0.033 A 
ATOM     19  C   UNL     1      11.798   6.505   2.622  0.00  0.00    +0.007 A 
ATOM     20  C   UNL     1      10.454   4.606   3.276  0.00  0.00    +0.007 A 
ATOM     22  C   UNL     1      12.677   5.653   1.954  0.00  0.00    +0.033 A 
ATOM     23  C   UNL     1      11.334   3.754   2.609  0.00  0.00    +0.033 A 
ATOM     24  C   UNL     1      12.445   4.277   1.947  0.00  0.00    +0.126 A 
BRANCH  24   9
ATOM      2  O   UNL     1      14.426   3.103   1.818  0.00  0.00    -0.126 OA
ATOM      3  O   UNL     1      13.023   2.974   0.134  0.00  0.00    -0.126 OA
ATOM      9  N   UNL     1      13.341   3.410   1.267  0.00  0.00    +0.056 N 
ENDBRANCH  24   9
ENDBRANCH  16  18
ENDBRANCH   6  16
ENDBRANCH  17  12
TORSDOF 8
ENDMDL
