MODEL 1
REMARK VINA RESULT:      -6.6      0.000      0.000
REMARK  Name = 75368660
REMARK  3 active torsions:
REMARK  status: ('A' for Active; 'I' for Inactive)
REMARK    1  A    between atoms: N_5  and  C_9
REMARK    2  A    between atoms: N_6  and  C_16
REMARK    3  A    between atoms: C_16  and  C_19
REMARK                            x       y       z     vdW  Elec       q    Type
REMARK                         _______ _______ _______ _____ _____    ______ ____
ROOT
ATOM      3  O   UNL     1      16.442   9.635  21.663  0.00  0.00    -0.252 OA
ATOM      4  N   UNL     1      18.012   7.893  21.528  0.00  0.00    -0.278 N 
ATOM      5  N   UNL     1      16.014   7.604  20.542  0.00  0.00    -0.280 N 
ATOM      6  N   UNL     1      20.492   6.616  21.166  0.00  0.00    -0.295 NA
ATOM      7  C   UNL     1      18.034   6.524  21.054  0.00  0.00    +0.109 C 
ATOM      8  C   UNL     1      16.777   6.417  20.194  0.00  0.00    +0.133 C 
ATOM     10  C   UNL     1      19.343   6.239  20.317  0.00  0.00    +0.109 C 
ATOM     11  C   UNL     1      19.156   8.413  22.246  0.00  0.00    +0.125 C 
ATOM     12  C   UNL     1      16.779   8.517  21.295  0.00  0.00    +0.305 C 
ATOM     13  C   UNL     1      20.446   8.053  21.504  0.00  0.00    +0.104 C 
ENDROOT
BRANCH   5   9
ATOM      2  O   UNL     1      12.297   6.808  18.802  0.00  0.00    -0.380 OA
ATOM      9  C   UNL     1      14.689   7.839  20.026  0.00  0.00    +0.082 C 
ATOM     14  C   UNL     1      13.648   7.035  20.807  0.00  0.00    +0.050 C 
ATOM     15  C   UNL     1      14.609   7.504  18.536  0.00  0.00    +0.050 C 
ATOM     17  C   UNL     1      12.269   7.186  20.177  0.00  0.00    +0.161 C 
ATOM     18  C   UNL     1      13.176   7.629  18.034  0.00  0.00    +0.161 C 
ENDBRANCH   5   9
BRANCH   6  16
ATOM     16  C   UNL     1      21.750   6.290  20.495  0.00  0.00    +0.119 C 
BRANCH  16  19
ATOM      1 CL   UNL     1      24.131   1.168  22.566  0.00  0.00    -0.084 Cl
ATOM     19  C   UNL     1      22.346   5.009  21.012  0.00  0.00    -0.033 A 
ATOM     20  C   UNL     1      21.791   4.384  22.129  0.00  0.00    +0.006 A 
ATOM     21  C   UNL     1      23.454   4.447  20.377  0.00  0.00    +0.006 A 
ATOM     22  C   UNL     1      22.344   3.196  22.610  0.00  0.00    +0.020 A 
ATOM     23  C   UNL     1      24.007   3.261  20.858  0.00  0.00    +0.020 A 
ATOM     24  C   UNL     1      23.451   2.634  21.974  0.00  0.00    +0.041 A 
ENDBRANCH  16  19
ENDBRANCH   6  16
TORSDOF 3
ENDMDL
MODEL 2
REMARK VINA RESULT:      -6.4      4.136      8.763
REMARK  Name = 75368660
REMARK  3 active torsions:
REMARK  status: ('A' for Active; 'I' for Inactive)
REMARK    1  A    between atoms: N_5  and  C_9
REMARK    2  A    between atoms: N_6  and  C_16
REMARK    3  A    between atoms: C_16  and  C_19
REMARK                            x       y       z     vdW  Elec       q    Type
REMARK                         _______ _______ _______ _____ _____    ______ ____
ROOT
ATOM      3  O   UNL     1      20.436   7.932  22.345  0.00  0.00    -0.252 OA
ATOM      4  N   UNL     1      18.552   7.538  20.998  0.00  0.00    -0.278 N 
ATOM      5  N   UNL     1      20.207   6.019  20.984  0.00  0.00    -0.280 N 
ATOM      6  N   UNL     1      15.845   7.378  20.252  0.00  0.00    -0.295 NA
ATOM      7  C   UNL     1      18.158   6.579  19.986  0.00  0.00    +0.109 C 
ATOM      8  C   UNL     1      19.166   5.444  20.150  0.00  0.00    +0.133 C 
ATOM     10  C   UNL     1      16.697   6.174  20.180  0.00  0.00    +0.109 C 
ATOM     11  C   UNL     1      17.707   8.685  21.256  0.00  0.00    +0.125 C 
ATOM     12  C   UNL     1      19.813   7.252  21.541  0.00  0.00    +0.305 C 
ATOM     13  C   UNL     1      16.247   8.240  21.383  0.00  0.00    +0.104 C 
ENDROOT
BRANCH   5   9
ATOM      2  O   UNL     1      23.597   3.637  20.421  0.00  0.00    -0.380 OA
ATOM      9  C   UNL     1      21.420   5.304  21.296  0.00  0.00    +0.082 C 
ATOM     14  C   UNL     1      22.598   5.850  20.488  0.00  0.00    +0.050 C 
ATOM     15  C   UNL     1      21.255   3.804  21.047  0.00  0.00    +0.050 C 
ATOM     17  C   UNL     1      23.846   5.009  20.723  0.00  0.00    +0.161 C 
ATOM     18  C   UNL     1      22.580   3.078  21.251  0.00  0.00    +0.161 C 
ENDBRANCH   5   9
BRANCH   6  16
ATOM     16  C   UNL     1      14.437   7.000  20.376  0.00  0.00    +0.119 C 
BRANCH  16  19
ATOM      1 CL   UNL     1      11.114   9.231  15.885  0.00  0.00    -0.084 Cl
ATOM     19  C   UNL     1      13.606   7.558  19.252  0.00  0.00    -0.033 A 
ATOM     20  C   UNL     1      12.285   7.941  19.486  0.00  0.00    +0.006 A 
ATOM     21  C   UNL     1      14.156   7.692  17.977  0.00  0.00    +0.006 A 
ATOM     22  C   UNL     1      11.514   8.457  18.444  0.00  0.00    +0.020 A 
ATOM     23  C   UNL     1      13.385   8.207  16.936  0.00  0.00    +0.020 A 
ATOM     24  C   UNL     1      12.064   8.591  17.169  0.00  0.00    +0.041 A 
ENDBRANCH  16  19
ENDBRANCH   6  16
TORSDOF 3
ENDMDL
MODEL 3
REMARK VINA RESULT:      -6.4     27.919     31.783
REMARK  Name = 75368660
REMARK  3 active torsions:
REMARK  status: ('A' for Active; 'I' for Inactive)
REMARK    1  A    between atoms: N_5  and  C_9
REMARK    2  A    between atoms: N_6  and  C_16
REMARK    3  A    between atoms: C_16  and  C_19
REMARK                            x       y       z     vdW  Elec       q    Type
REMARK                         _______ _______ _______ _____ _____    ______ ____
ROOT
ATOM      3  O   UNL     1      -4.786 -11.899  18.304  0.00  0.00    -0.252 OA
ATOM      4  N   UNL     1      -6.591 -10.462  17.863  0.00  0.00    -0.278 N 
ATOM      5  N   UNL     1      -4.971 -10.641  16.317  0.00  0.00    -0.280 N 
ATOM      6  N   UNL     1      -9.250  -9.559  17.708  0.00  0.00    -0.295 NA
ATOM      7  C   UNL     1      -6.943  -9.486  16.853  0.00  0.00    +0.109 C 
ATOM      8  C   UNL     1      -5.972  -9.779  15.711  0.00  0.00    +0.133 C 
ATOM     10  C   UNL     1      -8.421  -9.611  16.486  0.00  0.00    +0.109 C 
ATOM     11  C   UNL     1      -7.426 -10.599  19.038  0.00  0.00    +0.125 C 
ATOM     12  C   UNL     1      -5.373 -11.099  17.588  0.00  0.00    +0.305 C 
ATOM     13  C   UNL     1      -8.900 -10.659  18.629  0.00  0.00    +0.104 C 
ENDROOT
BRANCH   5   9
ATOM      2  O   UNL     1      -1.459 -10.394  14.063  0.00  0.00    -0.380 OA
ATOM      9  C   UNL     1      -3.796 -11.070  15.600  0.00  0.00    +0.082 C 
ATOM     14  C   UNL     1      -2.529 -10.502  16.241  0.00  0.00    +0.050 C 
ATOM     15  C   UNL     1      -3.872 -10.669  14.127  0.00  0.00    +0.050 C 
ATOM     17  C   UNL     1      -1.303 -10.849  15.406  0.00  0.00    +0.161 C 
ATOM     18  C   UNL     1      -2.570 -11.009  13.411  0.00  0.00    +0.161 C 
ENDBRANCH   5   9
BRANCH   6  16
ATOM     16  C   UNL     1     -10.671  -9.616  17.363  0.00  0.00    +0.119 C 
BRANCH  16  19
ATOM      1 CL   UNL     1     -12.319  -5.002  13.872  0.00  0.00    -0.084 Cl
ATOM     19  C   UNL     1     -11.083  -8.461  16.490  0.00  0.00    -0.033 A 
ATOM     20  C   UNL     1     -11.698  -8.702  15.262  0.00  0.00    +0.006 A 
ATOM     21  C   UNL     1     -10.849  -7.151  16.908  0.00  0.00    +0.006 A 
ATOM     22  C   UNL     1     -12.080  -7.632  14.452  0.00  0.00    +0.020 A 
ATOM     23  C   UNL     1     -11.229  -6.082  16.099  0.00  0.00    +0.020 A 
ATOM     24  C   UNL     1     -11.846  -6.322  14.870  0.00  0.00    +0.041 A 
ENDBRANCH  16  19
ENDBRANCH   6  16
TORSDOF 3
ENDMDL
MODEL 4
REMARK VINA RESULT:      -6.3     28.415     30.336
REMARK  Name = 75368660
REMARK  3 active torsions:
REMARK  status: ('A' for Active; 'I' for Inactive)
REMARK    1  A    between atoms: N_5  and  C_9
REMARK    2  A    between atoms: N_6  and  C_16
REMARK    3  A    between atoms: C_16  and  C_19
REMARK                            x       y       z     vdW  Elec       q    Type
REMARK                         _______ _______ _______ _____ _____    ______ ____
ROOT
ATOM      3  O   UNL     1      -4.834 -10.653  18.327  0.00  0.00    -0.252 OA
ATOM      4  N   UNL     1      -4.407 -11.002  16.044  0.00  0.00    -0.278 N 
ATOM      5  N   UNL     1      -6.439 -10.257  16.645  0.00  0.00    -0.280 N 
ATOM      6  N   UNL     1      -3.031 -10.943  13.591  0.00  0.00    -0.295 NA
ATOM      7  C   UNL     1      -5.168 -10.987  14.812  0.00  0.00    +0.109 C 
ATOM      8  C   UNL     1      -6.460 -10.267  15.192  0.00  0.00    +0.133 C 
ATOM     10  C   UNL     1      -4.364 -10.316  13.699  0.00  0.00    +0.109 C 
ATOM     11  C   UNL     1      -3.034 -11.460  16.023  0.00  0.00    +0.125 C 
ATOM     12  C   UNL     1      -5.183 -10.643  17.154  0.00  0.00    +0.305 C 
ATOM     13  C   UNL     1      -2.283 -10.810  14.858  0.00  0.00    +0.104 C 
ENDROOT
BRANCH   5   9
ATOM      2  O   UNL     1     -10.388  -9.593  17.849  0.00  0.00    -0.380 OA
ATOM      9  C   UNL     1      -7.546  -9.758  17.422  0.00  0.00    +0.082 C 
ATOM     14  C   UNL     1      -8.354 -10.909  18.023  0.00  0.00    +0.050 C 
ATOM     15  C   UNL     1      -8.451  -8.858  16.580  0.00  0.00    +0.050 C 
ATOM     17  C   UNL     1      -9.594 -10.382  18.734  0.00  0.00    +0.161 C 
ATOM     18  C   UNL     1      -9.685  -8.445  17.373  0.00  0.00    +0.161 C 
ENDBRANCH   5   9
BRANCH   6  16
ATOM     16  C   UNL     1      -2.274 -10.350  12.489  0.00  0.00    +0.119 C 
BRANCH  16  19
ATOM      1 CL   UNL     1      -5.268 -10.684   7.281  0.00  0.00    -0.084 Cl
ATOM     19  C   UNL     1      -3.024 -10.434  11.186  0.00  0.00    -0.033 A 
ATOM     20  C   UNL     1      -3.298  -9.273  10.464  0.00  0.00    +0.006 A 
ATOM     21  C   UNL     1      -3.444 -11.673  10.701  0.00  0.00    +0.006 A 
ATOM     22  C   UNL     1      -3.993  -9.350   9.257  0.00  0.00    +0.020 A 
ATOM     23  C   UNL     1      -4.140 -11.750   9.495  0.00  0.00    +0.020 A 
ATOM     24  C   UNL     1      -4.414 -10.589   8.772  0.00  0.00    +0.041 A 
ENDBRANCH  16  19
ENDBRANCH   6  16
TORSDOF 3
ENDMDL
MODEL 5
REMARK VINA RESULT:      -5.8     28.127     32.547
REMARK  Name = 75368660
REMARK  3 active torsions:
REMARK  status: ('A' for Active; 'I' for Inactive)
REMARK    1  A    between atoms: N_5  and  C_9
REMARK    2  A    between atoms: N_6  and  C_16
REMARK    3  A    between atoms: C_16  and  C_19
REMARK                            x       y       z     vdW  Elec       q    Type
REMARK                         _______ _______ _______ _____ _____    ______ ____
ROOT
ATOM      3  O   UNL     1      -5.690 -13.368  16.458  0.00  0.00    -0.252 OA
ATOM      4  N   UNL     1      -6.941 -11.556  17.277  0.00  0.00    -0.278 N 
ATOM      5  N   UNL     1      -4.957 -11.131  16.313  0.00  0.00    -0.280 N 
ATOM      6  N   UNL     1      -9.175  -9.925  17.785  0.00  0.00    -0.295 NA
ATOM      7  C   UNL     1      -6.744 -10.134  17.463  0.00  0.00    +0.109 C 
ATOM      8  C   UNL     1      -5.516  -9.823  16.608  0.00  0.00    +0.133 C 
ATOM     10  C   UNL     1      -8.007  -9.367  17.073  0.00  0.00    +0.109 C 
ATOM     11  C   UNL     1      -8.133 -12.182  17.808  0.00  0.00    +0.125 C 
ATOM     12  C   UNL     1      -5.842 -12.171  16.661  0.00  0.00    +0.305 C 
ATOM     13  C   UNL     1      -9.366 -11.351  17.446  0.00  0.00    +0.104 C 
ENDROOT
BRANCH   5   9
ATOM      2  O   UNL     1      -1.432 -10.083  14.323  0.00  0.00    -0.380 OA
ATOM      9  C   UNL     1      -3.710 -11.287  15.606  0.00  0.00    +0.082 C 
ATOM     14  C   UNL     1      -2.555 -10.669  16.396  0.00  0.00    +0.050 C 
ATOM     15  C   UNL     1      -3.786 -10.672  14.208  0.00  0.00    +0.050 C 
ATOM     17  C   UNL     1      -1.264 -10.721  15.588  0.00  0.00    +0.161 C 
ATOM     18  C   UNL     1      -2.426 -10.724  13.524  0.00  0.00    +0.161 C 
ENDBRANCH   5   9
BRANCH   6  16
ATOM     16  C   UNL     1     -10.381  -9.160  17.466  0.00  0.00    +0.119 C 
BRANCH  16  19
ATOM      1 CL   UNL     1     -14.907 -10.451  21.213  0.00  0.00    -0.084 Cl
ATOM     19  C   UNL     1     -11.514  -9.483  18.403  0.00  0.00    -0.033 A 
ATOM     20  C   UNL     1     -11.261  -9.668  19.763  0.00  0.00    +0.006 A 
ATOM     21  C   UNL     1     -12.814  -9.599  17.913  0.00  0.00    +0.006 A 
ATOM     22  C   UNL     1     -12.311  -9.969  20.632  0.00  0.00    +0.020 A 
ATOM     23  C   UNL     1     -13.863  -9.899  18.781  0.00  0.00    +0.020 A 
ATOM     24  C   UNL     1     -13.612 -10.084  20.141  0.00  0.00    +0.041 A 
ENDBRANCH  16  19
ENDBRANCH   6  16
TORSDOF 3
ENDMDL
MODEL 6
REMARK VINA RESULT:      -5.7     30.025     31.184
REMARK  Name = 75368660
REMARK  3 active torsions:
REMARK  status: ('A' for Active; 'I' for Inactive)
REMARK    1  A    between atoms: N_5  and  C_9
REMARK    2  A    between atoms: N_6  and  C_16
REMARK    3  A    between atoms: C_16  and  C_19
REMARK                            x       y       z     vdW  Elec       q    Type
REMARK                         _______ _______ _______ _____ _____    ______ ____
ROOT
ATOM      3  O   UNL     1      -4.451 -14.648  16.767  0.00  0.00    -0.252 OA
ATOM      4  N   UNL     1      -4.600 -13.358  14.809  0.00  0.00    -0.278 N 
ATOM      5  N   UNL     1      -5.473 -12.523  16.703  0.00  0.00    -0.280 N 
ATOM      6  N   UNL     1      -3.805 -12.137  12.403  0.00  0.00    -0.295 NA
ATOM      7  C   UNL     1      -5.244 -12.127  14.401  0.00  0.00    +0.109 C 
ATOM      8  C   UNL     1      -5.627 -11.463  15.721  0.00  0.00    +0.133 C 
ATOM     10  C   UNL     1      -4.307 -11.305  13.516  0.00  0.00    +0.109 C 
ATOM     11  C   UNL     1      -3.944 -14.180  13.813  0.00  0.00    +0.125 C 
ATOM     12  C   UNL     1      -4.801 -13.640  16.167  0.00  0.00    +0.305 C 
ATOM     13  C   UNL     1      -3.064 -13.308  12.914  0.00  0.00    +0.104 C 
ENDROOT
BRANCH   5   9
ATOM      2  O   UNL     1      -7.374 -10.930  20.069  0.00  0.00    -0.380 OA
ATOM      9  C   UNL     1      -5.841 -12.344  18.085  0.00  0.00    +0.082 C 
ATOM     14  C   UNL     1      -7.339 -12.578  18.285  0.00  0.00    +0.050 C 
ATOM     15  C   UNL     1      -5.449 -10.953  18.586  0.00  0.00    +0.050 C 
ATOM     17  C   UNL     1      -7.746 -12.261  19.719  0.00  0.00    +0.161 C 
ATOM     18  C   UNL     1      -5.962 -10.729  20.003  0.00  0.00    +0.161 C 
ENDBRANCH   5   9
BRANCH   6  16
ATOM     16  C   UNL     1      -2.955 -11.343  11.516  0.00  0.00    +0.119 C 
BRANCH  16  19
ATOM      1 CL   UNL     1      -5.914  -9.547   6.596  0.00  0.00    -0.084 Cl
ATOM     19  C   UNL     1      -3.695 -10.893  10.285  0.00  0.00    -0.033 A 
ATOM     20  C   UNL     1      -4.272 -11.837   9.436  0.00  0.00    +0.006 A 
ATOM     21  C   UNL     1      -3.803  -9.534   9.993  0.00  0.00    +0.006 A 
ATOM     22  C   UNL     1      -4.957 -11.421   8.294  0.00  0.00    +0.020 A 
ATOM     23  C   UNL     1      -4.487  -9.117   8.852  0.00  0.00    +0.020 A 
ATOM     24  C   UNL     1      -5.066 -10.061   8.002  0.00  0.00    +0.041 A 
ENDBRANCH  16  19
ENDBRANCH   6  16
TORSDOF 3
ENDMDL
MODEL 7
REMARK VINA RESULT:      -5.6     17.319     20.832
REMARK  Name = 75368660
REMARK  3 active torsions:
REMARK  status: ('A' for Active; 'I' for Inactive)
REMARK    1  A    between atoms: N_5  and  C_9
REMARK    2  A    between atoms: N_6  and  C_16
REMARK    3  A    between atoms: C_16  and  C_19
REMARK                            x       y       z     vdW  Elec       q    Type
REMARK                         _______ _______ _______ _____ _____    ______ ____
ROOT
ATOM      3  O   UNL     1      11.926   3.534  -1.164  0.00  0.00    -0.252 OA
ATOM      4  N   UNL     1      11.901   4.223   1.082  0.00  0.00    -0.278 N 
ATOM      5  N   UNL     1      13.849   4.302  -0.034  0.00  0.00    -0.280 N 
ATOM      6  N   UNL     1      11.020   5.507   3.424  0.00  0.00    -0.295 NA
ATOM      7  C   UNL     1      12.876   4.609   2.080  0.00  0.00    +0.109 C 
ATOM      8  C   UNL     1      14.140   4.881   1.266  0.00  0.00    +0.133 C 
ATOM     10  C   UNL     1      12.365   5.800   2.890  0.00  0.00    +0.109 C 
ATOM     11  C   UNL     1      10.517   4.052   1.471  0.00  0.00    +0.125 C 
ATOM     12  C   UNL     1      12.487   3.961  -0.164  0.00  0.00    +0.305 C 
ATOM     13  C   UNL     1      10.065   5.238   2.329  0.00  0.00    +0.104 C 
ENDROOT
BRANCH   5   9
ATOM      2  O   UNL     1      17.051   5.468  -2.456  0.00  0.00    -0.380 OA
ATOM      9  C   UNL     1      14.835   4.247  -1.084  0.00  0.00    +0.082 C 
ATOM     14  C   UNL     1      16.250   4.264  -0.505  0.00  0.00    +0.050 C 
ATOM     15  C   UNL     1      14.653   5.398  -2.074  0.00  0.00    +0.050 C 
ATOM     17  C   UNL     1      17.286   4.337  -1.619  0.00  0.00    +0.161 C 
ATOM     18  C   UNL     1      15.779   5.406  -3.101  0.00  0.00    +0.161 C 
ENDBRANCH   5   9
BRANCH   6  16
ATOM     16  C   UNL     1      10.546   6.616   4.251  0.00  0.00    +0.119 C 
BRANCH  16  19
ATOM      1 CL   UNL     1       9.240   4.841   9.849  0.00  0.00    -0.084 Cl
ATOM     19  C   UNL     1      10.219   6.171   5.652  0.00  0.00    -0.033 A 
ATOM     20  C   UNL     1      10.143   7.110   6.681  0.00  0.00    +0.006 A 
ATOM     21  C   UNL     1       9.993   4.822   5.921  0.00  0.00    +0.006 A 
ATOM     22  C   UNL     1       9.841   6.698   7.980  0.00  0.00    +0.020 A 
ATOM     23  C   UNL     1       9.692   4.410   7.219  0.00  0.00    +0.020 A 
ATOM     24  C   UNL     1       9.616   5.348   8.249  0.00  0.00    +0.041 A 
ENDBRANCH  16  19
ENDBRANCH   6  16
TORSDOF 3
ENDMDL
MODEL 8
REMARK VINA RESULT:      -5.6     17.653     21.076
REMARK  Name = 75368660
REMARK  3 active torsions:
REMARK  status: ('A' for Active; 'I' for Inactive)
REMARK    1  A    between atoms: N_5  and  C_9
REMARK    2  A    between atoms: N_6  and  C_16
REMARK    3  A    between atoms: C_16  and  C_19
REMARK                            x       y       z     vdW  Elec       q    Type
REMARK                         _______ _______ _______ _____ _____    ______ ____
ROOT
ATOM      3  O   UNL     1      12.836   7.470   4.643  0.00  0.00    -0.252 OA
ATOM      4  N   UNL     1      11.979   5.993   3.030  0.00  0.00    -0.278 N 
ATOM      5  N   UNL     1      11.077   5.962   5.087  0.00  0.00    -0.280 N 
ATOM      6  N   UNL     1      11.027   5.085   0.544  0.00  0.00    -0.295 NA
ATOM      7  C   UNL     1      11.037   4.893   2.998  0.00  0.00    +0.109 C 
ATOM      8  C   UNL     1      10.273   5.031   4.313  0.00  0.00    +0.133 C 
ATOM     10  C   UNL     1      10.170   4.973   1.741  0.00  0.00    +0.109 C 
ATOM     11  C   UNL     1      12.768   6.285   1.852  0.00  0.00    +0.125 C 
ATOM     12  C   UNL     1      12.065   6.584   4.298  0.00  0.00    +0.305 C 
ATOM     13  C   UNL     1      11.871   6.296   0.611  0.00  0.00    +0.104 C 
ENDROOT
BRANCH   5   9
ATOM      2  O   UNL     1       8.780   6.726   8.496  0.00  0.00    -0.380 OA
ATOM      9  C   UNL     1      10.762   6.290   6.455  0.00  0.00    +0.082 C 
ATOM     14  C   UNL     1      10.016   5.140   7.133  0.00  0.00    +0.050 C 
ATOM     15  C   UNL     1       9.942   7.578   6.540  0.00  0.00    +0.050 C 
ATOM     17  C   UNL     1       9.572   5.540   8.535  0.00  0.00    +0.161 C 
ATOM     18  C   UNL     1       9.503   7.841   7.976  0.00  0.00    +0.161 C 
ENDBRANCH   5   9
BRANCH   6  16
ATOM     16  C   UNL     1      10.210   5.101  -0.669  0.00  0.00    +0.119 C 
BRANCH  16  19
ATOM      1 CL   UNL     1      13.046   2.535  -5.313  0.00  0.00    -0.084 Cl
ATOM     19  C   UNL     1      10.919   4.459  -1.832  0.00  0.00    -0.033 A 
ATOM     20  C   UNL     1      11.657   3.291  -1.639  0.00  0.00    +0.006 A 
ATOM     21  C   UNL     1      10.840   5.033  -3.101  0.00  0.00    +0.006 A 
ATOM     22  C   UNL     1      12.316   2.696  -2.716  0.00  0.00    +0.020 A 
ATOM     23  C   UNL     1      11.499   4.439  -4.177  0.00  0.00    +0.020 A 
ATOM     24  C   UNL     1      12.237   3.270  -3.985  0.00  0.00    +0.041 A 
ENDBRANCH  16  19
ENDBRANCH   6  16
TORSDOF 3
ENDMDL
MODEL 9
REMARK VINA RESULT:      -5.6     30.629     32.867
REMARK  Name = 75368660
REMARK  3 active torsions:
REMARK  status: ('A' for Active; 'I' for Inactive)
REMARK    1  A    between atoms: N_5  and  C_9
REMARK    2  A    between atoms: N_6  and  C_16
REMARK    3  A    between atoms: C_16  and  C_19
REMARK                            x       y       z     vdW  Elec       q    Type
REMARK                         _______ _______ _______ _____ _____    ______ ____
ROOT
ATOM      3  O   UNL     1     -12.178  -8.769  12.492  0.00  0.00    -0.252 OA
ATOM      4  N   UNL     1     -10.790  -8.676  14.385  0.00  0.00    -0.278 N 
ATOM      5  N   UNL     1     -11.972  -6.845  13.841  0.00  0.00    -0.280 N 
ATOM      6  N   UNL     1      -9.568  -9.482  16.786  0.00  0.00    -0.295 NA
ATOM      7  C   UNL     1     -10.345  -7.664  15.320  0.00  0.00    +0.109 C 
ATOM      8  C   UNL     1     -11.314  -6.506  15.091  0.00  0.00    +0.133 C 
ATOM     10  C   UNL     1     -10.338  -8.222  16.743  0.00  0.00    +0.109 C 
ATOM     11  C   UNL     1     -10.204  -9.998  14.439  0.00  0.00    +0.125 C 
ATOM     12  C   UNL     1     -11.703  -8.171  13.448  0.00  0.00    +0.305 C 
ATOM     13  C   UNL     1     -10.162 -10.493  15.887  0.00  0.00    +0.104 C 
ENDROOT
BRANCH   5   9
ATOM      2  O   UNL     1     -14.304  -3.435  13.193  0.00  0.00    -0.380 OA
ATOM      9  C   UNL     1     -12.902  -5.949  13.199  0.00  0.00    +0.082 C 
ATOM     14  C   UNL     1     -12.221  -4.631  12.829  0.00  0.00    +0.050 C 
ATOM     15  C   UNL     1     -14.119  -5.687  14.086  0.00  0.00    +0.050 C 
ATOM     17  C   UNL     1     -13.235  -3.640  12.270  0.00  0.00    +0.161 C 
ATOM     18  C   UNL     1     -15.027  -4.637  13.456  0.00  0.00    +0.161 C 
ENDBRANCH   5   9
BRANCH   6  16
ATOM     16  C   UNL     1      -9.503  -9.994  18.155  0.00  0.00    +0.119 C 
BRANCH  16  19
ATOM      1 CL   UNL     1      -4.037 -12.120  19.493  0.00  0.00    -0.084 Cl
ATOM     19  C   UNL     1      -8.136 -10.527  18.490  0.00  0.00    -0.033 A 
ATOM     20  C   UNL     1      -7.010 -10.005  17.852  0.00  0.00    +0.006 A 
ATOM     21  C   UNL     1      -7.994 -11.541  19.437  0.00  0.00    +0.006 A 
ATOM     22  C   UNL     1      -5.742 -10.499  18.162  0.00  0.00    +0.020 A 
ATOM     23  C   UNL     1      -6.727 -12.035  19.746  0.00  0.00    +0.020 A 
ATOM     24  C   UNL     1      -5.600 -11.513  19.109  0.00  0.00    +0.041 A 
ENDBRANCH  16  19
ENDBRANCH   6  16
TORSDOF 3
ENDMDL
MODEL 10
REMARK VINA RESULT:      -5.5     21.760     26.296
REMARK  Name = 75368660
REMARK  3 active torsions:
REMARK  status: ('A' for Active; 'I' for Inactive)
REMARK    1  A    between atoms: N_5  and  C_9
REMARK    2  A    between atoms: N_6  and  C_16
REMARK    3  A    between atoms: C_16  and  C_19
REMARK                            x       y       z     vdW  Elec       q    Type
REMARK                         _______ _______ _______ _____ _____    ______ ____
ROOT
ATOM      3  O   UNL     1      -0.977  12.963   9.210  0.00  0.00    -0.252 OA
ATOM      4  N   UNL     1      -1.518  11.685   7.316  0.00  0.00    -0.278 N 
ATOM      5  N   UNL     1       0.489  12.692   7.382  0.00  0.00    -0.280 N 
ATOM      6  N   UNL     1      -2.493   9.529   5.794  0.00  0.00    -0.295 NA
ATOM      7  C   UNL     1      -0.937  11.424   6.015  0.00  0.00    +0.109 C 
ATOM      8  C   UNL     1       0.504  11.910   6.158  0.00  0.00    +0.133 C 
ATOM     10  C   UNL     1      -1.082   9.946   5.655  0.00  0.00    +0.109 C 
ATOM     11  C   UNL     1      -2.846  11.189   7.611  0.00  0.00    +0.125 C 
ATOM     12  C   UNL     1      -0.706  12.508   8.107  0.00  0.00    +0.305 C 
ATOM     13  C   UNL     1      -2.965   9.725   7.180  0.00  0.00    +0.104 C 
ENDROOT
BRANCH   5   9
ATOM      2  O   UNL     1       4.505  13.692   7.969  0.00  0.00    -0.380 OA
ATOM      9  C   UNL     1       1.642  13.429   7.833  0.00  0.00    +0.082 C 
ATOM     14  C   UNL     1       2.480  13.910   6.647  0.00  0.00    +0.050 C 
ATOM     15  C   UNL     1       2.499  12.589   8.781  0.00  0.00    +0.050 C 
ATOM     17  C   UNL     1       3.763  14.575   7.129  0.00  0.00    +0.161 C 
ATOM     18  C   UNL     1       3.781  13.329   9.144  0.00  0.00    +0.161 C 
ENDBRANCH   5   9
BRANCH   6  16
ATOM     16  C   UNL     1      -2.654   8.132   5.393  0.00  0.00    +0.119 C 
BRANCH  16  19
ATOM      1 CL   UNL     1      -8.276   6.946   3.609  0.00  0.00    -0.084 Cl
ATOM     19  C   UNL     1      -4.061   7.836   4.947  0.00  0.00    -0.033 A 
ATOM     20  C   UNL     1      -4.595   6.560   5.129  0.00  0.00    +0.006 A 
ATOM     21  C   UNL     1      -4.829   8.836   4.350  0.00  0.00    +0.006 A 
ATOM     22  C   UNL     1      -5.899   6.285   4.714  0.00  0.00    +0.020 A 
ATOM     23  C   UNL     1      -6.131   8.561   3.935  0.00  0.00    +0.020 A 
ATOM     24  C   UNL     1      -6.667   7.285   4.117  0.00  0.00    +0.041 A 
ENDBRANCH  16  19
ENDBRANCH   6  16
TORSDOF 3
ENDMDL
