MODEL 1
REMARK VINA RESULT:      -7.1      0.000      0.000
REMARK  Name = 7144127
REMARK  2 active torsions:
REMARK  status: ('A' for Active; 'I' for Inactive)
REMARK    1  A    between atoms: C_14  and  C_19
REMARK    2  A    between atoms: C_16  and  C_20
REMARK                            x       y       z     vdW  Elec       q    Type
REMARK                         _______ _______ _______ _____ _____    ______ ____
ROOT
ATOM      3  O   UNL     1      10.926   5.783   8.776  0.00  0.00    -0.268 OA
ATOM      4  O   UNL     1      10.784  10.568   7.096  0.00  0.00    -0.270 OA
ATOM      5  N   UNL     1      11.999   9.352   5.511  0.00  0.00    -0.297 N 
ATOM      6  N   UNL     1      11.763   6.430   6.686  0.00  0.00    -0.311 N 
ATOM      7  C   UNL     1      13.812   7.960   6.478  0.00  0.00    +0.027 C 
ATOM      8  C   UNL     1      12.637   7.193   4.457  0.00  0.00    +0.054 C 
ATOM      9  C   UNL     1      14.005   7.274   5.133  0.00  0.00    +0.018 C 
ATOM     10  C   UNL     1      13.237   9.374   6.286  0.00  0.00    +0.113 C 
ATOM     11  C   UNL     1      12.904   7.084   7.343  0.00  0.00    +0.130 C 
ATOM     12  C   UNL     1      12.083   8.618   4.240  0.00  0.00    +0.117 C 
ATOM     13  C   UNL     1      11.648   6.368   5.283  0.00  0.00    +0.034 A 
ATOM     14  C   UNL     1      10.663   5.621   4.718  0.00  0.00    +0.002 A 
ATOM     15  C   UNL     1      10.865   5.773   7.546  0.00  0.00    +0.252 A 
ATOM     16  C   UNL     1      10.851   9.955   6.031  0.00  0.00    +0.247 C 
ATOM     17  C   UNL     1       9.717   4.932   5.573  0.00  0.00    +0.015 A 
ATOM     18  C   UNL     1       9.780   4.999   6.902  0.00  0.00    +0.071 A 
ENDROOT
BRANCH  14  19
ATOM      1 CL   UNL     1      10.082   5.154  -1.220  0.00  0.00    -0.084 Cl
ATOM     19  C   UNL     1      10.520   5.507   3.249  0.00  0.00    -0.016 A 
ATOM     21  C   UNL     1       9.902   6.527   2.533  0.00  0.00    +0.010 A 
ATOM     22  C   UNL     1      11.004   4.378   2.594  0.00  0.00    +0.010 A 
ATOM     25  C   UNL     1       9.766   6.418   1.149  0.00  0.00    +0.020 A 
ATOM     26  C   UNL     1      10.869   4.269   1.210  0.00  0.00    +0.020 A 
ATOM     27  C   UNL     1      10.250   5.289   0.488  0.00  0.00    +0.041 A 
ENDBRANCH  14  19
BRANCH  16  20
ATOM      2  F   UNL     1       6.093   9.534   3.123  0.00  0.00    -0.205 F 
ATOM     20  C   UNL     1       9.602   9.845   5.268  0.00  0.00    +0.037 A 
ATOM     23  C   UNL     1       9.218  10.876   4.413  0.00  0.00    +0.016 A 
ATOM     24  C   UNL     1       8.806   8.709   5.401  0.00  0.00    +0.016 A 
ATOM     28  C   UNL     1       8.031  10.771   3.688  0.00  0.00    +0.039 A 
ATOM     29  C   UNL     1       7.620   8.604   4.675  0.00  0.00    +0.039 A 
ATOM     30  C   UNL     1       7.232   9.635   3.820  0.00  0.00    +0.123 A 
ENDBRANCH  16  20
TORSDOF 2
ENDMDL
MODEL 2
REMARK VINA RESULT:      -6.9      2.743      4.467
REMARK  Name = 7144127
REMARK  2 active torsions:
REMARK  status: ('A' for Active; 'I' for Inactive)
REMARK    1  A    between atoms: C_14  and  C_19
REMARK    2  A    between atoms: C_16  and  C_20
REMARK                            x       y       z     vdW  Elec       q    Type
REMARK                         _______ _______ _______ _____ _____    ______ ____
ROOT
ATOM      3  O   UNL     1       7.241   8.796   4.178  0.00  0.00    -0.268 OA
ATOM      4  O   UNL     1      10.937   9.841   7.494  0.00  0.00    -0.270 OA
ATOM      5  N   UNL     1      11.173   7.583   6.936  0.00  0.00    -0.297 N 
ATOM      6  N   UNL     1       8.915   7.262   4.752  0.00  0.00    -0.311 N 
ATOM      7  C   UNL     1       9.074   6.272   7.114  0.00  0.00    +0.027 C 
ATOM      8  C   UNL     1      10.743   5.668   5.410  0.00  0.00    +0.054 C 
ATOM      9  C   UNL     1       9.746   5.098   6.418  0.00  0.00    +0.018 C 
ATOM     10  C   UNL     1      10.116   7.139   7.841  0.00  0.00    +0.113 C 
ATOM     11  C   UNL     1       8.292   7.072   6.070  0.00  0.00    +0.130 C 
ATOM     12  C   UNL     1      11.803   6.510   6.154  0.00  0.00    +0.117 C 
ATOM     13  C   UNL     1      10.047   6.524   4.350  0.00  0.00    +0.034 A 
ATOM     14  C   UNL     1      10.496   6.617   3.071  0.00  0.00    +0.002 A 
ATOM     15  C   UNL     1       8.239   8.138   3.884  0.00  0.00    +0.252 A 
ATOM     16  C   UNL     1      11.466   8.945   6.837  0.00  0.00    +0.247 C 
ATOM     17  C   UNL     1       9.826   7.512   2.149  0.00  0.00    +0.015 A 
ATOM     18  C   UNL     1       8.775   8.249   2.508  0.00  0.00    +0.071 A 
ENDROOT
BRANCH  14  19
ATOM      1 CL   UNL     1      15.217   3.479   1.157  0.00  0.00    -0.084 Cl
ATOM     19  C   UNL     1      11.664   5.841   2.599  0.00  0.00    -0.016 A 
ATOM     21  C   UNL     1      12.906   6.459   2.489  0.00  0.00    +0.010 A 
ATOM     22  C   UNL     1      11.512   4.499   2.265  0.00  0.00    +0.010 A 
ATOM     25  C   UNL     1      14.006   5.728   2.043  0.00  0.00    +0.020 A 
ATOM     26  C   UNL     1      12.612   3.767   1.820  0.00  0.00    +0.020 A 
ATOM     27  C   UNL     1      13.860   4.381   1.708  0.00  0.00    +0.041 A 
ENDBRANCH  14  19
BRANCH  16  20
ATOM      2  F   UNL     1      15.313  10.563   3.113  0.00  0.00    -0.205 F 
ATOM     20  C   UNL     1      12.476   9.369   5.860  0.00  0.00    +0.037 A 
ATOM     23  C   UNL     1      12.099   9.638   4.546  0.00  0.00    +0.016 A 
ATOM     24  C   UNL     1      13.806   9.503   6.251  0.00  0.00    +0.016 A 
ATOM     28  C   UNL     1      13.059  10.041   3.617  0.00  0.00    +0.039 A 
ATOM     29  C   UNL     1      14.765   9.907   5.322  0.00  0.00    +0.039 A 
ATOM     30  C   UNL     1      14.391  10.175   4.005  0.00  0.00    +0.123 A 
ENDBRANCH  16  20
TORSDOF 2
ENDMDL
MODEL 3
REMARK VINA RESULT:      -6.7     24.981     27.474
REMARK  Name = 7144127
REMARK  2 active torsions:
REMARK  status: ('A' for Active; 'I' for Inactive)
REMARK    1  A    between atoms: C_14  and  C_19
REMARK    2  A    between atoms: C_16  and  C_20
REMARK                            x       y       z     vdW  Elec       q    Type
REMARK                         _______ _______ _______ _____ _____    ______ ____
ROOT
ATOM      3  O   UNL     1      -6.814 -15.053  16.945  0.00  0.00    -0.268 OA
ATOM      4  O   UNL     1      -8.224 -10.665  19.068  0.00  0.00    -0.270 OA
ATOM      5  N   UNL     1      -6.306 -10.202  17.812  0.00  0.00    -0.297 N 
ATOM      6  N   UNL     1      -5.773 -13.009  16.468  0.00  0.00    -0.311 N 
ATOM      7  C   UNL     1      -4.415 -11.750  18.244  0.00  0.00    +0.027 C 
ATOM      8  C   UNL     1      -4.707 -10.783  16.001  0.00  0.00    +0.054 C 
ATOM      9  C   UNL     1      -3.668 -11.172  17.052  0.00  0.00    +0.018 C 
ATOM     10  C   UNL     1      -5.388 -10.711  18.828  0.00  0.00    +0.113 C 
ATOM     11  C   UNL     1      -5.138 -13.021  17.794  0.00  0.00    +0.130 C 
ATOM     12  C   UNL     1      -5.658  -9.716  16.586  0.00  0.00    +0.117 C 
ATOM     13  C   UNL     1      -5.510 -11.995  15.525  0.00  0.00    +0.034 A 
ATOM     14  C   UNL     1      -5.994 -12.105  14.261  0.00  0.00    +0.002 A 
ATOM     15  C   UNL     1      -6.563 -14.133  16.166  0.00  0.00    +0.252 A 
ATOM     16  C   UNL     1      -7.684 -10.258  18.040  0.00  0.00    +0.247 C 
ATOM     17  C   UNL     1      -6.814 -13.248  13.913  0.00  0.00    +0.015 A 
ATOM     18  C   UNL     1      -7.109 -14.206  14.792  0.00  0.00    +0.071 A 
ENDROOT
BRANCH  14  19
ATOM      1 CL   UNL     1      -4.890  -7.952  10.096  0.00  0.00    -0.084 Cl
ATOM     19  C   UNL     1      -5.721 -11.077  13.232  0.00  0.00    -0.016 A 
ATOM     21  C   UNL     1      -6.614 -10.025  13.051  0.00  0.00    +0.010 A 
ATOM     22  C   UNL     1      -4.573 -11.170  12.451  0.00  0.00    +0.010 A 
ATOM     25  C   UNL     1      -6.357  -9.057  12.080  0.00  0.00    +0.020 A 
ATOM     26  C   UNL     1      -4.316 -10.202  11.480  0.00  0.00    +0.020 A 
ATOM     27  C   UNL     1      -5.208  -9.146  11.294  0.00  0.00    +0.041 A 
ENDBRANCH  14  19
BRANCH  16  20
ATOM      2  F   UNL     1     -11.113  -8.573  13.956  0.00  0.00    -0.205 F 
ATOM     20  C   UNL     1      -8.583  -9.816  16.968  0.00  0.00    +0.037 A 
ATOM     23  C   UNL     1      -8.987 -10.717  15.985  0.00  0.00    +0.016 A 
ATOM     24  C   UNL     1      -9.031  -8.497  16.939  0.00  0.00    +0.016 A 
ATOM     28  C   UNL     1      -9.842 -10.296  14.966  0.00  0.00    +0.039 A 
ATOM     29  C   UNL     1      -9.887  -8.077  15.921  0.00  0.00    +0.039 A 
ATOM     30  C   UNL     1     -10.291  -8.976  14.934  0.00  0.00    +0.123 A 
ENDBRANCH  16  20
TORSDOF 2
ENDMDL
MODEL 4
REMARK VINA RESULT:      -6.5     23.655     26.354
REMARK  Name = 7144127
REMARK  2 active torsions:
REMARK  status: ('A' for Active; 'I' for Inactive)
REMARK    1  A    between atoms: C_14  and  C_19
REMARK    2  A    between atoms: C_16  and  C_20
REMARK                            x       y       z     vdW  Elec       q    Type
REMARK                         _______ _______ _______ _____ _____    ______ ____
ROOT
ATOM      3  O   UNL     1      -1.841 -10.673  16.696  0.00  0.00    -0.268 OA
ATOM      4  O   UNL     1      -4.704 -14.810  16.035  0.00  0.00    -0.270 OA
ATOM      5  N   UNL     1      -5.739 -13.095  14.830  0.00  0.00    -0.297 N 
ATOM      6  N   UNL     1      -3.680 -10.738  15.246  0.00  0.00    -0.311 N 
ATOM      7  C   UNL     1      -6.074 -11.006  16.128  0.00  0.00    +0.027 C 
ATOM      8  C   UNL     1      -5.660 -10.879  13.706  0.00  0.00    +0.054 C 
ATOM      9  C   UNL     1      -6.469 -10.275  14.853  0.00  0.00    +0.018 C 
ATOM     10  C   UNL     1      -6.378 -12.510  16.006  0.00  0.00    +0.113 C 
ATOM     11  C   UNL     1      -4.592 -10.742  16.399  0.00  0.00    +0.130 C 
ATOM     12  C   UNL     1      -5.997 -12.380  13.571  0.00  0.00    +0.117 C 
ATOM     13  C   UNL     1      -4.156 -10.698  13.920  0.00  0.00    +0.034 A 
ATOM     14  C   UNL     1      -3.282 -10.538  12.892  0.00  0.00    +0.002 A 
ATOM     15  C   UNL     1      -2.311 -10.656  15.558  0.00  0.00    +0.252 A 
ATOM     16  C   UNL     1      -4.917 -14.214  14.980  0.00  0.00    +0.247 C 
ATOM     17  C   UNL     1      -1.863 -10.453  13.175  0.00  0.00    +0.015 A 
ATOM     18  C   UNL     1      -1.380 -10.522  14.415  0.00  0.00    +0.071 A 
ENDROOT
BRANCH  14  19
ATOM      1 CL   UNL     1      -5.138 -10.248   7.210  0.00  0.00    -0.084 Cl
ATOM     19  C   UNL     1      -3.740 -10.466  11.487  0.00  0.00    -0.016 A 
ATOM     21  C   UNL     1      -4.123  -9.242  10.946  0.00  0.00    +0.010 A 
ATOM     22  C   UNL     1      -3.787 -11.623  10.715  0.00  0.00    +0.010 A 
ATOM     25  C   UNL     1      -4.556  -9.174   9.622  0.00  0.00    +0.020 A 
ATOM     26  C   UNL     1      -4.219 -11.556   9.390  0.00  0.00    +0.020 A 
ATOM     27  C   UNL     1      -4.604 -10.331   8.844  0.00  0.00    +0.041 A 
ENDBRANCH  14  19
BRANCH  16  20
ATOM      2  F   UNL     1      -2.273 -16.181  10.460  0.00  0.00    -0.205 F 
ATOM     20  C   UNL     1      -4.223 -14.730  13.794  0.00  0.00    +0.037 A 
ATOM     23  C   UNL     1      -2.976 -14.218  13.442  0.00  0.00    +0.016 A 
ATOM     24  C   UNL     1      -4.815 -15.730  13.025  0.00  0.00    +0.016 A 
ATOM     28  C   UNL     1      -2.317 -14.709  12.314  0.00  0.00    +0.039 A 
ATOM     29  C   UNL     1      -4.155 -16.221  11.898  0.00  0.00    +0.039 A 
ATOM     30  C   UNL     1      -2.907 -15.709  11.543  0.00  0.00    +0.123 A 
ENDBRANCH  16  20
TORSDOF 2
ENDMDL
MODEL 5
REMARK VINA RESULT:      -6.4      3.568      6.013
REMARK  Name = 7144127
REMARK  2 active torsions:
REMARK  status: ('A' for Active; 'I' for Inactive)
REMARK    1  A    between atoms: C_14  and  C_19
REMARK    2  A    between atoms: C_16  and  C_20
REMARK                            x       y       z     vdW  Elec       q    Type
REMARK                         _______ _______ _______ _____ _____    ______ ____
ROOT
ATOM      3  O   UNL     1      13.712   6.696   6.695  0.00  0.00    -0.268 OA
ATOM      4  O   UNL     1       9.793   6.095   3.528  0.00  0.00    -0.270 OA
ATOM      5  N   UNL     1       8.888   6.786   5.570  0.00  0.00    -0.297 N 
ATOM      6  N   UNL     1      11.511   7.268   7.260  0.00  0.00    -0.311 N 
ATOM      7  C   UNL     1       9.688   5.482   7.525  0.00  0.00    +0.027 C 
ATOM      8  C   UNL     1       9.130   7.863   7.798  0.00  0.00    +0.054 C 
ATOM      9  C   UNL     1       9.043   6.490   8.464  0.00  0.00    +0.018 C 
ATOM     10  C   UNL     1       8.955   5.456   6.172  0.00  0.00    +0.113 C 
ATOM     11  C   UNL     1      11.167   5.843   7.368  0.00  0.00    +0.130 C 
ATOM     12  C   UNL     1       8.364   7.835   6.457  0.00  0.00    +0.117 C 
ATOM     13  C   UNL     1      10.582   8.284   7.562  0.00  0.00    +0.034 A 
ATOM     14  C   UNL     1      10.986   9.580   7.600  0.00  0.00    +0.002 A 
ATOM     15  C   UNL     1      12.856   7.543   6.953  0.00  0.00    +0.252 A 
ATOM     16  C   UNL     1       9.355   6.976   4.268  0.00  0.00    +0.247 C 
ATOM     17  C   UNL     1      12.364   9.903   7.286  0.00  0.00    +0.015 A 
ATOM     18  C   UNL     1      13.258   8.969   6.964  0.00  0.00    +0.071 A 
ENDROOT
BRANCH  14  19
ATOM      1 CL   UNL     1       7.206  14.014   8.965  0.00  0.00    -0.084 Cl
ATOM     19  C   UNL     1      10.050  10.676   7.937  0.00  0.00    -0.016 A 
ATOM     21  C   UNL     1       9.488  11.442   6.921  0.00  0.00    +0.010 A 
ATOM     22  C   UNL     1       9.740  10.934   9.269  0.00  0.00    +0.010 A 
ATOM     25  C   UNL     1       8.607  12.476   7.239  0.00  0.00    +0.020 A 
ATOM     26  C   UNL     1       8.859  11.967   9.588  0.00  0.00    +0.020 A 
ATOM     27  C   UNL     1       8.293  12.739   8.573  0.00  0.00    +0.041 A 
ENDBRANCH  14  19
BRANCH  16  20
ATOM      2  F   UNL     1       9.338  12.164   2.179  0.00  0.00    -0.205 F 
ATOM     20  C   UNL     1       9.351   8.337   3.720  0.00  0.00    +0.037 A 
ATOM     23  C   UNL     1      10.435   9.181   3.949  0.00  0.00    +0.016 A 
ATOM     24  C   UNL     1       8.262   8.780   2.972  0.00  0.00    +0.016 A 
ATOM     28  C   UNL     1      10.431  10.475   3.428  0.00  0.00    +0.039 A 
ATOM     29  C   UNL     1       8.258  10.074   2.451  0.00  0.00    +0.039 A 
ATOM     30  C   UNL     1       9.342  10.921   2.680  0.00  0.00    +0.123 A 
ENDBRANCH  16  20
TORSDOF 2
ENDMDL
MODEL 6
REMARK VINA RESULT:      -6.3      2.643      4.882
REMARK  Name = 7144127
REMARK  2 active torsions:
REMARK  status: ('A' for Active; 'I' for Inactive)
REMARK    1  A    between atoms: C_14  and  C_19
REMARK    2  A    between atoms: C_16  and  C_20
REMARK                            x       y       z     vdW  Elec       q    Type
REMARK                         _______ _______ _______ _____ _____    ______ ____
ROOT
ATOM      3  O   UNL     1       8.415  10.908   4.228  0.00  0.00    -0.268 OA
ATOM      4  O   UNL     1      11.632   9.260   7.789  0.00  0.00    -0.270 OA
ATOM      5  N   UNL     1      10.768   7.352   6.751  0.00  0.00    -0.297 N 
ATOM      6  N   UNL     1       8.985   8.651   4.491  0.00  0.00    -0.311 N 
ATOM      7  C   UNL     1       8.293   7.327   6.578  0.00  0.00    +0.027 C 
ATOM      8  C   UNL     1       9.645   6.249   4.827  0.00  0.00    +0.054 C 
ATOM      9  C   UNL     1       8.367   6.119   5.656  0.00  0.00    +0.018 C 
ATOM     10  C   UNL     1       9.519   7.376   7.506  0.00  0.00    +0.113 C 
ATOM     11  C   UNL     1       8.176   8.587   5.717  0.00  0.00    +0.130 C 
ATOM     12  C   UNL     1      10.870   6.265   5.766  0.00  0.00    +0.117 C 
ATOM     13  C   UNL     1       9.631   7.513   3.965  0.00  0.00    +0.034 A 
ATOM     14  C   UNL     1      10.237   7.581   2.751  0.00  0.00    +0.002 A 
ATOM     15  C   UNL     1       8.972   9.887   3.822  0.00  0.00    +0.252 A 
ATOM     16  C   UNL     1      11.721   8.351   6.964  0.00  0.00    +0.247 C 
ATOM     17  C   UNL     1      10.246   8.840   2.033  0.00  0.00    +0.015 A 
ATOM     18  C   UNL     1       9.675   9.941   2.519  0.00  0.00    +0.071 A 
ENDROOT
BRANCH  14  19
ATOM      1 CL   UNL     1      12.935   2.828   0.312  0.00  0.00    -0.084 Cl
ATOM     19  C   UNL     1      10.904   6.405   2.149  0.00  0.00    -0.016 A 
ATOM     21  C   UNL     1      12.263   6.197   2.363  0.00  0.00    +0.010 A 
ATOM     22  C   UNL     1      10.168   5.516   1.371  0.00  0.00    +0.010 A 
ATOM     25  C   UNL     1      12.892   5.089   1.794  0.00  0.00    +0.020 A 
ATOM     26  C   UNL     1      10.796   4.408   0.803  0.00  0.00    +0.020 A 
ATOM     27  C   UNL     1      12.159   4.195   1.014  0.00  0.00    +0.041 A 
ENDBRANCH  14  19
BRANCH  16  20
ATOM      2  F   UNL     1      16.328   8.339   3.794  0.00  0.00    -0.205 F 
ATOM     20  C   UNL     1      12.930   8.348   6.132  0.00  0.00    +0.037 A 
ATOM     23  C   UNL     1      12.922   8.988   4.895  0.00  0.00    +0.016 A 
ATOM     24  C   UNL     1      14.080   7.706   6.584  0.00  0.00    +0.016 A 
ATOM     28  C   UNL     1      14.071   8.985   4.104  0.00  0.00    +0.039 A 
ATOM     29  C   UNL     1      15.229   7.703   5.794  0.00  0.00    +0.039 A 
ATOM     30  C   UNL     1      15.224   8.342   4.554  0.00  0.00    +0.123 A 
ENDBRANCH  16  20
TORSDOF 2
ENDMDL
MODEL 7
REMARK VINA RESULT:      -6.3     28.135     29.916
REMARK  Name = 7144127
REMARK  2 active torsions:
REMARK  status: ('A' for Active; 'I' for Inactive)
REMARK    1  A    between atoms: C_14  and  C_19
REMARK    2  A    between atoms: C_16  and  C_20
REMARK                            x       y       z     vdW  Elec       q    Type
REMARK                         _______ _______ _______ _____ _____    ______ ____
ROOT
ATOM      3  O   UNL     1      -3.434 -11.489  17.803  0.00  0.00    -0.268 OA
ATOM      4  O   UNL     1      -6.570 -10.554  13.925  0.00  0.00    -0.270 OA
ATOM      5  N   UNL     1      -7.495 -12.351  15.100  0.00  0.00    -0.297 N 
ATOM      6  N   UNL     1      -5.486 -12.585  17.524  0.00  0.00    -0.311 N 
ATOM      7  C   UNL     1      -5.893 -14.189  15.564  0.00  0.00    +0.027 C 
ATOM      8  C   UNL     1      -7.700 -13.717  17.166  0.00  0.00    +0.054 C 
ATOM      9  C   UNL     1      -6.905 -14.838  16.497  0.00  0.00    +0.018 C 
ATOM     10  C   UNL     1      -6.607 -13.342  14.496  0.00  0.00    +0.113 C 
ATOM     11  C   UNL     1      -4.925 -13.354  16.405  0.00  0.00    +0.130 C 
ATOM     12  C   UNL     1      -8.438 -12.893  16.089  0.00  0.00    +0.117 C 
ATOM     13  C   UNL     1      -6.796 -12.803  17.996  0.00  0.00    +0.034 A 
ATOM     14  C   UNL     1      -7.219 -12.183  19.128  0.00  0.00    +0.002 A 
ATOM     15  C   UNL     1      -4.591 -11.707  18.163  0.00  0.00    +0.252 A 
ATOM     16  C   UNL     1      -7.360 -11.005  14.753  0.00  0.00    +0.247 C 
ATOM     17  C   UNL     1      -6.326 -11.269  19.812  0.00  0.00    +0.015 A 
ATOM     18  C   UNL     1      -5.094 -11.016  19.372  0.00  0.00    +0.071 A 
ENDROOT
BRANCH  14  19
ATOM      1 CL   UNL     1     -12.710 -13.071  21.336  0.00  0.00    -0.084 Cl
ATOM     19  C   UNL     1      -8.578 -12.402  19.673  0.00  0.00    -0.016 A 
ATOM     21  C   UNL     1      -9.552 -11.421  19.518  0.00  0.00    +0.010 A 
ATOM     22  C   UNL     1      -8.871 -13.589  20.338  0.00  0.00    +0.010 A 
ATOM     25  C   UNL     1     -10.831 -11.627  20.033  0.00  0.00    +0.020 A 
ATOM     26  C   UNL     1     -10.151 -13.796  20.852  0.00  0.00    +0.020 A 
ATOM     27  C   UNL     1     -11.131 -12.815  20.700  0.00  0.00    +0.041 A 
ENDBRANCH  14  19
BRANCH  16  20
ATOM      2  F   UNL     1     -10.600  -7.262  17.357  0.00  0.00    -0.205 F 
ATOM     20  C   UNL     1      -8.210 -10.023  15.437  0.00  0.00    +0.037 A 
ATOM     23  C   UNL     1      -7.825  -9.515  16.675  0.00  0.00    +0.016 A 
ATOM     24  C   UNL     1      -9.398  -9.602  14.843  0.00  0.00    +0.016 A 
ATOM     28  C   UNL     1      -8.634  -8.581  17.325  0.00  0.00    +0.039 A 
ATOM     29  C   UNL     1     -10.206  -8.669  15.492  0.00  0.00    +0.039 A 
ATOM     30  C   UNL     1      -9.824  -8.159  16.733  0.00  0.00    +0.123 A 
ENDBRANCH  16  20
TORSDOF 2
ENDMDL
MODEL 8
REMARK VINA RESULT:      -6.3     23.263     26.262
REMARK  Name = 7144127
REMARK  2 active torsions:
REMARK  status: ('A' for Active; 'I' for Inactive)
REMARK    1  A    between atoms: C_14  and  C_19
REMARK    2  A    between atoms: C_16  and  C_20
REMARK                            x       y       z     vdW  Elec       q    Type
REMARK                         _______ _______ _______ _____ _____    ______ ____
ROOT
ATOM      3  O   UNL     1      23.369  -4.901  24.806  0.00  0.00    -0.268 OA
ATOM      4  O   UNL     1      19.168  -4.867  21.960  0.00  0.00    -0.270 OA
ATOM      5  N   UNL     1      18.566  -5.821  24.008  0.00  0.00    -0.297 N 
ATOM      6  N   UNL     1      21.266  -5.538  25.620  0.00  0.00    -0.311 N 
ATOM      7  C   UNL     1      20.076  -7.642  24.758  0.00  0.00    +0.027 C 
ATOM      8  C   UNL     1      18.982  -6.203  26.429  0.00  0.00    +0.054 C 
ATOM      9  C   UNL     1      19.402  -7.641  26.122  0.00  0.00    +0.018 C 
ATOM     10  C   UNL     1      19.107  -7.136  23.676  0.00  0.00    +0.113 C 
ATOM     11  C   UNL     1      21.340  -6.783  24.842  0.00  0.00    +0.130 C 
ATOM     12  C   UNL     1      17.985  -5.717  25.354  0.00  0.00    +0.117 C 
ATOM     13  C   UNL     1      20.188  -5.264  26.485  0.00  0.00    +0.034 A 
ATOM     14  C   UNL     1      20.235  -4.179  27.301  0.00  0.00    +0.002 A 
ATOM     15  C   UNL     1      22.395  -4.703  25.533  0.00  0.00    +0.252 A 
ATOM     16  C   UNL     1      18.681  -4.777  23.086  0.00  0.00    +0.247 C 
ATOM     17  C   UNL     1      21.381  -3.293  27.238  0.00  0.00    +0.015 A 
ATOM     18  C   UNL     1      22.400  -3.507  26.406  0.00  0.00    +0.071 A 
ENDROOT
BRANCH  14  19
ATOM      1 CL   UNL     1      15.793  -2.917  31.107  0.00  0.00    -0.084 Cl
ATOM     19  C   UNL     1      19.138  -3.866  28.244  0.00  0.00    -0.016 A 
ATOM     21  C   UNL     1      18.984  -4.622  29.402  0.00  0.00    +0.010 A 
ATOM     22  C   UNL     1      18.264  -2.819  27.963  0.00  0.00    +0.010 A 
ATOM     25  C   UNL     1      17.949  -4.328  30.289  0.00  0.00    +0.020 A 
ATOM     26  C   UNL     1      17.229  -2.525  28.851  0.00  0.00    +0.020 A 
ATOM     27  C   UNL     1      17.071  -3.279  30.013  0.00  0.00    +0.041 A 
ENDBRANCH  14  19
BRANCH  16  20
ATOM      2  F   UNL     1      16.858   0.293  24.587  0.00  0.00    -0.205 F 
ATOM     20  C   UNL     1      18.202  -3.447  23.480  0.00  0.00    +0.037 A 
ATOM     23  C   UNL     1      19.031  -2.602  24.215  0.00  0.00    +0.016 A 
ATOM     24  C   UNL     1      16.922  -3.034  23.116  0.00  0.00    +0.016 A 
ATOM     28  C   UNL     1      18.576  -1.337  24.590  0.00  0.00    +0.039 A 
ATOM     29  C   UNL     1      16.468  -1.770  23.490  0.00  0.00    +0.039 A 
ATOM     30  C   UNL     1      17.295  -0.922  24.228  0.00  0.00    +0.123 A 
ENDBRANCH  16  20
TORSDOF 2
ENDMDL
MODEL 9
REMARK VINA RESULT:      -6.2      3.303      5.827
REMARK  Name = 7144127
REMARK  2 active torsions:
REMARK  status: ('A' for Active; 'I' for Inactive)
REMARK    1  A    between atoms: C_14  and  C_19
REMARK    2  A    between atoms: C_16  and  C_20
REMARK                            x       y       z     vdW  Elec       q    Type
REMARK                         _______ _______ _______ _____ _____    ______ ____
ROOT
ATOM      3  O   UNL     1      13.806   6.591   7.065  0.00  0.00    -0.268 OA
ATOM      4  O   UNL     1      10.135   5.381   3.777  0.00  0.00    -0.270 OA
ATOM      5  N   UNL     1       9.086   6.465   5.564  0.00  0.00    -0.297 N 
ATOM      6  N   UNL     1      11.579   7.267   7.329  0.00  0.00    -0.311 N 
ATOM      7  C   UNL     1       9.709   5.573   7.794  0.00  0.00    +0.027 C 
ATOM      8  C   UNL     1       9.173   7.962   7.546  0.00  0.00    +0.054 C 
ATOM      9  C   UNL     1       9.010   6.748   8.461  0.00  0.00    +0.018 C 
ATOM     10  C   UNL     1       9.083   5.281   6.419  0.00  0.00    +0.113 C 
ATOM     11  C   UNL     1      11.202   5.893   7.688  0.00  0.00    +0.130 C 
ATOM     12  C   UNL     1       8.514   7.670   6.181  0.00  0.00    +0.117 C 
ATOM     13  C   UNL     1      10.647   8.325   7.348  0.00  0.00    +0.034 A 
ATOM     14  C   UNL     1      11.069   9.602   7.162  0.00  0.00    +0.002 A 
ATOM     15  C   UNL     1      12.948   7.474   7.082  0.00  0.00    +0.252 A 
ATOM     16  C   UNL     1       9.657   6.392   4.291  0.00  0.00    +0.247 C 
ATOM     17  C   UNL     1      12.473   9.854   6.902  0.00  0.00    +0.015 A 
ATOM     18  C   UNL     1      13.372   8.872   6.843  0.00  0.00    +0.071 A 
ENDROOT
BRANCH  14  19
ATOM      1 CL   UNL     1       7.266  14.221   7.314  0.00  0.00    -0.084 Cl
ATOM     19  C   UNL     1      10.130  10.745   7.200  0.00  0.00    -0.016 A 
ATOM     21  C   UNL     1       9.813  11.340   8.417  0.00  0.00    +0.010 A 
ATOM     22  C   UNL     1       9.567  11.216   6.017  0.00  0.00    +0.010 A 
ATOM     25  C   UNL     1       8.927  12.416   8.453  0.00  0.00    +0.020 A 
ATOM     26  C   UNL     1       8.681  12.293   6.052  0.00  0.00    +0.020 A 
ATOM     27  C   UNL     1       8.360  12.893   7.270  0.00  0.00    +0.041 A 
ENDBRANCH  14  19
BRANCH  16  20
ATOM      2  F   UNL     1       9.895  11.064   1.226  0.00  0.00    -0.205 F 
ATOM     20  C   UNL     1       9.720   7.618   3.486  0.00  0.00    +0.037 A 
ATOM     23  C   UNL     1       8.681   7.926   2.610  0.00  0.00    +0.016 A 
ATOM     24  C   UNL     1      10.817   8.468   3.603  0.00  0.00    +0.016 A 
ATOM     28  C   UNL     1       8.741   9.092   1.846  0.00  0.00    +0.039 A 
ATOM     29  C   UNL     1      10.876   9.634   2.839  0.00  0.00    +0.039 A 
ATOM     30  C   UNL     1       9.838   9.945   1.960  0.00  0.00    +0.123 A 
ENDBRANCH  16  20
TORSDOF 2
ENDMDL
MODEL 10
REMARK VINA RESULT:      -6.2     22.994     25.970
REMARK  Name = 7144127
REMARK  2 active torsions:
REMARK  status: ('A' for Active; 'I' for Inactive)
REMARK    1  A    between atoms: C_14  and  C_19
REMARK    2  A    between atoms: C_16  and  C_20
REMARK                            x       y       z     vdW  Elec       q    Type
REMARK                         _______ _______ _______ _____ _____    ______ ____
ROOT
ATOM      3  O   UNL     1      19.977  -5.089  21.763  0.00  0.00    -0.268 OA
ATOM      4  O   UNL     1      20.537  -1.009  24.727  0.00  0.00    -0.270 OA
ATOM      5  N   UNL     1      18.326  -1.719  24.997  0.00  0.00    -0.297 N 
ATOM      6  N   UNL     1      18.313  -4.336  23.230  0.00  0.00    -0.311 N 
ATOM      7  C   UNL     1      17.116  -2.096  22.864  0.00  0.00    +0.027 C 
ATOM      8  C   UNL     1      16.575  -3.475  24.829  0.00  0.00    +0.054 C 
ATOM      9  C   UNL     1      15.972  -2.749  23.625  0.00  0.00    +0.018 C 
ATOM     10  C   UNL     1      17.861  -1.093  23.762  0.00  0.00    +0.113 C 
ATOM     11  C   UNL     1      18.043  -3.196  22.342  0.00  0.00    +0.130 C 
ATOM     12  C   UNL     1      17.293  -2.456  25.739  0.00  0.00    +0.117 C 
ATOM     13  C   UNL     1      17.554  -4.568  24.395  0.00  0.00    +0.034 A 
ATOM     14  C   UNL     1      17.734  -5.715  25.101  0.00  0.00    +0.002 A 
ATOM     15  C   UNL     1      19.294  -5.236  22.778  0.00  0.00    +0.252 A 
ATOM     16  C   UNL     1      19.675  -1.626  25.350  0.00  0.00    +0.247 C 
ATOM     17  C   UNL     1      18.739  -6.665  24.667  0.00  0.00    +0.015 A 
ATOM     18  C   UNL     1      19.495  -6.457  23.590  0.00  0.00    +0.071 A 
ENDROOT
BRANCH  14  19
ATOM      1 CL   UNL     1      14.530  -6.921  30.010  0.00  0.00    -0.084 Cl
ATOM     19  C   UNL     1      16.941  -6.012  26.315  0.00  0.00    -0.016 A 
ATOM     21  C   UNL     1      17.353  -5.516  27.549  0.00  0.00    +0.010 A 
ATOM     22  C   UNL     1      15.790  -6.788  26.216  0.00  0.00    +0.010 A 
ATOM     25  C   UNL     1      16.606  -5.797  28.693  0.00  0.00    +0.020 A 
ATOM     26  C   UNL     1      15.043  -7.068  27.360  0.00  0.00    +0.020 A 
ATOM     27  C   UNL     1      15.451  -6.574  28.599  0.00  0.00    +0.041 A 
ENDBRANCH  14  19
BRANCH  16  20
ATOM      2  F   UNL     1      21.401  -4.323  29.935  0.00  0.00    -0.205 F 
ATOM     20  C   UNL     1      20.128  -2.334  26.553  0.00  0.00    +0.037 A 
ATOM     23  C   UNL     1      20.155  -1.672  27.778  0.00  0.00    +0.016 A 
ATOM     24  C   UNL     1      20.528  -3.665  26.465  0.00  0.00    +0.016 A 
ATOM     28  C   UNL     1      20.586  -2.345  28.922  0.00  0.00    +0.039 A 
ATOM     29  C   UNL     1      20.958  -4.338  27.608  0.00  0.00    +0.039 A 
ATOM     30  C   UNL     1      20.988  -3.677  28.837  0.00  0.00    +0.123 A 
ENDBRANCH  16  20
TORSDOF 2
ENDMDL
