REMARK  Name = 26742072
REMARK  7 active torsions:
REMARK  status: ('A' for Active; 'I' for Inactive)
REMARK    1  A    between atoms: O_1  and  C_9
REMARK    2  A    between atoms: O_4  and  C_25
REMARK    3  A    between atoms: O_4  and  C_29
REMARK    4  A    between atoms: N_6  and  C_8
REMARK    5  A    between atoms: N_7  and  C_17
REMARK    6  A    between atoms: C_15  and  C_16
REMARK    7  A    between atoms: C_17  and  C_18
REMARK                            x       y       z     vdW  Elec       q    Type
REMARK                         _______ _______ _______ _____ _____    ______ ____
ROOT
ATOM      2  O   UNL     1      -0.892   0.046   1.827  0.00  0.00    -0.253 OA
ATOM      5  N   UNL     1      -2.351   1.704   1.112  0.00  0.00    -0.284 N 
ATOM      7  N   UNL     1      -3.082  -0.521   1.423  0.00  0.00    -0.295 N 
ATOM      8  C   UNL     1      -0.553   2.736  -0.299  0.00  0.00    +0.119 C 
ATOM      9  C   UNL     1      -1.402   2.466  -1.556  0.00  0.00    +0.136 C 
ATOM     10  C   UNL     1      -2.815   3.061  -1.548  0.00  0.00    +0.035 C 
ATOM     11  C   UNL     1      -1.288   2.706   1.048  0.00  0.00    +0.134 C 
ATOM     12  C   UNL     1      -3.838   2.185  -0.820  0.00  0.00    +0.022 C 
ATOM     13  C   UNL     1      -3.677   2.170   0.694  0.00  0.00    +0.109 C 
ATOM     14  C   UNL     1      -2.029   0.385   1.483  0.00  0.00    +0.303 C 
ATOM     32  H   UNL     1      -3.974  -0.257   1.026  0.00  0.00    +0.151 HD
ENDROOT
BRANCH   8   6
ATOM      3  O   UNL     1       2.107   3.278   0.637  0.00  0.00    -0.270 OA
ATOM      6  N   UNL     1       0.564   1.809  -0.277  0.00  0.00    -0.305 N 
ATOM     15  C   UNL     1       1.812   2.170   0.197  0.00  0.00    +0.244 C 
ATOM     30  H   UNL     1       0.395   0.876  -0.636  0.00  0.00    +0.149 HD
BRANCH  15  16
ATOM     16  C   UNL     1       2.856   1.116   0.128  0.00  0.00    +0.037 A 
ATOM     19  C   UNL     1       4.201   1.471   0.025  0.00  0.00    +0.016 A 
ATOM     20  C   UNL     1       2.492  -0.230   0.163  0.00  0.00    +0.016 A 
ATOM     21  C   UNL     1       5.181   0.481  -0.042  0.00  0.00    +0.046 A 
ATOM     22  C   UNL     1       3.472  -1.220   0.096  0.00  0.00    +0.046 A 
ATOM     25  C   UNL     1       4.816  -0.865  -0.007  0.00  0.00    +0.120 A 
BRANCH  25   4
ATOM      4  O   UNL     1       5.773  -1.831  -0.072  0.00  0.00    -0.495 OA
ATOM     29  C   UNL     1       5.329  -3.187  -0.031  0.00  0.00    +0.277 C 
ENDBRANCH  25   4
ENDBRANCH  15  16
ENDBRANCH   8   6
BRANCH   9   1
ATOM      1  O   UNL     1      -0.688   3.032  -2.664  0.00  0.00    -0.390 OA
ATOM     31  H   UNL     1      -1.155   2.776  -3.477  0.00  0.00    +0.210 HD
ENDBRANCH   9   1
BRANCH   7  17
ATOM     17  C   UNL     1      -2.916  -1.917   1.760  0.00  0.00    +0.141 C 
BRANCH  17  18
ATOM     18  C   UNL     1      -2.534  -2.742   0.564  0.00  0.00    -0.030 A 
ATOM     23  C   UNL     1      -3.525  -3.321  -0.230  0.00  0.00    +0.005 A 
ATOM     24  C   UNL     1      -1.189  -2.929   0.248  0.00  0.00    +0.005 A 
ATOM     26  C   UNL     1      -3.169  -4.087  -1.340  0.00  0.00    +0.000 A 
ATOM     27  C   UNL     1      -0.834  -3.694  -0.863  0.00  0.00    +0.000 A 
ATOM     28  C   UNL     1      -1.824  -4.273  -1.657  0.00  0.00    +0.000 A 
ENDBRANCH  17  18
ENDBRANCH   7  17
TORSDOF 6
