MODEL 1
REMARK VINA RESULT:      -7.8      0.000      0.000
REMARK  Name = 11867521
REMARK  8 active torsions:
REMARK  status: ('A' for Active; 'I' for Inactive)
REMARK    1  A    between atoms: N_7  and  C_16
REMARK    2  A    between atoms: N_8  and  C_17
REMARK    3  A    between atoms: N_12  and  C_25
REMARK    4  A    between atoms: N_13  and  C_28
REMARK    5  A    between atoms: N_13  and  C_34
REMARK    6  A    between atoms: N_13  and  C_35
REMARK    7  A    between atoms: C_20  and  C_22
REMARK    8  A    between atoms: C_31  and  C_36
REMARK                            x       y       z     vdW  Elec       q    Type
REMARK                         _______ _______ _______ _____ _____    ______ ____
ROOT
ATOM      4  O   UNL     1      14.125   7.117  21.388  0.00  0.00    -0.370 OA
ATOM      5  O   UNL     1      16.111   9.327  20.356  0.00  0.00    -0.370 OA
ATOM     14  C   UNL     1      15.253   8.372  19.705  0.00  0.00    +0.176 C 
ATOM     15  C   UNL     1      15.280   7.104  20.535  0.00  0.00    +0.171 C 
ATOM     16  C   UNL     1      13.813   8.845  19.770  0.00  0.00    +0.168 C 
ATOM     17  C   UNL     1      16.542   7.224  21.360  0.00  0.00    +0.131 C 
ATOM     18  C   UNL     1      13.323   8.268  21.094  0.00  0.00    +0.190 C 
ATOM     19  C   UNL     1      16.675   8.726  21.531  0.00  0.00    +0.185 C 
ENDROOT
BRANCH  17   8
ATOM      6  O   UNL     1      19.198   6.908  22.388  0.00  0.00    -0.252 OA
ATOM      8  N   UNL     1      17.678   6.677  20.660  0.00  0.00    -0.292 N 
ATOM     12  N   UNL     1      19.847   5.994  20.325  0.00  0.00    -0.269 N 
ATOM     21  C   UNL     1      18.949   6.556  21.238  0.00  0.00    +0.304 C 
ATOM     37  H   UNL     1      17.536   6.301  19.727  0.00  0.00    +0.151 HD
ATOM     38  H   UNL     1      19.476   5.760  19.407  0.00  0.00    +0.156 HD
BRANCH  12  25
ATOM     25  C   UNL     1      21.217   5.709  20.520  0.00  0.00    +0.035 A 
ATOM     29  C   UNL     1      21.603   4.419  20.846  0.00  0.00    +0.035 A 
ATOM     30  C   UNL     1      22.148   6.725  20.381  0.00  0.00    +0.023 A 
ATOM     31  C   UNL     1      22.956   4.138  21.039  0.00  0.00    +0.057 A 
ATOM     32  C   UNL     1      23.501   6.445  20.573  0.00  0.00    +0.002 A 
ATOM     33  C   UNL     1      23.905   5.151  20.902  0.00  0.00    +0.012 A 
BRANCH  31  36
ATOM      1  F   UNL     1      22.976   2.351  22.629  0.00  0.00    -0.166 F 
ATOM      2  F   UNL     1      24.744   2.590  21.395  0.00  0.00    -0.166 F 
ATOM      3  F   UNL     1      22.908   1.818  20.522  0.00  0.00    -0.166 F 
ATOM     36  C   UNL     1      23.388   2.755  21.390  0.00  0.00    +0.417 C 
ENDBRANCH  31  36
ENDBRANCH  12  25
ENDBRANCH  17   8
BRANCH  16   7
ATOM      7  N   UNL     1      13.036   8.445  18.595  0.00  0.00    -0.217 N 
ATOM      9  N   UNL     1      12.213   7.393  18.651  0.00  0.00    -0.043 NA
ATOM     10  N   UNL     1      12.166   8.311  16.620  0.00  0.00    -0.108 NA
ATOM     11  N   UNL     1      11.681   7.314  17.437  0.00  0.00    -0.023 NA
ATOM     20  C   UNL     1      13.005   8.999  17.360  0.00  0.00    +0.182 A 
BRANCH  20  22
ATOM     22  C   UNL     1      13.773  10.149  16.956  0.00  0.00    +0.021 A 
ATOM     23  C   UNL     1      13.710  11.329  17.699  0.00  0.00    +0.013 A 
ATOM     24  C   UNL     1      14.583  10.084  15.821  0.00  0.00    +0.013 A 
ATOM     26  C   UNL     1      14.454  12.442  17.307  0.00  0.00    +0.024 A 
ATOM     27  C   UNL     1      15.328  11.197  15.430  0.00  0.00    +0.024 A 
ATOM     28  C   UNL     1      15.263  12.376  16.173  0.00  0.00    +0.029 A 
BRANCH  28  13
ATOM     13  N   UNL     1      16.016  13.501  15.778  0.00  0.00    -0.336 N 
ATOM     34  C   UNL     1      16.371  13.695  14.387  0.00  0.00    +0.129 C 
ATOM     35  C   UNL     1      16.434  14.485  16.757  0.00  0.00    +0.129 C 
ENDBRANCH  28  13
ENDBRANCH  20  22
ENDBRANCH  16   7
TORSDOF 6
ENDMDL
MODEL 2
REMARK VINA RESULT:      -7.7      1.579      2.270
REMARK  Name = 11867521
REMARK  8 active torsions:
REMARK  status: ('A' for Active; 'I' for Inactive)
REMARK    1  A    between atoms: N_7  and  C_16
REMARK    2  A    between atoms: N_8  and  C_17
REMARK    3  A    between atoms: N_12  and  C_25
REMARK    4  A    between atoms: N_13  and  C_28
REMARK    5  A    between atoms: N_13  and  C_34
REMARK    6  A    between atoms: N_13  and  C_35
REMARK    7  A    between atoms: C_20  and  C_22
REMARK    8  A    between atoms: C_31  and  C_36
REMARK                            x       y       z     vdW  Elec       q    Type
REMARK                         _______ _______ _______ _____ _____    ______ ____
ROOT
ATOM      4  O   UNL     1      15.226   7.580  22.213  0.00  0.00    -0.370 OA
ATOM      5  O   UNL     1      16.793   9.348  20.137  0.00  0.00    -0.370 OA
ATOM     14  C   UNL     1      15.866   8.253  20.018  0.00  0.00    +0.176 C 
ATOM     15  C   UNL     1      16.155   7.294  21.156  0.00  0.00    +0.171 C 
ATOM     16  C   UNL     1      14.454   8.743  20.276  0.00  0.00    +0.168 C 
ATOM     17  C   UNL     1      17.563   7.641  21.588  0.00  0.00    +0.131 C 
ATOM     18  C   UNL     1      14.313   8.600  21.788  0.00  0.00    +0.190 C 
ATOM     19  C   UNL     1      17.643   9.122  21.271  0.00  0.00    +0.185 C 
ENDROOT
BRANCH  17   8
ATOM      6  O   UNL     1      19.850   6.272  22.637  0.00  0.00    -0.252 OA
ATOM      8  N   UNL     1      18.539   6.892  20.836  0.00  0.00    -0.292 N 
ATOM     12  N   UNL     1      20.405   5.606  20.456  0.00  0.00    -0.269 N 
ATOM     21  C   UNL     1      19.634   6.248  21.428  0.00  0.00    +0.304 C 
ATOM     37  H   UNL     1      18.391   6.770  19.838  0.00  0.00    +0.151 HD
ATOM     38  H   UNL     1      20.085   5.688  19.494  0.00  0.00    +0.156 HD
BRANCH  12  25
ATOM     25  C   UNL     1      21.585   4.851  20.643  0.00  0.00    +0.035 A 
ATOM     29  C   UNL     1      22.807   5.402  20.295  0.00  0.00    +0.035 A 
ATOM     30  C   UNL     1      21.495   3.574  21.173  0.00  0.00    +0.023 A 
ATOM     31  C   UNL     1      23.971   4.655  20.480  0.00  0.00    +0.057 A 
ATOM     32  C   UNL     1      22.659   2.828  21.359  0.00  0.00    +0.002 A 
ATOM     33  C   UNL     1      23.897   3.369  21.012  0.00  0.00    +0.012 A 
BRANCH  31  36
ATOM      1  F   UNL     1      25.262   6.584  19.902  0.00  0.00    -0.166 F 
ATOM      2  F   UNL     1      25.821   4.710  18.963  0.00  0.00    -0.166 F 
ATOM      3  F   UNL     1      26.243   5.035  21.071  0.00  0.00    -0.166 F 
ATOM     36  C   UNL     1      25.295   5.234  20.110  0.00  0.00    +0.417 C 
ENDBRANCH  31  36
ENDBRANCH  12  25
ENDBRANCH  17   8
BRANCH  16   7
ATOM      7  N   UNL     1      13.454   8.018  19.488  0.00  0.00    -0.217 N 
ATOM      9  N   UNL     1      12.778   6.997  20.025  0.00  0.00    -0.043 NA
ATOM     10  N   UNL     1      12.142   7.330  17.914  0.00  0.00    -0.108 NA
ATOM     11  N   UNL     1      11.974   6.578  19.055  0.00  0.00    -0.023 NA
ATOM     20  C   UNL     1      13.066   8.216  18.207  0.00  0.00    +0.182 A 
BRANCH  20  22
ATOM     22  C   UNL     1      13.594   9.236  17.337  0.00  0.00    +0.021 A 
ATOM     23  C   UNL     1      14.157   8.885  16.109  0.00  0.00    +0.013 A 
ATOM     24  C   UNL     1      13.541  10.577  17.720  0.00  0.00    +0.013 A 
ATOM     26  C   UNL     1      14.667   9.873  15.267  0.00  0.00    +0.024 A 
ATOM     27  C   UNL     1      14.051  11.565  16.877  0.00  0.00    +0.024 A 
ATOM     28  C   UNL     1      14.615  11.212  15.651  0.00  0.00    +0.029 A 
BRANCH  28  13
ATOM     13  N   UNL     1      15.130  12.211  14.798  0.00  0.00    -0.336 N 
ATOM     34  C   UNL     1      14.756  13.598  14.983  0.00  0.00    +0.129 C 
ATOM     35  C   UNL     1      16.053  11.864  13.735  0.00  0.00    +0.129 C 
ENDBRANCH  28  13
ENDBRANCH  20  22
ENDBRANCH  16   7
TORSDOF 6
ENDMDL
MODEL 3
REMARK VINA RESULT:      -7.6      5.021     11.746
REMARK  Name = 11867521
REMARK  8 active torsions:
REMARK  status: ('A' for Active; 'I' for Inactive)
REMARK    1  A    between atoms: N_7  and  C_16
REMARK    2  A    between atoms: N_8  and  C_17
REMARK    3  A    between atoms: N_12  and  C_25
REMARK    4  A    between atoms: N_13  and  C_28
REMARK    5  A    between atoms: N_13  and  C_34
REMARK    6  A    between atoms: N_13  and  C_35
REMARK    7  A    between atoms: C_20  and  C_22
REMARK    8  A    between atoms: C_31  and  C_36
REMARK                            x       y       z     vdW  Elec       q    Type
REMARK                         _______ _______ _______ _____ _____    ______ ____
ROOT
ATOM      4  O   UNL     1      22.416   7.133  20.905  0.00  0.00    -0.370 OA
ATOM      5  O   UNL     1      20.723   5.371  22.886  0.00  0.00    -0.370 OA
ATOM     14  C   UNL     1      21.456   5.093  21.679  0.00  0.00    +0.176 C 
ATOM     15  C   UNL     1      21.270   6.281  20.756  0.00  0.00    +0.171 C 
ATOM     16  C   UNL     1      22.944   5.064  21.974  0.00  0.00    +0.168 C 
ATOM     17  C   UNL     1      20.031   6.972  21.282  0.00  0.00    +0.131 C 
ATOM     18  C   UNL     1      23.356   6.522  21.799  0.00  0.00    +0.190 C 
ATOM     19  C   UNL     1      20.087   6.652  22.764  0.00  0.00    +0.185 C 
ENDROOT
BRANCH  17   8
ATOM      6  O   UNL     1      17.553   8.349  20.871  0.00  0.00    -0.252 OA
ATOM      8  N   UNL     1      18.837   6.435  20.677  0.00  0.00    -0.292 N 
ATOM     12  N   UNL     1      16.675   6.400  19.900  0.00  0.00    -0.269 N 
ATOM     21  C   UNL     1      17.661   7.179  20.512  0.00  0.00    +0.304 C 
ATOM     37  H   UNL     1      18.870   5.495  20.293  0.00  0.00    +0.151 HD
ATOM     38  H   UNL     1      16.930   5.443  19.667  0.00  0.00    +0.156 HD
BRANCH  12  25
ATOM     25  C   UNL     1      15.356   6.780  19.561  0.00  0.00    +0.035 A 
ATOM     29  C   UNL     1      14.362   6.714  20.523  0.00  0.00    +0.035 A 
ATOM     30  C   UNL     1      15.084   7.210  18.272  0.00  0.00    +0.023 A 
ATOM     31  C   UNL     1      13.060   7.089  20.187  0.00  0.00    +0.057 A 
ATOM     32  C   UNL     1      13.784   7.584  17.937  0.00  0.00    +0.002 A 
ATOM     33  C   UNL     1      12.771   7.524  18.895  0.00  0.00    +0.012 A 
BRANCH  31  36
ATOM      1  F   UNL     1      12.222   7.797  22.312  0.00  0.00    -0.166 F 
ATOM      2  F   UNL     1      11.760   5.768  21.700  0.00  0.00    -0.166 F 
ATOM      3  F   UNL     1      10.772   7.445  20.730  0.00  0.00    -0.166 F 
ATOM     36  C   UNL     1      11.978   7.025  21.212  0.00  0.00    +0.417 C 
ENDBRANCH  31  36
ENDBRANCH  12  25
ENDBRANCH  17   8
BRANCH  16   7
ATOM      7  N   UNL     1      23.667   4.110  21.131  0.00  0.00    -0.217 N 
ATOM      9  N   UNL     1      24.057   4.453  19.899  0.00  0.00    -0.043 NA
ATOM     10  N   UNL     1      24.665   2.356  20.353  0.00  0.00    -0.108 NA
ATOM     11  N   UNL     1      24.669   3.374  19.425  0.00  0.00    -0.023 NA
ATOM     20  C   UNL     1      24.037   2.837  21.402  0.00  0.00    +0.182 A 
BRANCH  20  22
ATOM     22  C   UNL     1      23.774   2.151  22.642  0.00  0.00    +0.021 A 
ATOM     23  C   UNL     1      24.583   1.084  23.037  0.00  0.00    +0.013 A 
ATOM     24  C   UNL     1      22.711   2.555  23.451  0.00  0.00    +0.013 A 
ATOM     26  C   UNL     1      24.328   0.421  24.237  0.00  0.00    +0.024 A 
ATOM     27  C   UNL     1      22.456   1.892  24.652  0.00  0.00    +0.024 A 
ATOM     28  C   UNL     1      23.265   0.825  25.044  0.00  0.00    +0.029 A 
BRANCH  28  13
ATOM     13  N   UNL     1      23.008   0.155  26.259  0.00  0.00    -0.336 N 
ATOM     34  C   UNL     1      22.879  -1.287  26.289  0.00  0.00    +0.129 C 
ATOM     35  C   UNL     1      22.883   0.901  27.496  0.00  0.00    +0.129 C 
ENDBRANCH  28  13
ENDBRANCH  20  22
ENDBRANCH  16   7
TORSDOF 6
ENDMDL
MODEL 4
REMARK VINA RESULT:      -7.5     29.541     33.317
REMARK  Name = 11867521
REMARK  8 active torsions:
REMARK  status: ('A' for Active; 'I' for Inactive)
REMARK    1  A    between atoms: N_7  and  C_16
REMARK    2  A    between atoms: N_8  and  C_17
REMARK    3  A    between atoms: N_12  and  C_25
REMARK    4  A    between atoms: N_13  and  C_28
REMARK    5  A    between atoms: N_13  and  C_34
REMARK    6  A    between atoms: N_13  and  C_35
REMARK    7  A    between atoms: C_20  and  C_22
REMARK    8  A    between atoms: C_31  and  C_36
REMARK                            x       y       z     vdW  Elec       q    Type
REMARK                         _______ _______ _______ _____ _____    ______ ____
ROOT
ATOM      4  O   UNL     1     -11.562 -11.406  16.311  0.00  0.00    -0.370 OA
ATOM      5  O   UNL     1      -9.256 -10.195  14.548  0.00  0.00    -0.370 OA
ATOM     14  C   UNL     1      -9.600 -10.104  15.943  0.00  0.00    +0.176 C 
ATOM     15  C   UNL     1     -11.113 -10.071  16.031  0.00  0.00    +0.171 C 
ATOM     16  C   UNL     1      -9.200 -11.381  16.657  0.00  0.00    +0.168 C 
ATOM     17  C   UNL     1     -11.559  -9.647  14.649  0.00  0.00    +0.131 C 
ATOM     18  C   UNL     1     -10.430 -12.267  16.489  0.00  0.00    +0.190 C 
ATOM     19  C   UNL     1     -10.461 -10.212  13.768  0.00  0.00    +0.185 C 
ENDROOT
BRANCH  17   8
ATOM      6  O   UNL     1     -12.928  -8.149  12.628  0.00  0.00    -0.252 OA
ATOM      8  N   UNL     1     -11.629  -8.211  14.541  0.00  0.00    -0.292 N 
ATOM     12  N   UNL     1     -12.217  -6.168  13.668  0.00  0.00    -0.269 N 
ATOM     21  C   UNL     1     -12.324  -7.553  13.517  0.00  0.00    +0.304 C 
ATOM     37  H   UNL     1     -11.212  -7.649  15.277  0.00  0.00    +0.151 HD
ATOM     38  H   UNL     1     -11.675  -5.838  14.463  0.00  0.00    +0.156 HD
BRANCH  12  25
ATOM     25  C   UNL     1     -12.772  -5.160  12.848  0.00  0.00    +0.035 A 
ATOM     29  C   UNL     1     -12.214  -4.912  11.604  0.00  0.00    +0.035 A 
ATOM     30  C   UNL     1     -13.864  -4.440  13.304  0.00  0.00    +0.023 A 
ATOM     31  C   UNL     1     -12.762  -3.916  10.795  0.00  0.00    +0.057 A 
ATOM     32  C   UNL     1     -14.413  -3.445  12.495  0.00  0.00    +0.002 A 
ATOM     33  C   UNL     1     -13.862  -3.183  11.240  0.00  0.00    +0.012 A 
BRANCH  31  36
ATOM      1  F   UNL     1     -10.973  -2.988   9.508  0.00  0.00    -0.166 F 
ATOM      2  F   UNL     1     -12.966  -2.856   8.661  0.00  0.00    -0.166 F 
ATOM      3  F   UNL     1     -11.943  -4.773   8.734  0.00  0.00    -0.166 F 
ATOM     36  C   UNL     1     -12.174  -3.637   9.454  0.00  0.00    +0.417 C 
ENDBRANCH  31  36
ENDBRANCH  12  25
ENDBRANCH  17   8
BRANCH  16   7
ATOM      7  N   UNL     1      -8.790 -11.145  18.043  0.00  0.00    -0.217 N 
ATOM      9  N   UNL     1      -9.696 -11.136  19.027  0.00  0.00    -0.043 NA
ATOM     10  N   UNL     1      -7.656 -10.757  19.843  0.00  0.00    -0.108 NA
ATOM     11  N   UNL     1      -8.995 -10.897  20.129  0.00  0.00    -0.023 NA
ATOM     20  C   UNL     1      -7.553 -10.914  18.543  0.00  0.00    +0.182 A 
BRANCH  20  22
ATOM     22  C   UNL     1      -6.347 -10.858  17.757  0.00  0.00    +0.021 A 
ATOM     23  C   UNL     1      -6.197  -9.877  16.776  0.00  0.00    +0.013 A 
ATOM     24  C   UNL     1      -5.325 -11.784  17.978  0.00  0.00    +0.013 A 
ATOM     26  C   UNL     1      -5.028  -9.822  16.016  0.00  0.00    +0.024 A 
ATOM     27  C   UNL     1      -4.157 -11.728  17.218  0.00  0.00    +0.024 A 
ATOM     28  C   UNL     1      -4.009 -10.747  16.236  0.00  0.00    +0.029 A 
BRANCH  28  13
ATOM     13  N   UNL     1      -2.827 -10.692  15.468  0.00  0.00    -0.336 N 
ATOM     34  C   UNL     1      -2.893 -10.645  14.022  0.00  0.00    +0.129 C 
ATOM     35  C   UNL     1      -1.531 -10.666  16.117  0.00  0.00    +0.129 C 
ENDBRANCH  28  13
ENDBRANCH  20  22
ENDBRANCH  16   7
TORSDOF 6
ENDMDL
MODEL 5
REMARK VINA RESULT:      -7.3     29.646     32.375
REMARK  Name = 11867521
REMARK  8 active torsions:
REMARK  status: ('A' for Active; 'I' for Inactive)
REMARK    1  A    between atoms: N_7  and  C_16
REMARK    2  A    between atoms: N_8  and  C_17
REMARK    3  A    between atoms: N_12  and  C_25
REMARK    4  A    between atoms: N_13  and  C_28
REMARK    5  A    between atoms: N_13  and  C_34
REMARK    6  A    between atoms: N_13  and  C_35
REMARK    7  A    between atoms: C_20  and  C_22
REMARK    8  A    between atoms: C_31  and  C_36
REMARK                            x       y       z     vdW  Elec       q    Type
REMARK                         _______ _______ _______ _____ _____    ______ ____
ROOT
ATOM      4  O   UNL     1      -4.463 -14.534   4.389  0.00  0.00    -0.370 OA
ATOM      5  O   UNL     1      -1.805 -13.457   5.681  0.00  0.00    -0.370 OA
ATOM     14  C   UNL     1      -2.954 -12.825   5.087  0.00  0.00    +0.176 C 
ATOM     15  C   UNL     1      -3.394 -13.695   3.925  0.00  0.00    +0.171 C 
ATOM     16  C   UNL     1      -4.120 -12.859   6.057  0.00  0.00    +0.168 C 
ATOM     17  C   UNL     1      -2.176 -14.530   3.601  0.00  0.00    +0.131 C 
ATOM     18  C   UNL     1      -4.787 -14.195   5.745  0.00  0.00    +0.190 C 
ATOM     19  C   UNL     1      -1.501 -14.657   4.955  0.00  0.00    +0.185 C 
ENDROOT
BRANCH  17   8
ATOM      6  O   UNL     1      -0.367 -15.768   1.756  0.00  0.00    -0.252 OA
ATOM      8  N   UNL     1      -1.320 -13.861   2.652  0.00  0.00    -0.292 N 
ATOM     12  N   UNL     1       0.240 -13.637   0.981  0.00  0.00    -0.269 N 
ATOM     21  C   UNL     1      -0.461 -14.543   1.781  0.00  0.00    +0.304 C 
ATOM     37  H   UNL     1      -1.391 -12.851   2.566  0.00  0.00    +0.151 HD
ATOM     38  H   UNL     1       0.044 -12.650   1.131  0.00  0.00    +0.156 HD
BRANCH  12  25
ATOM     25  C   UNL     1       1.198 -13.922  -0.019  0.00  0.00    +0.035 A 
ATOM     29  C   UNL     1       2.505 -14.197   0.350  0.00  0.00    +0.035 A 
ATOM     30  C   UNL     1       0.809 -13.923  -1.349  0.00  0.00    +0.023 A 
ATOM     31  C   UNL     1       3.449 -14.478  -0.638  0.00  0.00    +0.057 A 
ATOM     32  C   UNL     1       1.753 -14.205  -2.336  0.00  0.00    +0.002 A 
ATOM     33  C   UNL     1       3.073 -14.483  -1.981  0.00  0.00    +0.012 A 
BRANCH  31  36
ATOM      1  F   UNL     1       5.711 -13.726  -0.451  0.00  0.00    -0.166 F 
ATOM      2  F   UNL     1       5.408 -15.813  -0.959  0.00  0.00    -0.166 F 
ATOM      3  F   UNL     1       4.990 -15.115   1.058  0.00  0.00    -0.166 F 
ATOM     36  C   UNL     1       4.860 -14.777  -0.258  0.00  0.00    +0.417 C 
ENDBRANCH  31  36
ENDBRANCH  12  25
ENDBRANCH  17   8
BRANCH  16   7
ATOM      7  N   UNL     1      -4.990 -11.687   5.931  0.00  0.00    -0.217 N 
ATOM      9  N   UNL     1      -5.668 -11.463   4.801  0.00  0.00    -0.043 NA
ATOM     10  N   UNL     1      -6.088  -9.859   6.291  0.00  0.00    -0.108 NA
ATOM     11  N   UNL     1      -6.340 -10.341   5.026  0.00  0.00    -0.023 NA
ATOM     20  C   UNL     1      -5.248 -10.711   6.833  0.00  0.00    +0.182 A 
BRANCH  20  22
ATOM     22  C   UNL     1      -4.681 -10.645   8.156  0.00  0.00    +0.021 A 
ATOM     23  C   UNL     1      -4.487 -11.814   8.893  0.00  0.00    +0.013 A 
ATOM     24  C   UNL     1      -4.324  -9.411   8.702  0.00  0.00    +0.013 A 
ATOM     26  C   UNL     1      -3.938 -11.750  10.174  0.00  0.00    +0.024 A 
ATOM     27  C   UNL     1      -3.774  -9.346   9.983  0.00  0.00    +0.024 A 
ATOM     28  C   UNL     1      -3.582 -10.516  10.719  0.00  0.00    +0.029 A 
BRANCH  28  13
ATOM     13  N   UNL     1      -3.026 -10.451  12.013  0.00  0.00    -0.336 N 
ATOM     34  C   UNL     1      -3.870 -10.586  13.182  0.00  0.00    +0.129 C 
ATOM     35  C   UNL     1      -1.600 -10.261  12.190  0.00  0.00    +0.129 C 
ENDBRANCH  28  13
ENDBRANCH  20  22
ENDBRANCH  16   7
TORSDOF 6
ENDMDL
MODEL 6
REMARK VINA RESULT:      -7.2     28.759     31.850
REMARK  Name = 11867521
REMARK  8 active torsions:
REMARK  status: ('A' for Active; 'I' for Inactive)
REMARK    1  A    between atoms: N_7  and  C_16
REMARK    2  A    between atoms: N_8  and  C_17
REMARK    3  A    between atoms: N_12  and  C_25
REMARK    4  A    between atoms: N_13  and  C_28
REMARK    5  A    between atoms: N_13  and  C_34
REMARK    6  A    between atoms: N_13  and  C_35
REMARK    7  A    between atoms: C_20  and  C_22
REMARK    8  A    between atoms: C_31  and  C_36
REMARK                            x       y       z     vdW  Elec       q    Type
REMARK                         _______ _______ _______ _____ _____    ______ ____
ROOT
ATOM      4  O   UNL     1      -5.391 -11.202  17.453  0.00  0.00    -0.370 OA
ATOM      5  O   UNL     1      -6.762 -11.270  14.623  0.00  0.00    -0.370 OA
ATOM     14  C   UNL     1      -5.618 -10.583  15.162  0.00  0.00    +0.176 C 
ATOM     15  C   UNL     1      -5.955 -10.202  16.591  0.00  0.00    +0.171 C 
ATOM     16  C   UNL     1      -4.450 -11.543  15.284  0.00  0.00    +0.168 C 
ATOM     17  C   UNL     1      -7.466 -10.255  16.645  0.00  0.00    +0.131 C 
ATOM     18  C   UNL     1      -4.647 -12.147  16.671  0.00  0.00    +0.190 C 
ATOM     19  C   UNL     1      -7.789 -11.330  15.624  0.00  0.00    +0.185 C 
ENDROOT
BRANCH  17   8
ATOM      6  O   UNL     1     -10.238  -9.722  16.158  0.00  0.00    -0.252 OA
ATOM      8  N   UNL     1      -8.047  -8.989  16.271  0.00  0.00    -0.292 N 
ATOM     12  N   UNL     1      -9.688  -7.485  15.703  0.00  0.00    -0.269 N 
ATOM     21  C   UNL     1      -9.419  -8.812  16.051  0.00  0.00    +0.304 C 
ATOM     37  H   UNL     1      -7.443  -8.174  16.230  0.00  0.00    +0.151 HD
ATOM     38  H   UNL     1      -8.890  -6.855  15.658  0.00  0.00    +0.156 HD
BRANCH  12  25
ATOM     25  C   UNL     1     -10.941  -6.903  15.404  0.00  0.00    +0.035 A 
ATOM     29  C   UNL     1     -11.069  -6.108  14.277  0.00  0.00    +0.035 A 
ATOM     30  C   UNL     1     -12.017  -7.141  16.244  0.00  0.00    +0.023 A 
ATOM     31  C   UNL     1     -12.306  -5.534  13.982  0.00  0.00    +0.057 A 
ATOM     32  C   UNL     1     -13.254  -6.568  15.949  0.00  0.00    +0.002 A 
ATOM     33  C   UNL     1     -13.398  -5.764  14.818  0.00  0.00    +0.012 A 
BRANCH  31  36
ATOM      1  F   UNL     1     -11.905  -5.214  11.646  0.00  0.00    -0.166 F 
ATOM      2  F   UNL     1     -11.887  -3.443  12.899  0.00  0.00    -0.166 F 
ATOM      3  F   UNL     1     -13.768  -4.440  12.459  0.00  0.00    -0.166 F 
ATOM     36  C   UNL     1     -12.461  -4.676  12.772  0.00  0.00    +0.417 C 
ENDBRANCH  31  36
ENDBRANCH  12  25
ENDBRANCH  17   8
BRANCH  16   7
ATOM      7  N   UNL     1      -3.158 -10.887  15.071  0.00  0.00    -0.217 N 
ATOM      9  N   UNL     1      -2.435 -10.458  16.111  0.00  0.00    -0.043 NA
ATOM     10  N   UNL     1      -1.384 -10.014  14.195  0.00  0.00    -0.108 NA
ATOM     11  N   UNL     1      -1.348  -9.923  15.568  0.00  0.00    -0.023 NA
ATOM     20  C   UNL     1      -2.517 -10.616  13.910  0.00  0.00    +0.182 A 
BRANCH  20  22
ATOM     22  C   UNL     1      -3.017 -10.943  12.600  0.00  0.00    +0.021 A 
ATOM     23  C   UNL     1      -2.872 -12.238  12.098  0.00  0.00    +0.013 A 
ATOM     24  C   UNL     1      -3.650  -9.966  11.829  0.00  0.00    +0.013 A 
ATOM     26  C   UNL     1      -3.356 -12.554  10.829  0.00  0.00    +0.024 A 
ATOM     27  C   UNL     1      -4.136 -10.283  10.560  0.00  0.00    +0.024 A 
ATOM     28  C   UNL     1      -3.988 -11.577  10.061  0.00  0.00    +0.029 A 
BRANCH  28  13
ATOM     13  N   UNL     1      -4.479 -11.898   8.778  0.00  0.00    -0.336 N 
ATOM     34  C   UNL     1      -4.898 -10.850   7.869  0.00  0.00    +0.129 C 
ATOM     35  C   UNL     1      -4.559 -13.280   8.347  0.00  0.00    +0.129 C 
ENDBRANCH  28  13
ENDBRANCH  20  22
ENDBRANCH  16   7
TORSDOF 6
ENDMDL
MODEL 7
REMARK VINA RESULT:      -7.1     28.385     31.236
REMARK  Name = 11867521
REMARK  8 active torsions:
REMARK  status: ('A' for Active; 'I' for Inactive)
REMARK    1  A    between atoms: N_7  and  C_16
REMARK    2  A    between atoms: N_8  and  C_17
REMARK    3  A    between atoms: N_12  and  C_25
REMARK    4  A    between atoms: N_13  and  C_28
REMARK    5  A    between atoms: N_13  and  C_34
REMARK    6  A    between atoms: N_13  and  C_35
REMARK    7  A    between atoms: C_20  and  C_22
REMARK    8  A    between atoms: C_31  and  C_36
REMARK                            x       y       z     vdW  Elec       q    Type
REMARK                         _______ _______ _______ _____ _____    ______ ____
ROOT
ATOM      4  O   UNL     1      -7.325 -12.061   8.227  0.00  0.00    -0.370 OA
ATOM      5  O   UNL     1      -8.583  -9.963  10.204  0.00  0.00    -0.370 OA
ATOM     14  C   UNL     1      -7.731  -9.861   9.048  0.00  0.00    +0.176 C 
ATOM     15  C   UNL     1      -6.783 -11.043   9.083  0.00  0.00    +0.171 C 
ATOM     16  C   UNL     1      -8.548 -10.059   7.786  0.00  0.00    +0.168 C 
ATOM     17  C   UNL     1      -6.810 -11.502  10.524  0.00  0.00    +0.131 C 
ATOM     18  C   UNL     1      -8.510 -11.570   7.587  0.00  0.00    +0.190 C 
ATOM     19  C   UNL     1      -8.217 -11.129  10.956  0.00  0.00    +0.185 C 
ENDROOT
BRANCH  17   8
ATOM      6  O   UNL     1      -5.567 -12.443  12.927  0.00  0.00    -0.252 OA
ATOM      8  N   UNL     1      -5.822 -10.807  11.312  0.00  0.00    -0.292 N 
ATOM     12  N   UNL     1      -4.336 -10.446  13.027  0.00  0.00    -0.269 N 
ATOM     21  C   UNL     1      -5.260 -11.340  12.480  0.00  0.00    +0.304 C 
ATOM     37  H   UNL     1      -5.467  -9.919  10.970  0.00  0.00    +0.151 HD
ATOM     38  H   UNL     1      -4.200  -9.570  12.529  0.00  0.00    +0.156 HD
BRANCH  12  25
ATOM     25  C   UNL     1      -3.558 -10.609  14.196  0.00  0.00    +0.035 A 
ATOM     29  C   UNL     1      -4.189 -10.890  15.398  0.00  0.00    +0.035 A 
ATOM     30  C   UNL     1      -2.181 -10.485  14.117  0.00  0.00    +0.023 A 
ATOM     31  C   UNL     1      -3.421 -11.050  16.551  0.00  0.00    +0.057 A 
ATOM     32  C   UNL     1      -1.413 -10.646  15.271  0.00  0.00    +0.002 A 
ATOM     33  C   UNL     1      -2.033 -10.929  16.488  0.00  0.00    +0.012 A 
BRANCH  31  36
ATOM      1  F   UNL     1      -3.205 -11.574  18.875  0.00  0.00    -0.166 F 
ATOM      2  F   UNL     1      -4.876 -12.465  17.817  0.00  0.00    -0.166 F 
ATOM      3  F   UNL     1      -4.893 -10.341  18.279  0.00  0.00    -0.166 F 
ATOM     36  C   UNL     1      -4.084 -11.353  17.853  0.00  0.00    +0.417 C 
ENDBRANCH  31  36
ENDBRANCH  12  25
ENDBRANCH  17   8
BRANCH  16   7
ATOM      7  N   UNL     1      -8.042  -9.272   6.659  0.00  0.00    -0.217 N 
ATOM      9  N   UNL     1      -7.233  -9.829   5.751  0.00  0.00    -0.043 NA
ATOM     10  N   UNL     1      -7.609  -7.689   5.251  0.00  0.00    -0.108 NA
ATOM     11  N   UNL     1      -6.970  -8.854   4.890  0.00  0.00    -0.023 NA
ATOM     20  C   UNL     1      -8.267  -7.973   6.352  0.00  0.00    +0.182 A 
BRANCH  20  22
ATOM     22  C   UNL     1      -9.094  -7.079   7.121  0.00  0.00    +0.021 A 
ATOM     23  C   UNL     1     -10.483  -7.123   6.991  0.00  0.00    +0.013 A 
ATOM     24  C   UNL     1      -8.507  -6.166   8.000  0.00  0.00    +0.013 A 
ATOM     26  C   UNL     1     -11.283  -6.257   7.736  0.00  0.00    +0.024 A 
ATOM     27  C   UNL     1      -9.307  -5.301   8.746  0.00  0.00    +0.024 A 
ATOM     28  C   UNL     1     -10.696  -5.346   8.614  0.00  0.00    +0.029 A 
BRANCH  28  13
ATOM     13  N   UNL     1     -11.505  -4.471   9.368  0.00  0.00    -0.336 N 
ATOM     34  C   UNL     1     -11.966  -4.853  10.687  0.00  0.00    +0.129 C 
ATOM     35  C   UNL     1     -11.873  -3.173   8.839  0.00  0.00    +0.129 C 
ENDBRANCH  28  13
ENDBRANCH  20  22
ENDBRANCH  16   7
TORSDOF 6
ENDMDL
MODEL 8
REMARK VINA RESULT:      -7.1      4.876     11.868
REMARK  Name = 11867521
REMARK  8 active torsions:
REMARK  status: ('A' for Active; 'I' for Inactive)
REMARK    1  A    between atoms: N_7  and  C_16
REMARK    2  A    between atoms: N_8  and  C_17
REMARK    3  A    between atoms: N_12  and  C_25
REMARK    4  A    between atoms: N_13  and  C_28
REMARK    5  A    between atoms: N_13  and  C_34
REMARK    6  A    between atoms: N_13  and  C_35
REMARK    7  A    between atoms: C_20  and  C_22
REMARK    8  A    between atoms: C_31  and  C_36
REMARK                            x       y       z     vdW  Elec       q    Type
REMARK                         _______ _______ _______ _____ _____    ______ ____
ROOT
ATOM      4  O   UNL     1      22.630   7.085  20.941  0.00  0.00    -0.370 OA
ATOM      5  O   UNL     1      20.968   5.384  23.000  0.00  0.00    -0.370 OA
ATOM     14  C   UNL     1      21.662   5.074  21.777  0.00  0.00    +0.176 C 
ATOM     15  C   UNL     1      21.467   6.249  20.840  0.00  0.00    +0.171 C 
ATOM     16  C   UNL     1      23.157   5.027  22.031  0.00  0.00    +0.168 C 
ATOM     17  C   UNL     1      20.255   6.968  21.389  0.00  0.00    +0.131 C 
ATOM     18  C   UNL     1      23.586   6.475  21.819  0.00  0.00    +0.190 C 
ATOM     19  C   UNL     1      20.349   6.672  22.874  0.00  0.00    +0.185 C 
ENDROOT
BRANCH  17   8
ATOM      6  O   UNL     1      17.780   8.370  21.046  0.00  0.00    -0.252 OA
ATOM      8  N   UNL     1      19.036   6.440  20.827  0.00  0.00    -0.292 N 
ATOM     12  N   UNL     1      16.850   6.423  20.120  0.00  0.00    -0.269 N 
ATOM     21  C   UNL     1      17.864   7.196  20.694  0.00  0.00    +0.304 C 
ATOM     37  H   UNL     1      19.046   5.496  20.451  0.00  0.00    +0.151 HD
ATOM     38  H   UNL     1      17.086   5.462  19.888  0.00  0.00    +0.156 HD
BRANCH  12  25
ATOM     25  C   UNL     1      15.525   6.815  19.821  0.00  0.00    +0.035 A 
ATOM     29  C   UNL     1      15.256   7.432  18.610  0.00  0.00    +0.035 A 
ATOM     30  C   UNL     1      14.521   6.573  20.744  0.00  0.00    +0.023 A 
ATOM     31  C   UNL     1      13.949   7.819  18.315  0.00  0.00    +0.057 A 
ATOM     32  C   UNL     1      13.213   6.958  20.449  0.00  0.00    +0.002 A 
ATOM     33  C   UNL     1      12.927   7.582  19.234  0.00  0.00    +0.012 A 
BRANCH  31  36
ATOM      1  F   UNL     1      14.289   7.925  15.950  0.00  0.00    -0.166 F 
ATOM      2  F   UNL     1      13.983   9.807  16.985  0.00  0.00    -0.166 F 
ATOM      3  F   UNL     1      12.315   8.441  16.703  0.00  0.00    -0.166 F 
ATOM     36  C   UNL     1      13.643   8.485  17.016  0.00  0.00    +0.417 C 
ENDBRANCH  31  36
ENDBRANCH  12  25
ENDBRANCH  17   8
BRANCH  16   7
ATOM      7  N   UNL     1      23.841   4.047  21.184  0.00  0.00    -0.217 N 
ATOM      9  N   UNL     1      24.161   4.348  19.921  0.00  0.00    -0.043 NA
ATOM     10  N   UNL     1      24.809   2.273  20.415  0.00  0.00    -0.108 NA
ATOM     11  N   UNL     1      24.756   3.257  19.454  0.00  0.00    -0.023 NA
ATOM     20  C   UNL     1      24.235   2.787  21.479  0.00  0.00    +0.182 A 
BRANCH  20  22
ATOM     22  C   UNL     1      24.045   2.144  22.755  0.00  0.00    +0.021 A 
ATOM     23  C   UNL     1      22.791   2.164  23.368  0.00  0.00    +0.013 A 
ATOM     24  C   UNL     1      25.114   1.499  23.379  0.00  0.00    +0.013 A 
ATOM     26  C   UNL     1      22.607   1.541  24.603  0.00  0.00    +0.024 A 
ATOM     27  C   UNL     1      24.930   0.876  24.613  0.00  0.00    +0.024 A 
ATOM     28  C   UNL     1      23.676   0.898  25.225  0.00  0.00    +0.029 A 
BRANCH  28  13
ATOM     13  N   UNL     1      23.490   0.267  26.473  0.00  0.00    -0.336 N 
ATOM     34  C   UNL     1      24.621   0.003  27.338  0.00  0.00    +0.129 C 
ATOM     35  C   UNL     1      22.162  -0.112  26.913  0.00  0.00    +0.129 C 
ENDBRANCH  28  13
ENDBRANCH  20  22
ENDBRANCH  16   7
TORSDOF 6
ENDMDL
MODEL 9
REMARK VINA RESULT:      -6.9      6.015     11.015
REMARK  Name = 11867521
REMARK  8 active torsions:
REMARK  status: ('A' for Active; 'I' for Inactive)
REMARK    1  A    between atoms: N_7  and  C_16
REMARK    2  A    between atoms: N_8  and  C_17
REMARK    3  A    between atoms: N_12  and  C_25
REMARK    4  A    between atoms: N_13  and  C_28
REMARK    5  A    between atoms: N_13  and  C_34
REMARK    6  A    between atoms: N_13  and  C_35
REMARK    7  A    between atoms: C_20  and  C_22
REMARK    8  A    between atoms: C_31  and  C_36
REMARK                            x       y       z     vdW  Elec       q    Type
REMARK                         _______ _______ _______ _____ _____    ______ ____
ROOT
ATOM      4  O   UNL     1      20.377   6.184  20.595  0.00  0.00    -0.370 OA
ATOM      5  O   UNL     1      19.549   8.460  22.602  0.00  0.00    -0.370 OA
ATOM     14  C   UNL     1      19.848   7.060  22.748  0.00  0.00    +0.176 C 
ATOM     15  C   UNL     1      19.296   6.353  21.526  0.00  0.00    +0.171 C 
ATOM     16  C   UNL     1      21.347   6.842  22.676  0.00  0.00    +0.168 C 
ATOM     17  C   UNL     1      18.271   7.315  20.969  0.00  0.00    +0.131 C 
ATOM     18  C   UNL     1      21.595   6.662  21.181  0.00  0.00    +0.190 C 
ATOM     19  C   UNL     1      18.840   8.663  21.371  0.00  0.00    +0.185 C 
ENDROOT
BRANCH  17   8
ATOM      6  O   UNL     1      15.818   8.605  20.243  0.00  0.00    -0.252 OA
ATOM      8  N   UNL     1      16.974   7.098  21.562  0.00  0.00    -0.292 N 
ATOM     12  N   UNL     1      14.716   7.359  21.899  0.00  0.00    -0.269 N 
ATOM     21  C   UNL     1      15.819   7.773  21.146  0.00  0.00    +0.304 C 
ATOM     37  H   UNL     1      16.881   6.375  22.269  0.00  0.00    +0.151 HD
ATOM     38  H   UNL     1      14.891   6.658  22.615  0.00  0.00    +0.156 HD
BRANCH  12  25
ATOM     25  C   UNL     1      13.377   7.798  21.790  0.00  0.00    +0.035 A 
ATOM     29  C   UNL     1      13.036   9.060  22.249  0.00  0.00    +0.035 A 
ATOM     30  C   UNL     1      12.432   6.957  21.226  0.00  0.00    +0.023 A 
ATOM     31  C   UNL     1      11.714   9.492  22.142  0.00  0.00    +0.057 A 
ATOM     32  C   UNL     1      11.110   7.390  21.118  0.00  0.00    +0.002 A 
ATOM     33  C   UNL     1      10.751   8.657  21.576  0.00  0.00    +0.012 A 
BRANCH  31  36
ATOM      1  F   UNL     1      12.352  11.517  23.244  0.00  0.00    -0.166 F 
ATOM      2  F   UNL     1      10.314  10.834  23.543  0.00  0.00    -0.166 F 
ATOM      3  F   UNL     1      10.908  11.669  21.625  0.00  0.00    -0.166 F 
ATOM     36  C   UNL     1      11.330  10.848  22.630  0.00  0.00    +0.417 C 
ENDBRANCH  31  36
ENDBRANCH  12  25
ENDBRANCH  17   8
BRANCH  16   7
ATOM      7  N   UNL     1      21.795   5.730  23.517  0.00  0.00    -0.217 N 
ATOM      9  N   UNL     1      22.056   4.534  22.979  0.00  0.00    -0.043 NA
ATOM     10  N   UNL     1      22.404   4.490  25.181  0.00  0.00    -0.108 NA
ATOM     11  N   UNL     1      22.430   3.777  24.003  0.00  0.00    -0.023 NA
ATOM     20  C   UNL     1      22.007   5.699  24.853  0.00  0.00    +0.182 A 
BRANCH  20  22
ATOM     22  C   UNL     1      21.821   6.818  25.741  0.00  0.00    +0.021 A 
ATOM     23  C   UNL     1      20.581   7.036  26.343  0.00  0.00    +0.013 A 
ATOM     24  C   UNL     1      22.883   7.687  26.002  0.00  0.00    +0.013 A 
ATOM     26  C   UNL     1      20.401   8.120  27.202  0.00  0.00    +0.024 A 
ATOM     27  C   UNL     1      22.704   8.771  26.862  0.00  0.00    +0.024 A 
ATOM     28  C   UNL     1      21.462   8.987  27.462  0.00  0.00    +0.029 A 
BRANCH  28  13
ATOM     13  N   UNL     1      21.281  10.083  28.332  0.00  0.00    -0.336 N 
ATOM     34  C   UNL     1      22.053  10.185  29.553  0.00  0.00    +0.129 C 
ATOM     35  C   UNL     1      20.330  11.127  28.008  0.00  0.00    +0.129 C 
ENDBRANCH  28  13
ENDBRANCH  20  22
ENDBRANCH  16   7
TORSDOF 6
ENDMDL
MODEL 10
REMARK VINA RESULT:      -6.9     17.207     20.344
REMARK  Name = 11867521
REMARK  8 active torsions:
REMARK  status: ('A' for Active; 'I' for Inactive)
REMARK    1  A    between atoms: N_7  and  C_16
REMARK    2  A    between atoms: N_8  and  C_17
REMARK    3  A    between atoms: N_12  and  C_25
REMARK    4  A    between atoms: N_13  and  C_28
REMARK    5  A    between atoms: N_13  and  C_34
REMARK    6  A    between atoms: N_13  and  C_35
REMARK    7  A    between atoms: C_20  and  C_22
REMARK    8  A    between atoms: C_31  and  C_36
REMARK                            x       y       z     vdW  Elec       q    Type
REMARK                         _______ _______ _______ _____ _____    ______ ____
ROOT
ATOM      4  O   UNL     1       4.844  13.052   5.080  0.00  0.00    -0.370 OA
ATOM      5  O   UNL     1       4.148  11.485   2.443  0.00  0.00    -0.370 OA
ATOM     14  C   UNL     1       3.636  11.454   3.788  0.00  0.00    +0.176 C 
ATOM     15  C   UNL     1       4.812  11.662   4.722  0.00  0.00    +0.171 C 
ATOM     16  C   UNL     1       2.739  12.654   4.026  0.00  0.00    +0.168 C 
ATOM     17  C   UNL     1       6.021  11.309   3.884  0.00  0.00    +0.131 C 
ATOM     18  C   UNL     1       3.716  13.724   4.503  0.00  0.00    +0.190 C 
ATOM     19  C   UNL     1       5.568  11.690   2.486  0.00  0.00    +0.185 C 
ENDROOT
BRANCH  17   8
ATOM      6  O   UNL     1       8.354  10.128   5.053  0.00  0.00    -0.252 OA
ATOM      8  N   UNL     1       6.324   9.902   3.969  0.00  0.00    -0.292 N 
ATOM     12  N   UNL     1       7.512   8.008   4.498  0.00  0.00    -0.269 N 
ATOM     21  C   UNL     1       7.492   9.404   4.561  0.00  0.00    +0.304 C 
ATOM     37  H   UNL     1       5.627   9.237   3.645  0.00  0.00    +0.151 HD
ATOM     38  H   UNL     1       6.715   7.561   4.052  0.00  0.00    +0.156 HD
BRANCH  12  25
ATOM     25  C   UNL     1       8.512   7.132   4.980  0.00  0.00    +0.035 A 
ATOM     29  C   UNL     1       8.543   6.814   6.328  0.00  0.00    +0.035 A 
ATOM     30  C   UNL     1       9.439   6.609   4.095  0.00  0.00    +0.023 A 
ATOM     31  C   UNL     1       9.530   5.950   6.804  0.00  0.00    +0.057 A 
ATOM     32  C   UNL     1      10.425   5.744   4.570  0.00  0.00    +0.002 A 
ATOM     33  C   UNL     1      10.471   5.415   5.924  0.00  0.00    +0.012 A 
BRANCH  31  36
ATOM      1  F   UNL     1       9.289   4.285   8.504  0.00  0.00    -0.166 F 
ATOM      2  F   UNL     1       8.698   6.308   9.018  0.00  0.00    -0.166 F 
ATOM      3  F   UNL     1      10.805   5.814   8.806  0.00  0.00    -0.166 F 
ATOM     36  C   UNL     1       9.578   5.597   8.252  0.00  0.00    +0.417 C 
ENDBRANCH  31  36
ENDBRANCH  12  25
ENDBRANCH  17   8
BRANCH  16   7
ATOM      7  N   UNL     1       1.641  12.362   4.949  0.00  0.00    -0.217 N 
ATOM      9  N   UNL     1       1.787  12.563   6.263  0.00  0.00    -0.043 NA
ATOM     10  N   UNL     1      -0.250  11.773   5.818  0.00  0.00    -0.108 NA
ATOM     11  N   UNL     1       0.624  12.200   6.792  0.00  0.00    -0.023 NA
ATOM     20  C   UNL     1       0.403  11.882   4.684  0.00  0.00    +0.182 A 
BRANCH  20  22
ATOM     22  C   UNL     1      -0.087  11.556   3.369  0.00  0.00    +0.021 A 
ATOM     23  C   UNL     1      -0.687  12.540   2.581  0.00  0.00    +0.013 A 
ATOM     24  C   UNL     1       0.040  10.255   2.879  0.00  0.00    +0.013 A 
ATOM     26  C   UNL     1      -1.160  12.224   1.308  0.00  0.00    +0.024 A 
ATOM     27  C   UNL     1      -0.433   9.939   1.605  0.00  0.00    +0.024 A 
ATOM     28  C   UNL     1      -1.034  10.924   0.820  0.00  0.00    +0.029 A 
BRANCH  28  13
ATOM     13  N   UNL     1      -1.511  10.604  -0.468  0.00  0.00    -0.336 N 
ATOM     34  C   UNL     1      -1.736  11.648  -1.448  0.00  0.00    +0.129 C 
ATOM     35  C   UNL     1      -1.771   9.226  -0.833  0.00  0.00    +0.129 C 
ENDBRANCH  28  13
ENDBRANCH  20  22
ENDBRANCH  16   7
TORSDOF 6
ENDMDL
