REMARK  Name = 40779881
REMARK  6 active torsions:
REMARK  status: ('A' for Active; 'I' for Inactive)
REMARK    1  A    between atoms: N_6  and  C_15
REMARK    2  A    between atoms: N_7  and  C_16
REMARK    3  A    between atoms: C_9  and  C_15
REMARK    4  A    between atoms: C_10  and  C_16
REMARK    5  A    between atoms: C_22  and  C_26
REMARK    6  A    between atoms: C_31  and  C_32
REMARK                            x       y       z     vdW  Elec       q    Type
REMARK                         _______ _______ _______ _____ _____    ______ ____
ROOT
ATOM      5  N   UNL     1       1.453  -2.469   0.667  0.00  0.00    -0.298 NA
ATOM      8  C   UNL     1       1.763  -1.347  -1.659  0.00  0.00    -0.002 C 
ATOM      9  C   UNL     1       2.890  -0.926  -0.688  0.00  0.00    +0.023 C 
ATOM     10  C   UNL     1       0.197  -1.782   0.262  0.00  0.00    +0.074 C 
ATOM     11  C   UNL     1       0.399  -0.982  -1.044  0.00  0.00    +0.024 C 
ATOM     12  C   UNL     1       2.577  -1.503   0.711  0.00  0.00    +0.090 C 
ATOM     13  C   UNL     1       1.818  -2.882  -1.769  0.00  0.00    +0.019 C 
ATOM     14  C   UNL     1       1.764  -3.494  -0.358  0.00  0.00    +0.085 C 
ENDROOT
BRANCH   9  15
ATOM     15  C   UNL     1       3.109   0.585  -0.638  0.00  0.00    +0.110 C 
BRANCH  15   6
ATOM      6  N   UNL     1       4.225   0.887   0.222  0.00  0.00    -0.329 N 
ATOM     17  C   UNL     1       4.103   1.755   1.391  0.00  0.00    +0.110 C 
ATOM     18  C   UNL     1       5.541   0.971  -0.211  0.00  0.00    +0.033 A 
ATOM     19  C   UNL     1       5.531   1.967   1.933  0.00  0.00    +0.056 C 
ATOM     20  C   UNL     1       6.353   1.603   0.739  0.00  0.00    -0.025 A 
ATOM     21  C   UNL     1       6.097   0.513  -1.395  0.00  0.00    +0.023 A 
ATOM     23  C   UNL     1       7.711   1.787   0.541  0.00  0.00    +0.005 A 
ATOM     24  C   UNL     1       7.465   0.699  -1.615  0.00  0.00    +0.002 A 
ATOM     25  C   UNL     1       8.267   1.331  -0.654  0.00  0.00    +0.000 A 
ENDBRANCH  15   6
ENDBRANCH   9  15
BRANCH  10  16
ATOM     16  C   UNL     1      -0.378  -0.909   1.380  0.00  0.00    +0.123 C 
BRANCH  16   7
ATOM      4  O   UNL     1      -2.935  -2.142   1.816  0.00  0.00    -0.270 OA
ATOM      7  N   UNL     1      -1.659  -0.394   0.979  0.00  0.00    -0.310 N 
ATOM     22  C   UNL     1      -2.850  -1.063   1.234  0.00  0.00    +0.244 C 
ATOM     33  H   UNL     1      -1.657   0.465   0.440  0.00  0.00    +0.149 HD
BRANCH  22  26
ATOM     26  C   UNL     1      -4.087  -0.411   0.733  0.00  0.00    +0.037 A 
ATOM     27  C   UNL     1      -5.206  -1.183   0.420  0.00  0.00    +0.013 A 
ATOM     28  C   UNL     1      -4.129   0.974   0.574  0.00  0.00    +0.013 A 
ATOM     29  C   UNL     1      -6.367  -0.570  -0.052  0.00  0.00    +0.013 A 
ATOM     30  C   UNL     1      -5.290   1.587   0.102  0.00  0.00    +0.013 A 
ATOM     31  C   UNL     1      -6.409   0.815  -0.211  0.00  0.00    +0.055 A 
BRANCH  31  32
ATOM      1  F   UNL     1      -8.185   2.374   0.157  0.00  0.00    -0.166 F 
ATOM      2  F   UNL     1      -8.648   0.576  -0.973  0.00  0.00    -0.166 F 
ATOM      3  F   UNL     1      -7.469   2.163  -1.879  0.00  0.00    -0.166 F 
ATOM     32  C   UNL     1      -7.650   1.470  -0.716  0.00  0.00    +0.417 C 
ENDBRANCH  31  32
ENDBRANCH  22  26
ENDBRANCH  16   7
ENDBRANCH  10  16
TORSDOF 6
