MODEL 1
REMARK VINA RESULT:      -6.6      0.000      0.000
REMARK  Name = 26743391
REMARK  9 active torsions:
REMARK  status: ('A' for Active; 'I' for Inactive)
REMARK    1  A    between atoms: S_1  and  N_6
REMARK    2  A    between atoms: S_1  and  C_20
REMARK    3  A    between atoms: O_5  and  C_26
REMARK    4  A    between atoms: O_5  and  C_29
REMARK    5  A    between atoms: N_6  and  C_11
REMARK    6  A    between atoms: N_7  and  C_19
REMARK    7  A    between atoms: C_9  and  C_12
REMARK    8  A    between atoms: C_15  and  C_17
REMARK    9  A    between atoms: C_16  and  C_18
REMARK                            x       y       z     vdW  Elec       q    Type
REMARK                         _______ _______ _______ _____ _____    ______ ____
ROOT
ATOM      9  C   UNL     1      -4.231  -9.524  10.429  0.00  0.00    +0.047 C 
ATOM     10  C   UNL     1      -5.151 -10.507   9.675  0.00  0.00    +0.037 C 
ATOM     11  C   UNL     1      -6.100  -9.639   8.841  0.00  0.00    +0.100 C 
ATOM     13  C   UNL     1      -5.022  -8.249  10.396  0.00  0.00    -0.021 C 
ATOM     14  C   UNL     1      -6.034  -8.315   9.527  0.00  0.00    -0.010 C 
ENDROOT
BRANCH   9  12
ATOM      7  N   UNL     1      -3.896 -10.704  13.880  0.00  0.00    -0.236 N 
ATOM      8  N   UNL     1      -2.583 -10.621  13.606  0.00  0.00    -0.171 NA
ATOM     12  C   UNL     1      -3.856  -9.999  11.814  0.00  0.00    +0.003 A 
ATOM     15  C   UNL     1      -4.701 -10.343  12.840  0.00  0.00    +0.046 A 
ATOM     16  C   UNL     1      -2.565 -10.190  12.342  0.00  0.00    +0.064 A 
ATOM     17  C   UNL     1      -6.176 -10.357  12.914  0.00  0.00    +0.066 C 
ATOM     18  C   UNL     1      -1.271  -9.972  11.669  0.00  0.00    +0.068 C 
BRANCH   7  19
ATOM     19  C   UNL     1      -4.314 -11.131  15.142  0.00  0.00    +0.066 A 
ATOM     21  C   UNL     1      -4.535 -10.199  16.156  0.00  0.00    +0.031 A 
ATOM     22  C   UNL     1      -4.508 -12.490  15.388  0.00  0.00    +0.031 A 
ATOM     24  C   UNL     1      -4.951 -10.626  17.417  0.00  0.00    +0.048 A 
ATOM     25  C   UNL     1      -4.925 -12.917  16.649  0.00  0.00    +0.048 A 
ATOM     26  C   UNL     1      -5.146 -11.985  17.663  0.00  0.00    +0.120 A 
BRANCH  26   5
ATOM      5  O   UNL     1      -5.552 -12.401  18.894  0.00  0.00    -0.495 OA
ATOM     29  C   UNL     1      -5.964 -11.394  19.816  0.00  0.00    +0.277 C 
ENDBRANCH  26   5
ENDBRANCH   7  19
ENDBRANCH   9  12
BRANCH  11   6
ATOM      6  N   UNL     1      -5.595  -9.493   7.460  0.00  0.00    -0.183 NA
ATOM     30  H   UNL     1      -4.893  -8.754   7.327  0.00  0.00    +0.149 HD
BRANCH   6   1
ATOM      1  S   UNL     1      -6.602  -9.868   6.141  0.00  0.00    +0.065 S 
ATOM      3  O   UNL     1      -6.727  -8.704   5.285  0.00  0.00    -0.153 OA
ATOM      4  O   UNL     1      -7.788 -10.542   6.633  0.00  0.00    -0.153 OA
BRANCH   1  20
ATOM      2  S   UNL     1      -6.330 -11.633   3.817  0.00  0.00    -0.077 S 
ATOM     20  C   UNL     1      -5.640 -11.076   5.282  0.00  0.00    +0.142 A 
ATOM     23  C   UNL     1      -4.430 -11.680   5.546  0.00  0.00    +0.036 A 
ATOM     27  C   UNL     1      -4.064 -12.611   4.531  0.00  0.00    +0.010 A 
ATOM     28  C   UNL     1      -5.008 -12.683   3.531  0.00  0.00    +0.047 A 
ENDBRANCH   1  20
ENDBRANCH   6   1
ENDBRANCH  11   6
TORSDOF 6
ENDMDL
MODEL 2
REMARK VINA RESULT:      -6.6     29.434     32.324
REMARK  Name = 26743391
REMARK  9 active torsions:
REMARK  status: ('A' for Active; 'I' for Inactive)
REMARK    1  A    between atoms: S_1  and  N_6
REMARK    2  A    between atoms: S_1  and  C_20
REMARK    3  A    between atoms: O_5  and  C_26
REMARK    4  A    between atoms: O_5  and  C_29
REMARK    5  A    between atoms: N_6  and  C_11
REMARK    6  A    between atoms: N_7  and  C_19
REMARK    7  A    between atoms: C_9  and  C_12
REMARK    8  A    between atoms: C_15  and  C_17
REMARK    9  A    between atoms: C_16  and  C_18
REMARK                            x       y       z     vdW  Elec       q    Type
REMARK                         _______ _______ _______ _____ _____    ______ ____
ROOT
ATOM      9  C   UNL     1      20.692   5.282  20.512  0.00  0.00    +0.047 C 
ATOM     10  C   UNL     1      21.990   6.104  20.359  0.00  0.00    +0.037 C 
ATOM     11  C   UNL     1      23.105   5.244  20.962  0.00  0.00    +0.100 C 
ATOM     13  C   UNL     1      21.046   4.317  21.606  0.00  0.00    -0.021 C 
ATOM     14  C   UNL     1      22.361   4.296  21.843  0.00  0.00    -0.010 C 
ENDROOT
BRANCH   9  12
ATOM      7  N   UNL     1      17.512   7.089  20.718  0.00  0.00    -0.236 N 
ATOM      8  N   UNL     1      18.088   7.644  21.798  0.00  0.00    -0.171 NA
ATOM     12  C   UNL     1      19.475   6.134  20.791  0.00  0.00    +0.003 A 
ATOM     15  C   UNL     1      18.301   6.177  20.080  0.00  0.00    +0.046 A 
ATOM     16  C   UNL     1      19.287   7.056  21.838  0.00  0.00    +0.064 A 
ATOM     17  C   UNL     1      17.874   5.441  18.873  0.00  0.00    +0.066 C 
ATOM     18  C   UNL     1      20.234   7.413  22.910  0.00  0.00    +0.068 C 
BRANCH   7  19
ATOM     19  C   UNL     1      16.219   7.467  20.352  0.00  0.00    +0.066 A 
ATOM     21  C   UNL     1      15.171   6.552  20.450  0.00  0.00    +0.031 A 
ATOM     22  C   UNL     1      15.977   8.759  19.886  0.00  0.00    +0.031 A 
ATOM     24  C   UNL     1      13.879   6.930  20.081  0.00  0.00    +0.048 A 
ATOM     25  C   UNL     1      14.686   9.137  19.518  0.00  0.00    +0.048 A 
ATOM     26  C   UNL     1      13.637   8.222  19.616  0.00  0.00    +0.120 A 
BRANCH  26   5
ATOM      5  O   UNL     1      12.377   8.590  19.257  0.00  0.00    -0.495 OA
ATOM     29  C   UNL     1      12.087   8.636  17.861  0.00  0.00    +0.277 C 
ENDBRANCH  26   5
ENDBRANCH   7  19
ENDBRANCH   9  12
BRANCH  11   6
ATOM      6  N   UNL     1      23.800   4.476  19.907  0.00  0.00    -0.183 NA
ATOM     30  H   UNL     1      23.217   3.792  19.409  0.00  0.00    +0.149 HD
BRANCH   6   1
ATOM      1  S   UNL     1      25.460   4.136  20.056  0.00  0.00    +0.065 S 
ATOM      3  O   UNL     1      26.081   5.131  20.908  0.00  0.00    -0.153 OA
ATOM      4  O   UNL     1      26.004   3.862  18.740  0.00  0.00    -0.153 OA
BRANCH   1  20
ATOM      2  S   UNL     1      26.796   2.334  21.944  0.00  0.00    -0.077 S 
ATOM     20  C   UNL     1      25.437   2.603  20.935  0.00  0.00    +0.142 A 
ATOM     23  C   UNL     1      24.544   1.555  20.981  0.00  0.00    +0.036 A 
ATOM     27  C   UNL     1      24.978   0.519  21.858  0.00  0.00    +0.010 A 
ATOM     28  C   UNL     1      26.188   0.814  22.447  0.00  0.00    +0.047 A 
ENDBRANCH   1  20
ENDBRANCH   6   1
ENDBRANCH  11   6
TORSDOF 6
ENDMDL
MODEL 3
REMARK VINA RESULT:      -6.5     22.050     24.379
REMARK  Name = 26743391
REMARK  9 active torsions:
REMARK  status: ('A' for Active; 'I' for Inactive)
REMARK    1  A    between atoms: S_1  and  N_6
REMARK    2  A    between atoms: S_1  and  C_20
REMARK    3  A    between atoms: O_5  and  C_26
REMARK    4  A    between atoms: O_5  and  C_29
REMARK    5  A    between atoms: N_6  and  C_11
REMARK    6  A    between atoms: N_7  and  C_19
REMARK    7  A    between atoms: C_9  and  C_12
REMARK    8  A    between atoms: C_15  and  C_17
REMARK    9  A    between atoms: C_16  and  C_18
REMARK                            x       y       z     vdW  Elec       q    Type
REMARK                         _______ _______ _______ _____ _____    ______ ____
ROOT
ATOM      9  C   UNL     1     -15.699   3.729  24.007  0.00  0.00    +0.047 C 
ATOM     10  C   UNL     1     -16.209   4.077  25.421  0.00  0.00    +0.037 C 
ATOM     11  C   UNL     1     -17.264   3.018  25.760  0.00  0.00    +0.100 C 
ATOM     13  C   UNL     1     -16.810   2.882  23.460  0.00  0.00    -0.021 C 
ATOM     14  C   UNL     1     -17.656   2.493  24.418  0.00  0.00    -0.010 C 
ENDROOT
BRANCH   9  12
ATOM      7  N   UNL     1     -14.336   6.503  22.041  0.00  0.00    -0.236 N 
ATOM      8  N   UNL     1     -15.629   6.857  21.953  0.00  0.00    -0.171 NA
ATOM     12  C   UNL     1     -15.365   4.946  23.175  0.00  0.00    +0.003 A 
ATOM     15  C   UNL     1     -14.124   5.365  22.763  0.00  0.00    +0.046 A 
ATOM     16  C   UNL     1     -16.253   5.902  22.647  0.00  0.00    +0.064 A 
ATOM     17  C   UNL     1     -12.784   4.787  22.990  0.00  0.00    +0.066 C 
ATOM     18  C   UNL     1     -17.720   5.945  22.782  0.00  0.00    +0.068 C 
BRANCH   7  19
ATOM     19  C   UNL     1     -13.360   7.285  21.421  0.00  0.00    +0.066 A 
ATOM     21  C   UNL     1     -13.344   8.666  21.617  0.00  0.00    +0.031 A 
ATOM     22  C   UNL     1     -12.401   6.684  20.606  0.00  0.00    +0.031 A 
ATOM     24  C   UNL     1     -12.370   9.447  20.995  0.00  0.00    +0.048 A 
ATOM     25  C   UNL     1     -11.426   7.466  19.985  0.00  0.00    +0.048 A 
ATOM     26  C   UNL     1     -11.411   8.847  20.180  0.00  0.00    +0.120 A 
BRANCH  26   5
ATOM      5  O   UNL     1     -10.460   9.610  19.574  0.00  0.00    -0.495 OA
ATOM     29  C   UNL     1     -10.227   9.375  18.187  0.00  0.00    +0.277 C 
ENDBRANCH  26   5
ENDBRANCH   7  19
ENDBRANCH   9  12
BRANCH  11   6
ATOM      6  N   UNL     1     -16.667   1.922  26.552  0.00  0.00    -0.183 NA
ATOM     30  H   UNL     1     -16.295   1.138  26.001  0.00  0.00    +0.149 HD
BRANCH   6   1
ATOM      1  S   UNL     1     -17.258   1.578  28.109  0.00  0.00    +0.065 S 
ATOM      3  O   UNL     1     -17.833   0.248  28.123  0.00  0.00    -0.153 OA
ATOM      4  O   UNL     1     -18.030   2.712  28.579  0.00  0.00    -0.153 OA
BRANCH   1  20
ATOM      2  S   UNL     1     -15.112   3.077  29.430  0.00  0.00    -0.077 S 
ATOM     20  C   UNL     1     -15.769   1.538  29.060  0.00  0.00    +0.142 A 
ATOM     23  C   UNL     1     -15.006   0.513  29.577  0.00  0.00    +0.036 A 
ATOM     27  C   UNL     1     -13.869   0.997  30.286  0.00  0.00    +0.010 A 
ATOM     28  C   UNL     1     -13.806   2.373  30.284  0.00  0.00    +0.047 A 
ENDBRANCH   1  20
ENDBRANCH   6   1
ENDBRANCH  11   6
TORSDOF 6
ENDMDL
MODEL 4
REMARK VINA RESULT:      -6.4      5.029      8.091
REMARK  Name = 26743391
REMARK  9 active torsions:
REMARK  status: ('A' for Active; 'I' for Inactive)
REMARK    1  A    between atoms: S_1  and  N_6
REMARK    2  A    between atoms: S_1  and  C_20
REMARK    3  A    between atoms: O_5  and  C_26
REMARK    4  A    between atoms: O_5  and  C_29
REMARK    5  A    between atoms: N_6  and  C_11
REMARK    6  A    between atoms: N_7  and  C_19
REMARK    7  A    between atoms: C_9  and  C_12
REMARK    8  A    between atoms: C_15  and  C_17
REMARK    9  A    between atoms: C_16  and  C_18
REMARK                            x       y       z     vdW  Elec       q    Type
REMARK                         _______ _______ _______ _____ _____    ______ ____
ROOT
ATOM      9  C   UNL     1      -6.238 -11.025  16.806  0.00  0.00    +0.047 C 
ATOM     10  C   UNL     1      -4.885 -10.377  17.165  0.00  0.00    +0.037 C 
ATOM     11  C   UNL     1      -3.834 -11.095  16.312  0.00  0.00    +0.100 C 
ATOM     13  C   UNL     1      -5.821 -12.343  16.221  0.00  0.00    -0.021 C 
ATOM     14  C   UNL     1      -4.513 -12.374  15.949  0.00  0.00    -0.010 C 
ENDROOT
BRANCH   9  12
ATOM      7  N   UNL     1      -8.952 -11.212  19.259  0.00  0.00    -0.236 N 
ATOM      8  N   UNL     1      -7.936 -11.354  20.125  0.00  0.00    -0.171 NA
ATOM     12  C   UNL     1      -7.183 -11.127  17.981  0.00  0.00    +0.003 A 
ATOM     15  C   UNL     1      -8.555 -11.073  17.961  0.00  0.00    +0.046 A 
ATOM     16  C   UNL     1      -6.857 -11.302  19.339  0.00  0.00    +0.064 A 
ATOM     17  C   UNL     1      -9.500 -10.906  16.838  0.00  0.00    +0.066 C 
ATOM     18  C   UNL     1      -5.516 -11.425  19.939  0.00  0.00    +0.068 C 
BRANCH   7  19
ATOM     19  C   UNL     1     -10.267 -11.218  19.726  0.00  0.00    +0.066 A 
ATOM     21  C   UNL     1     -10.916 -12.428  19.971  0.00  0.00    +0.031 A 
ATOM     22  C   UNL     1     -10.932 -10.012  19.948  0.00  0.00    +0.031 A 
ATOM     24  C   UNL     1     -12.231 -12.433  20.436  0.00  0.00    +0.048 A 
ATOM     25  C   UNL     1     -12.247 -10.017  20.414  0.00  0.00    +0.048 A 
ATOM     26  C   UNL     1     -12.896 -11.227  20.658  0.00  0.00    +0.120 A 
BRANCH  26   5
ATOM      5  O   UNL     1     -14.179 -11.232  21.113  0.00  0.00    -0.495 OA
ATOM     29  C   UNL     1     -14.946 -10.048  20.906  0.00  0.00    +0.277 C 
ENDBRANCH  26   5
ENDBRANCH   7  19
ENDBRANCH   9  12
BRANCH  11   6
ATOM      6  N   UNL     1      -3.553 -10.331  15.078  0.00  0.00    -0.183 NA
ATOM     30  H   UNL     1      -4.383 -10.027  14.554  0.00  0.00    +0.149 HD
BRANCH   6   1
ATOM      1  S   UNL     1      -2.132 -10.635  14.194  0.00  0.00    +0.065 S 
ATOM      3  O   UNL     1      -1.834 -12.053  14.236  0.00  0.00    -0.153 OA
ATOM      4  O   UNL     1      -1.124  -9.666  14.576  0.00  0.00    -0.153 OA
BRANCH   1  20
ATOM      2  S   UNL     1      -4.306 -10.456  12.236  0.00  0.00    -0.077 S 
ATOM     20  C   UNL     1      -2.637 -10.234  12.548  0.00  0.00    +0.142 A 
ATOM     23  C   UNL     1      -1.960  -9.773  11.440  0.00  0.00    +0.036 A 
ATOM     27  C   UNL     1      -2.824  -9.598  10.320  0.00  0.00    +0.010 A 
ATOM     28  C   UNL     1      -4.127  -9.933  10.615  0.00  0.00    +0.047 A 
ENDBRANCH   1  20
ENDBRANCH   6   1
ENDBRANCH  11   6
TORSDOF 6
ENDMDL
MODEL 5
REMARK VINA RESULT:      -6.4      4.348      9.583
REMARK  Name = 26743391
REMARK  9 active torsions:
REMARK  status: ('A' for Active; 'I' for Inactive)
REMARK    1  A    between atoms: S_1  and  N_6
REMARK    2  A    between atoms: S_1  and  C_20
REMARK    3  A    between atoms: O_5  and  C_26
REMARK    4  A    between atoms: O_5  and  C_29
REMARK    5  A    between atoms: N_6  and  C_11
REMARK    6  A    between atoms: N_7  and  C_19
REMARK    7  A    between atoms: C_9  and  C_12
REMARK    8  A    between atoms: C_15  and  C_17
REMARK    9  A    between atoms: C_16  and  C_18
REMARK                            x       y       z     vdW  Elec       q    Type
REMARK                         _______ _______ _______ _____ _____    ______ ____
ROOT
ATOM      9  C   UNL     1      -5.255 -10.163  15.970  0.00  0.00    +0.047 C 
ATOM     10  C   UNL     1      -6.394 -11.144  16.317  0.00  0.00    +0.037 C 
ATOM     11  C   UNL     1      -6.240 -11.457  17.809  0.00  0.00    +0.100 C 
ATOM     13  C   UNL     1      -4.276 -10.396  17.083  0.00  0.00    -0.021 C 
ATOM     14  C   UNL     1      -4.818 -11.096  18.084  0.00  0.00    -0.010 C 
ENDROOT
BRANCH   9  12
ATOM      7  N   UNL     1      -4.408 -10.458  12.418  0.00  0.00    -0.236 N 
ATOM      8  N   UNL     1      -3.234 -10.892  12.905  0.00  0.00    -0.171 NA
ATOM     12  C   UNL     1      -4.692 -10.365  14.582  0.00  0.00    +0.003 A 
ATOM     15  C   UNL     1      -5.317 -10.129  13.382  0.00  0.00    +0.046 A 
ATOM     16  C   UNL     1      -3.413 -10.832  14.228  0.00  0.00    +0.064 A 
ATOM     17  C   UNL     1      -6.672  -9.628  13.079  0.00  0.00    +0.066 C 
ATOM     18  C   UNL     1      -2.317 -11.238  15.127  0.00  0.00    +0.068 C 
BRANCH   7  19
ATOM     19  C   UNL     1      -4.600 -10.382  11.038  0.00  0.00    +0.066 A 
ATOM     21  C   UNL     1      -5.197 -11.443  10.357  0.00  0.00    +0.031 A 
ATOM     22  C   UNL     1      -4.192  -9.245  10.340  0.00  0.00    +0.031 A 
ATOM     24  C   UNL     1      -5.387 -11.367   8.977  0.00  0.00    +0.048 A 
ATOM     25  C   UNL     1      -4.383  -9.169   8.961  0.00  0.00    +0.048 A 
ATOM     26  C   UNL     1      -4.979 -10.229   8.279  0.00  0.00    +0.120 A 
BRANCH  26   5
ATOM      5  O   UNL     1      -5.165 -10.156   6.933  0.00  0.00    -0.495 OA
ATOM     29  C   UNL     1      -4.893 -11.334   6.175  0.00  0.00    +0.277 C 
ENDBRANCH  26   5
ENDBRANCH   7  19
ENDBRANCH   9  12
BRANCH  11   6
ATOM      6  N   UNL     1      -7.124 -10.589  18.617  0.00  0.00    -0.183 NA
ATOM     30  H   UNL     1      -6.670 -10.127  19.415  0.00  0.00    +0.149 HD
BRANCH   6   1
ATOM      1  S   UNL     1      -8.779 -10.953  18.755  0.00  0.00    +0.065 S 
ATOM      3  O   UNL     1      -9.180 -10.851  20.144  0.00  0.00    -0.153 OA
ATOM      4  O   UNL     1      -9.059 -12.160  18.001  0.00  0.00    -0.153 OA
BRANCH   1  20
ATOM      2  S   UNL     1     -11.214  -9.468  18.077  0.00  0.00    -0.077 S 
ATOM     20  C   UNL     1      -9.520  -9.611  17.874  0.00  0.00    +0.142 A 
ATOM     23  C   UNL     1      -9.014  -8.637  17.040  0.00  0.00    +0.036 A 
ATOM     27  C   UNL     1     -10.032  -7.761  16.563  0.00  0.00    +0.010 A 
ATOM     28  C   UNL     1     -11.276  -8.099  17.050  0.00  0.00    +0.047 A 
ENDBRANCH   1  20
ENDBRANCH   6   1
ENDBRANCH  11   6
TORSDOF 6
ENDMDL
MODEL 6
REMARK VINA RESULT:      -6.3      1.470      2.167
REMARK  Name = 26743391
REMARK  9 active torsions:
REMARK  status: ('A' for Active; 'I' for Inactive)
REMARK    1  A    between atoms: S_1  and  N_6
REMARK    2  A    between atoms: S_1  and  C_20
REMARK    3  A    between atoms: O_5  and  C_26
REMARK    4  A    between atoms: O_5  and  C_29
REMARK    5  A    between atoms: N_6  and  C_11
REMARK    6  A    between atoms: N_7  and  C_19
REMARK    7  A    between atoms: C_9  and  C_12
REMARK    8  A    between atoms: C_15  and  C_17
REMARK    9  A    between atoms: C_16  and  C_18
REMARK                            x       y       z     vdW  Elec       q    Type
REMARK                         _______ _______ _______ _____ _____    ______ ____
ROOT
ATOM      9  C   UNL     1      -4.347  -9.589  10.440  0.00  0.00    +0.047 C 
ATOM     10  C   UNL     1      -5.308 -10.547   9.706  0.00  0.00    +0.037 C 
ATOM     11  C   UNL     1      -6.200  -9.659   8.832  0.00  0.00    +0.100 C 
ATOM     13  C   UNL     1      -5.069  -8.277  10.356  0.00  0.00    -0.021 C 
ATOM     14  C   UNL     1      -6.073  -8.318   9.475  0.00  0.00    -0.010 C 
ENDROOT
BRANCH   9  12
ATOM      7  N   UNL     1      -4.116 -10.694  13.926  0.00  0.00    -0.236 N 
ATOM      8  N   UNL     1      -2.796 -10.635  13.683  0.00  0.00    -0.171 NA
ATOM     12  C   UNL     1      -4.013 -10.037  11.845  0.00  0.00    +0.003 A 
ATOM     15  C   UNL     1      -4.889 -10.346  12.857  0.00  0.00    +0.046 A 
ATOM     16  C   UNL     1      -2.739 -10.233  12.410  0.00  0.00    +0.064 A 
ATOM     17  C   UNL     1      -6.366 -10.339  12.893  0.00  0.00    +0.066 C 
ATOM     18  C   UNL     1      -1.426 -10.047  11.766  0.00  0.00    +0.068 C 
BRANCH   7  19
ATOM     19  C   UNL     1      -4.571 -11.086  15.185  0.00  0.00    +0.066 A 
ATOM     21  C   UNL     1      -4.827 -12.432  15.446  0.00  0.00    +0.031 A 
ATOM     22  C   UNL     1      -4.772 -10.131  16.182  0.00  0.00    +0.031 A 
ATOM     24  C   UNL     1      -5.285 -12.824  16.705  0.00  0.00    +0.048 A 
ATOM     25  C   UNL     1      -5.228 -10.523  17.440  0.00  0.00    +0.048 A 
ATOM     26  C   UNL     1      -5.485 -11.868  17.702  0.00  0.00    +0.120 A 
BRANCH  26   5
ATOM      5  O   UNL     1      -5.931 -12.251  18.930  0.00  0.00    -0.495 OA
ATOM     29  C   UNL     1      -7.307 -12.608  19.037  0.00  0.00    +0.277 C 
ENDBRANCH  26   5
ENDBRANCH   7  19
ENDBRANCH   9  12
BRANCH  11   6
ATOM      6  N   UNL     1      -5.671  -9.586   7.453  0.00  0.00    -0.183 NA
ATOM     30  H   UNL     1      -5.621  -8.639   7.055  0.00  0.00    +0.149 HD
BRANCH   6   1
ATOM      1  S   UNL     1      -5.917 -10.880   6.378  0.00  0.00    +0.065 S 
ATOM      3  O   UNL     1      -6.796 -11.856   6.992  0.00  0.00    -0.153 OA
ATOM      4  O   UNL     1      -4.636 -11.290   5.836  0.00  0.00    -0.153 OA
BRANCH   1  20
ATOM      2  S   UNL     1      -7.217  -8.460   5.356  0.00  0.00    -0.077 S 
ATOM     20  C   UNL     1      -6.805 -10.096   5.065  0.00  0.00    +0.142 A 
ATOM     23  C   UNL     1      -7.246 -10.531   3.835  0.00  0.00    +0.036 A 
ATOM     27  C   UNL     1      -7.931  -9.505   3.120  0.00  0.00    +0.010 A 
ATOM     28  C   UNL     1      -7.987  -8.327   3.832  0.00  0.00    +0.047 A 
ENDBRANCH   1  20
ENDBRANCH   6   1
ENDBRANCH  11   6
TORSDOF 6
ENDMDL
MODEL 7
REMARK VINA RESULT:      -6.1     29.686     32.549
REMARK  Name = 26743391
REMARK  9 active torsions:
REMARK  status: ('A' for Active; 'I' for Inactive)
REMARK    1  A    between atoms: S_1  and  N_6
REMARK    2  A    between atoms: S_1  and  C_20
REMARK    3  A    between atoms: O_5  and  C_26
REMARK    4  A    between atoms: O_5  and  C_29
REMARK    5  A    between atoms: N_6  and  C_11
REMARK    6  A    between atoms: N_7  and  C_19
REMARK    7  A    between atoms: C_9  and  C_12
REMARK    8  A    between atoms: C_15  and  C_17
REMARK    9  A    between atoms: C_16  and  C_18
REMARK                            x       y       z     vdW  Elec       q    Type
REMARK                         _______ _______ _______ _____ _____    ______ ____
ROOT
ATOM      9  C   UNL     1      20.628   5.392  20.607  0.00  0.00    +0.047 C 
ATOM     10  C   UNL     1      21.901   6.238  20.399  0.00  0.00    +0.037 C 
ATOM     11  C   UNL     1      23.042   5.449  21.050  0.00  0.00    +0.100 C 
ATOM     13  C   UNL     1      21.011   4.506  21.757  0.00  0.00    -0.021 C 
ATOM     14  C   UNL     1      22.326   4.537  21.990  0.00  0.00    -0.010 C 
ENDROOT
BRANCH   9  12
ATOM      7  N   UNL     1      17.406   7.133  20.698  0.00  0.00    -0.236 N 
ATOM      8  N   UNL     1      17.948   7.731  21.771  0.00  0.00    -0.171 NA
ATOM     12  C   UNL     1      19.387   6.224  20.837  0.00  0.00    +0.003 A 
ATOM     15  C   UNL     1      18.227   6.221  20.102  0.00  0.00    +0.046 A 
ATOM     16  C   UNL     1      19.158   7.171  21.852  0.00  0.00    +0.064 A 
ATOM     17  C   UNL     1      17.841   5.441  18.908  0.00  0.00    +0.066 C 
ATOM     18  C   UNL     1      20.075   7.580  22.932  0.00  0.00    +0.068 C 
BRANCH   7  19
ATOM     19  C   UNL     1      16.113   7.472  20.295  0.00  0.00    +0.066 A 
ATOM     21  C   UNL     1      15.051   6.607  20.558  0.00  0.00    +0.031 A 
ATOM     22  C   UNL     1      15.885   8.675  19.628  0.00  0.00    +0.031 A 
ATOM     24  C   UNL     1      13.760   6.945  20.153  0.00  0.00    +0.048 A 
ATOM     25  C   UNL     1      14.593   9.014  19.224  0.00  0.00    +0.048 A 
ATOM     26  C   UNL     1      13.531   8.149  19.487  0.00  0.00    +0.120 A 
BRANCH  26   5
ATOM      5  O   UNL     1      12.270   8.478  19.093  0.00  0.00    -0.495 OA
ATOM     29  C   UNL     1      12.043   8.608  17.690  0.00  0.00    +0.277 C 
ENDBRANCH  26   5
ENDBRANCH   7  19
ENDBRANCH   9  12
BRANCH  11   6
ATOM      6  N   UNL     1      23.757   4.638  20.041  0.00  0.00    -0.183 NA
ATOM     30  H   UNL     1      23.153   4.125  19.386  0.00  0.00    +0.149 HD
BRANCH   6   1
ATOM      1  S   UNL     1      25.271   3.959  20.414  0.00  0.00    +0.065 S 
ATOM      3  O   UNL     1      25.238   2.534  20.149  0.00  0.00    -0.153 OA
ATOM      4  O   UNL     1      25.700   4.451  21.709  0.00  0.00    -0.153 OA
BRANCH   1  20
ATOM      2  S   UNL     1      26.294   6.428  19.208  0.00  0.00    -0.077 S 
ATOM     20  C   UNL     1      26.314   4.715  19.203  0.00  0.00    +0.142 A 
ATOM     23  C   UNL     1      27.155   4.210  18.236  0.00  0.00    +0.036 A 
ATOM     27  C   UNL     1      27.793   5.243  17.489  0.00  0.00    +0.010 A 
ATOM     28  C   UNL     1      27.414   6.497  17.914  0.00  0.00    +0.047 A 
ENDBRANCH   1  20
ENDBRANCH   6   1
ENDBRANCH  11   6
TORSDOF 6
ENDMDL
MODEL 8
REMARK VINA RESULT:      -6.1     29.650     32.544
REMARK  Name = 26743391
REMARK  9 active torsions:
REMARK  status: ('A' for Active; 'I' for Inactive)
REMARK    1  A    between atoms: S_1  and  N_6
REMARK    2  A    between atoms: S_1  and  C_20
REMARK    3  A    between atoms: O_5  and  C_26
REMARK    4  A    between atoms: O_5  and  C_29
REMARK    5  A    between atoms: N_6  and  C_11
REMARK    6  A    between atoms: N_7  and  C_19
REMARK    7  A    between atoms: C_9  and  C_12
REMARK    8  A    between atoms: C_15  and  C_17
REMARK    9  A    between atoms: C_16  and  C_18
REMARK                            x       y       z     vdW  Elec       q    Type
REMARK                         _______ _______ _______ _____ _____    ______ ____
ROOT
ATOM      9  C   UNL     1      20.413   7.726  21.737  0.00  0.00    +0.047 C 
ATOM     10  C   UNL     1      20.372   6.716  22.903  0.00  0.00    +0.037 C 
ATOM     11  C   UNL     1      21.217   5.519  22.452  0.00  0.00    +0.100 C 
ATOM     13  C   UNL     1      20.798   6.862  20.572  0.00  0.00    -0.021 C 
ATOM     14  C   UNL     1      21.240   5.664  20.967  0.00  0.00    -0.010 C 
ENDROOT
BRANCH   9  12
ATOM      7  N   UNL     1      17.030   9.043  21.247  0.00  0.00    -0.236 N 
ATOM      8  N   UNL     1      17.649  10.226  21.392  0.00  0.00    -0.171 NA
ATOM     12  C   UNL     1      19.118   8.486  21.558  0.00  0.00    +0.003 A 
ATOM     15  C   UNL     1      17.866   7.968  21.338  0.00  0.00    +0.046 A 
ATOM     16  C   UNL     1      18.924   9.880  21.583  0.00  0.00    +0.064 A 
ATOM     17  C   UNL     1      17.405   6.571  21.212  0.00  0.00    +0.066 C 
ATOM     18  C   UNL     1      19.938  10.931  21.787  0.00  0.00    +0.068 C 
BRANCH   7  19
ATOM     19  C   UNL     1      15.652   9.004  21.025  0.00  0.00    +0.066 A 
ATOM     21  C   UNL     1      14.771   9.002  22.106  0.00  0.00    +0.031 A 
ATOM     22  C   UNL     1      15.158   8.968  19.721  0.00  0.00    +0.031 A 
ATOM     24  C   UNL     1      13.395   8.961  21.883  0.00  0.00    +0.048 A 
ATOM     25  C   UNL     1      13.781   8.928  19.499  0.00  0.00    +0.048 A 
ATOM     26  C   UNL     1      12.900   8.925  20.579  0.00  0.00    +0.120 A 
BRANCH  26   5
ATOM      5  O   UNL     1      11.557   8.886  20.363  0.00  0.00    -0.495 OA
ATOM     29  C   UNL     1      10.826   7.842  21.006  0.00  0.00    +0.277 C 
ENDBRANCH  26   5
ENDBRANCH   7  19
ENDBRANCH   9  12
BRANCH  11   6
ATOM      6  N   UNL     1      22.597   5.632  22.970  0.00  0.00    -0.183 NA
ATOM     30  H   UNL     1      23.210   6.268  22.444  0.00  0.00    +0.149 HD
BRANCH   6   1
ATOM      1  S   UNL     1      23.323   4.307  23.752  0.00  0.00    +0.065 S 
ATOM      3  O   UNL     1      22.295   3.486  24.362  0.00  0.00    -0.153 OA
ATOM      4  O   UNL     1      24.441   4.783  24.543  0.00  0.00    -0.153 OA
BRANCH   1  20
ATOM      2  S   UNL     1      25.614   3.821  21.990  0.00  0.00    -0.077 S 
ATOM     20  C   UNL     1      24.000   3.409  22.389  0.00  0.00    +0.142 A 
ATOM     23  C   UNL     1      23.496   2.430  21.561  0.00  0.00    +0.036 A 
ATOM     27  C   UNL     1      24.448   2.011  20.586  0.00  0.00    +0.010 A 
ATOM     28  C   UNL     1      25.643   2.686  20.707  0.00  0.00    +0.047 A 
ENDBRANCH   1  20
ENDBRANCH   6   1
ENDBRANCH  11   6
TORSDOF 6
ENDMDL
MODEL 9
REMARK VINA RESULT:      -6.0     26.710     29.667
REMARK  Name = 26743391
REMARK  9 active torsions:
REMARK  status: ('A' for Active; 'I' for Inactive)
REMARK    1  A    between atoms: S_1  and  N_6
REMARK    2  A    between atoms: S_1  and  C_20
REMARK    3  A    between atoms: O_5  and  C_26
REMARK    4  A    between atoms: O_5  and  C_29
REMARK    5  A    between atoms: N_6  and  C_11
REMARK    6  A    between atoms: N_7  and  C_19
REMARK    7  A    between atoms: C_9  and  C_12
REMARK    8  A    between atoms: C_15  and  C_17
REMARK    9  A    between atoms: C_16  and  C_18
REMARK                            x       y       z     vdW  Elec       q    Type
REMARK                         _______ _______ _______ _____ _____    ______ ____
ROOT
ATOM      9  C   UNL     1      -5.116  -6.813  39.421  0.00  0.00    +0.047 C 
ATOM     10  C   UNL     1      -5.502  -8.253  39.820  0.00  0.00    +0.037 C 
ATOM     11  C   UNL     1      -6.955  -8.439  39.370  0.00  0.00    +0.100 C 
ATOM     13  C   UNL     1      -6.453  -6.147  39.275  0.00  0.00    -0.021 C 
ATOM     14  C   UNL     1      -7.450  -7.036  39.243  0.00  0.00    -0.010 C 
ENDROOT
BRANCH   9  12
ATOM      7  N   UNL     1      -2.491  -5.150  41.361  0.00  0.00    -0.236 N 
ATOM      8  N   UNL     1      -3.375  -5.288  42.363  0.00  0.00    -0.171 NA
ATOM     12  C   UNL     1      -4.183  -6.148  40.407  0.00  0.00    +0.003 A 
ATOM     15  C   UNL     1      -2.926  -5.650  40.168  0.00  0.00    +0.046 A 
ATOM     16  C   UNL     1      -4.408  -5.897  41.774  0.00  0.00    +0.064 A 
ATOM     17  C   UNL     1      -2.123  -5.607  38.930  0.00  0.00    +0.066 C 
ATOM     18  C   UNL     1      -5.605  -6.225  42.569  0.00  0.00    +0.068 C 
BRANCH   7  19
ATOM     19  C   UNL     1      -1.259  -4.541  41.603  0.00  0.00    +0.066 A 
ATOM     21  C   UNL     1      -0.106  -5.318  41.715  0.00  0.00    +0.031 A 
ATOM     22  C   UNL     1      -1.181  -3.155  41.735  0.00  0.00    +0.031 A 
ATOM     24  C   UNL     1       1.125  -4.709  41.959  0.00  0.00    +0.048 A 
ATOM     25  C   UNL     1       0.050  -2.546  41.978  0.00  0.00    +0.048 A 
ATOM     26  C   UNL     1       1.202  -3.323  42.091  0.00  0.00    +0.120 A 
BRANCH  26   5
ATOM      5  O   UNL     1       2.404  -2.729  42.329  0.00  0.00    -0.495 OA
ATOM     29  C   UNL     1       2.382  -1.366  42.750  0.00  0.00    +0.277 C 
ENDBRANCH  26   5
ENDBRANCH   7  19
ENDBRANCH   9  12
BRANCH  11   6
ATOM      6  N   UNL     1      -7.010  -9.093  38.045  0.00  0.00    -0.183 NA
ATOM     30  H   UNL     1      -7.335  -8.493  37.276  0.00  0.00    +0.149 HD
BRANCH   6   1
ATOM      1  S   UNL     1      -7.329 -10.760  37.933  0.00  0.00    +0.065 S 
ATOM      3  O   UNL     1      -7.248 -11.355  39.252  0.00  0.00    -0.153 OA
ATOM      4  O   UNL     1      -6.560 -11.312  36.834  0.00  0.00    -0.153 OA
BRANCH   1  20
ATOM      2  S   UNL     1      -9.577 -12.266  36.805  0.00  0.00    -0.077 S 
ATOM     20  C   UNL     1      -9.024 -10.771  37.432  0.00  0.00    +0.142 A 
ATOM     23  C   UNL     1     -10.015  -9.814  37.436  0.00  0.00    +0.036 A 
ATOM     27  C   UNL     1     -11.245 -10.315  36.920  0.00  0.00    +0.010 A 
ATOM     28  C   UNL     1     -11.147 -11.635  36.539  0.00  0.00    +0.047 A 
ENDBRANCH   1  20
ENDBRANCH   6   1
ENDBRANCH  11   6
TORSDOF 6
ENDMDL
MODEL 10
REMARK VINA RESULT:      -6.0      3.915      9.485
REMARK  Name = 26743391
REMARK  9 active torsions:
REMARK  status: ('A' for Active; 'I' for Inactive)
REMARK    1  A    between atoms: S_1  and  N_6
REMARK    2  A    between atoms: S_1  and  C_20
REMARK    3  A    between atoms: O_5  and  C_26
REMARK    4  A    between atoms: O_5  and  C_29
REMARK    5  A    between atoms: N_6  and  C_11
REMARK    6  A    between atoms: N_7  and  C_19
REMARK    7  A    between atoms: C_9  and  C_12
REMARK    8  A    between atoms: C_15  and  C_17
REMARK    9  A    between atoms: C_16  and  C_18
REMARK                            x       y       z     vdW  Elec       q    Type
REMARK                         _______ _______ _______ _____ _____    ______ ____
ROOT
ATOM      9  C   UNL     1      -3.226 -11.017  13.246  0.00  0.00    +0.047 C 
ATOM     10  C   UNL     1      -4.414 -10.865  14.220  0.00  0.00    +0.037 C 
ATOM     11  C   UNL     1      -4.429 -12.142  15.066  0.00  0.00    +0.100 C 
ATOM     13  C   UNL     1      -3.002 -12.501  13.237  0.00  0.00    -0.021 C 
ATOM     14  C   UNL     1      -3.654 -13.108  14.232  0.00  0.00    -0.010 C 
ENDROOT
BRANCH   9  12
ATOM      7  N   UNL     1      -4.391  -9.771  10.004  0.00  0.00    -0.236 N 
ATOM      8  N   UNL     1      -3.147  -9.269   9.937  0.00  0.00    -0.171 NA
ATOM     12  C   UNL     1      -3.486 -10.410  11.886  0.00  0.00    +0.003 A 
ATOM     15  C   UNL     1      -4.646 -10.463  11.152  0.00  0.00    +0.046 A 
ATOM     16  C   UNL     1      -2.599  -9.662  11.090  0.00  0.00    +0.064 A 
ATOM     17  C   UNL     1      -5.946 -11.100  11.442  0.00  0.00    +0.066 C 
ATOM     18  C   UNL     1      -1.203  -9.294  11.392  0.00  0.00    +0.068 C 
BRANCH   7  19
ATOM     19  C   UNL     1      -5.281  -9.558   8.950  0.00  0.00    +0.066 A 
ATOM     21  C   UNL     1      -6.324  -8.642   9.092  0.00  0.00    +0.031 A 
ATOM     22  C   UNL     1      -5.128 -10.263   7.756  0.00  0.00    +0.031 A 
ATOM     24  C   UNL     1      -7.215  -8.432   8.039  0.00  0.00    +0.048 A 
ATOM     25  C   UNL     1      -6.019 -10.051   6.703  0.00  0.00    +0.048 A 
ATOM     26  C   UNL     1      -7.062  -9.136   6.845  0.00  0.00    +0.120 A 
BRANCH  26   5
ATOM      5  O   UNL     1      -7.931  -8.929   5.818  0.00  0.00    -0.495 OA
ATOM     29  C   UNL     1      -7.406  -8.327   4.636  0.00  0.00    +0.277 C 
ENDBRANCH  26   5
ENDBRANCH   7  19
ENDBRANCH   9  12
BRANCH  11   6
ATOM      6  N   UNL     1      -3.718 -11.929  16.345  0.00  0.00    -0.183 NA
ATOM     30  H   UNL     1      -2.699 -12.053  16.303  0.00  0.00    +0.149 HD
BRANCH   6   1
ATOM      1  S   UNL     1      -4.494 -12.276  17.818  0.00  0.00    +0.065 S 
ATOM      3  O   UNL     1      -3.716 -11.731  18.912  0.00  0.00    -0.153 OA
ATOM      4  O   UNL     1      -4.885 -13.673  17.825  0.00  0.00    -0.153 OA
BRANCH   1  20
ATOM      2  S   UNL     1      -7.425 -12.242  17.746  0.00  0.00    -0.077 S 
ATOM     20  C   UNL     1      -5.979 -11.327  17.677  0.00  0.00    +0.142 A 
ATOM     23  C   UNL     1      -6.226  -9.980  17.519  0.00  0.00    +0.036 A 
ATOM     27  C   UNL     1      -7.621  -9.696  17.455  0.00  0.00    +0.010 A 
ATOM     28  C   UNL     1      -8.386 -10.836  17.566  0.00  0.00    +0.047 A 
ENDBRANCH   1  20
ENDBRANCH   6   1
ENDBRANCH  11   6
TORSDOF 6
ENDMDL
