MODEL 1
REMARK VINA RESULT:      -7.3      0.000      0.000
REMARK  Name = 28960039
REMARK  7 active torsions:
REMARK  status: ('A' for Active; 'I' for Inactive)
REMARK    1  A    between atoms: O_2  and  C_25
REMARK    2  A    between atoms: N_5  and  C_16
REMARK    3  A    between atoms: C_8  and  C_12
REMARK    4  A    between atoms: C_9  and  C_15
REMARK    5  A    between atoms: C_12  and  C_16
REMARK    6  A    between atoms: C_14  and  C_17
REMARK    7  A    between atoms: C_15  and  C_25
REMARK                            x       y       z     vdW  Elec       q    Type
REMARK                         _______ _______ _______ _____ _____    ______ ____
ROOT
ATOM      1  O   UNL     1      -1.488  -9.935  12.316  0.00  0.00    -0.275 OA
ATOM      4  N   UNL     1      -2.778 -11.254  13.728  0.00  0.00    -0.301 N 
ATOM      8  C   UNL     1      -4.655 -11.552  15.329  0.00  0.00    +0.011 C 
ATOM      9  C   UNL     1      -3.618 -11.578  16.481  0.00  0.00    +0.006 C 
ATOM     10  C   UNL     1      -3.993 -12.024  14.021  0.00  0.00    +0.111 C 
ATOM     11  C   UNL     1      -2.342 -10.804  16.112  0.00  0.00    +0.023 C 
ATOM     13  C   UNL     1      -1.766 -11.285  14.784  0.00  0.00    +0.108 C 
ATOM     17  C   UNL     1      -2.530 -10.553  12.549  0.00  0.00    +0.219 C 
ENDROOT
BRANCH  17  14
ATOM     14  C   UNL     1      -3.618 -10.567  11.518  0.00  0.00    +0.075 C 
ATOM     18  C   UNL     1      -3.552  -9.293  10.674  0.00  0.00    +0.013 C 
ATOM     19  C   UNL     1      -3.477 -11.821  10.653  0.00  0.00    +0.013 C 
ATOM     20  C   UNL     1      -4.578  -9.317   9.544  0.00  0.00    +0.001 C 
ATOM     21  C   UNL     1      -4.501 -11.840   9.522  0.00  0.00    +0.001 C 
ATOM     22  C   UNL     1      -4.437 -10.568   8.682  0.00  0.00    +0.000 C 
ENDBRANCH  17  14
BRANCH   8  12
ATOM     12  C   UNL     1      -5.326 -10.188  15.125  0.00  0.00    +0.020 C 
BRANCH  12  16
ATOM     16  C   UNL     1      -6.564 -10.318  14.249  0.00  0.00    +0.085 C 
BRANCH  16   5
ATOM      5  N   UNL     1      -7.740  -9.848  14.981  0.00  0.00    -0.299 NA
ATOM      6  N   UNL     1      -9.763  -9.935  16.995  0.00  0.00    -0.313 N 
ATOM      7  N   UNL     1     -12.052  -9.576  17.481  0.00  0.00    -0.240 NA
ATOM     23  C   UNL     1      -7.401  -9.589  16.386  0.00  0.00    +0.103 C 
ATOM     24  C   UNL     1      -8.824 -10.835  14.902  0.00  0.00    +0.103 C 
ATOM     26  C   UNL     1      -8.610  -9.044  17.151  0.00  0.00    +0.122 C 
ATOM     27  C   UNL     1     -10.079 -10.331  15.617  0.00  0.00    +0.122 C 
ATOM     28  C   UNL     1     -10.811  -9.883  17.921  0.00  0.00    +0.121 A 
ATOM     29  C   UNL     1     -10.503 -10.151  19.245  0.00  0.00    +0.043 A 
ATOM     30  C   UNL     1     -11.534 -10.102  20.177  0.00  0.00    +0.005 A 
ATOM     31  C   UNL     1     -13.029  -9.538  18.414  0.00  0.00    +0.113 A 
ATOM     32  C   UNL     1     -12.824  -9.791  19.762  0.00  0.00    +0.020 A 
ENDBRANCH  16   5
ENDBRANCH  12  16
ENDBRANCH   8  12
BRANCH   9  15
ATOM     15  C   UNL     1      -4.186 -11.080  17.811  0.00  0.00    +0.124 C 
BRANCH  15  25
ATOM      3  O   UNL     1      -3.370 -12.168  19.834  0.00  0.00    -0.251 OA
ATOM     25  C   UNL     1      -4.124 -12.143  18.873  0.00  0.00    +0.305 C 
BRANCH  25   2
ATOM      2  O   UNL     1      -5.050 -13.102  18.615  0.00  0.00    -0.481 OA
ATOM     33  H   UNL     1      -4.635 -13.974  18.447  0.00  0.00    +0.295 HD
ENDBRANCH  25   2
ENDBRANCH  15  25
ENDBRANCH   9  15
TORSDOF 7
ENDMDL
MODEL 2
REMARK VINA RESULT:      -7.1     28.515     31.336
REMARK  Name = 28960039
REMARK  7 active torsions:
REMARK  status: ('A' for Active; 'I' for Inactive)
REMARK    1  A    between atoms: O_2  and  C_25
REMARK    2  A    between atoms: N_5  and  C_16
REMARK    3  A    between atoms: C_8  and  C_12
REMARK    4  A    between atoms: C_9  and  C_15
REMARK    5  A    between atoms: C_12  and  C_16
REMARK    6  A    between atoms: C_14  and  C_17
REMARK    7  A    between atoms: C_15  and  C_25
REMARK                            x       y       z     vdW  Elec       q    Type
REMARK                         _______ _______ _______ _____ _____    ______ ____
ROOT
ATOM      1  O   UNL     1      21.593   9.751  23.256  0.00  0.00    -0.275 OA
ATOM      4  N   UNL     1      21.898   8.067  21.685  0.00  0.00    -0.301 N 
ATOM      8  C   UNL     1      21.131   6.024  20.496  0.00  0.00    +0.011 C 
ATOM      9  C   UNL     1      22.108   5.196  21.368  0.00  0.00    +0.006 C 
ATOM     10  C   UNL     1      21.644   7.471  20.368  0.00  0.00    +0.111 C 
ATOM     11  C   UNL     1      22.386   5.882  22.716  0.00  0.00    +0.023 C 
ATOM     13  C   UNL     1      22.842   7.325  22.520  0.00  0.00    +0.108 C 
ATOM     17  C   UNL     1      21.342   9.257  22.154  0.00  0.00    +0.219 C 
ENDROOT
BRANCH  17  14
ATOM     14  C   UNL     1      20.383   9.956  21.240  0.00  0.00    +0.075 C 
ATOM     18  C   UNL     1      18.945   9.666  21.675  0.00  0.00    +0.013 C 
ATOM     19  C   UNL     1      20.679  11.456  21.248  0.00  0.00    +0.013 C 
ATOM     20  C   UNL     1      17.938  10.443  20.832  0.00  0.00    +0.001 C 
ATOM     21  C   UNL     1      19.669  12.232  20.408  0.00  0.00    +0.001 C 
ATOM     22  C   UNL     1      18.235  11.940  20.840  0.00  0.00    +0.000 C 
ENDBRANCH  17  14
BRANCH   8  12
ATOM     12  C   UNL     1      19.683   6.015  21.003  0.00  0.00    +0.020 C 
BRANCH  12  16
ATOM     16  C   UNL     1      18.721   5.629  19.889  0.00  0.00    +0.085 C 
BRANCH  16   5
ATOM      5  N   UNL     1      17.537   6.487  19.937  0.00  0.00    -0.299 NA
ATOM      6  N   UNL     1      14.763   7.085  20.257  0.00  0.00    -0.313 N 
ATOM      7  N   UNL     1      12.933   8.355  19.453  0.00  0.00    -0.240 NA
ATOM     23  C   UNL     1      16.912   6.427  21.265  0.00  0.00    +0.103 C 
ATOM     24  C   UNL     1      16.568   6.085  18.910  0.00  0.00    +0.103 C 
ATOM     26  C   UNL     1      15.704   7.363  21.345  0.00  0.00    +0.122 C 
ATOM     27  C   UNL     1      15.349   7.010  18.913  0.00  0.00    +0.122 C 
ATOM     28  C   UNL     1      13.429   7.494  20.370  0.00  0.00    +0.121 A 
ATOM     29  C   UNL     1      12.697   6.984  21.430  0.00  0.00    +0.043 A 
ATOM     30  C   UNL     1      11.371   7.383  21.557  0.00  0.00    +0.005 A 
ATOM     31  C   UNL     1      11.641   8.719  19.607  0.00  0.00    +0.113 A 
ATOM     32  C   UNL     1      10.825   8.266  20.632  0.00  0.00    +0.020 A 
ENDBRANCH  16   5
ENDBRANCH  12  16
ENDBRANCH   8  12
BRANCH   9  15
ATOM     15  C   UNL     1      21.647   3.753  21.582  0.00  0.00    +0.124 C 
BRANCH  15  25
ATOM      3  O   UNL     1      23.549   2.490  22.437  0.00  0.00    -0.251 OA
ATOM     25  C   UNL     1      22.799   2.788  21.520  0.00  0.00    +0.305 C 
BRANCH  25   2
ATOM      2  O   UNL     1      22.896   2.272  20.268  0.00  0.00    -0.481 OA
ATOM     33  H   UNL     1      22.455   1.399  20.197  0.00  0.00    +0.295 HD
ENDBRANCH  25   2
ENDBRANCH  15  25
ENDBRANCH   9  15
TORSDOF 7
ENDMDL
MODEL 3
REMARK VINA RESULT:      -6.6     25.501     30.066
REMARK  Name = 28960039
REMARK  7 active torsions:
REMARK  status: ('A' for Active; 'I' for Inactive)
REMARK    1  A    between atoms: O_2  and  C_25
REMARK    2  A    between atoms: N_5  and  C_16
REMARK    3  A    between atoms: C_8  and  C_12
REMARK    4  A    between atoms: C_9  and  C_15
REMARK    5  A    between atoms: C_12  and  C_16
REMARK    6  A    between atoms: C_14  and  C_17
REMARK    7  A    between atoms: C_15  and  C_25
REMARK                            x       y       z     vdW  Elec       q    Type
REMARK                         _______ _______ _______ _____ _____    ______ ____
ROOT
ATOM      1  O   UNL     1      12.830   2.556   1.716  0.00  0.00    -0.275 OA
ATOM      4  N   UNL     1      11.628   4.529   1.959  0.00  0.00    -0.301 N 
ATOM      8  C   UNL     1      11.332   6.801   2.919  0.00  0.00    +0.011 C 
ATOM      9  C   UNL     1      10.289   6.209   3.901  0.00  0.00    +0.006 C 
ATOM     10  C   UNL     1      11.392   5.943   1.642  0.00  0.00    +0.111 C 
ATOM     11  C   UNL     1      10.543   4.716   4.164  0.00  0.00    +0.023 C 
ATOM     13  C   UNL     1      10.642   3.932   2.859  0.00  0.00    +0.108 C 
ATOM     17  C   UNL     1      12.669   3.750   1.454  0.00  0.00    +0.219 C 
ENDROOT
BRANCH  17  14
ATOM     14  C   UNL     1      13.639   4.437   0.541  0.00  0.00    +0.075 C 
ATOM     18  C   UNL     1      15.039   4.414   1.156  0.00  0.00    +0.013 C 
ATOM     19  C   UNL     1      13.616   3.752  -0.826  0.00  0.00    +0.013 C 
ATOM     20  C   UNL     1      16.077   5.012   0.210  0.00  0.00    +0.001 C 
ATOM     21  C   UNL     1      14.656   4.348  -1.770  0.00  0.00    +0.001 C 
ATOM     22  C   UNL     1      16.053   4.328  -1.154  0.00  0.00    +0.000 C 
ENDBRANCH  17  14
BRANCH   8  12
ATOM     12  C   UNL     1      12.734   6.962   3.520  0.00  0.00    +0.020 C 
BRANCH  12  16
ATOM     16  C   UNL     1      13.666   7.663   2.543  0.00  0.00    +0.085 C 
BRANCH  16   5
ATOM      5  N   UNL     1      14.827   8.192   3.259  0.00  0.00    -0.299 NA
ATOM      6  N   UNL     1      17.396   8.080   4.501  0.00  0.00    -0.313 N 
ATOM      7  N   UNL     1      18.710   8.793   6.337  0.00  0.00    -0.240 NA
ATOM     23  C   UNL     1      16.041   8.052   2.445  0.00  0.00    +0.103 C 
ATOM     24  C   UNL     1      15.002   7.497   4.540  0.00  0.00    +0.103 C 
ATOM     26  C   UNL     1      17.254   8.652   3.159  0.00  0.00    +0.122 C 
ATOM     27  C   UNL     1      16.181   8.080   5.324  0.00  0.00    +0.122 C 
ATOM     28  C   UNL     1      18.632   8.142   5.155  0.00  0.00    +0.121 A 
ATOM     29  C   UNL     1      19.708   7.524   4.537  0.00  0.00    +0.043 A 
ATOM     30  C   UNL     1      20.943   7.578   5.174  0.00  0.00    +0.005 A 
ATOM     31  C   UNL     1      19.926   8.824   6.928  0.00  0.00    +0.113 A 
ATOM     32  C   UNL     1      21.062   8.238   6.392  0.00  0.00    +0.020 A 
ENDBRANCH  16   5
ENDBRANCH  12  16
ENDBRANCH   8  12
BRANCH   9  15
ATOM     15  C   UNL     1      10.199   6.982   5.218  0.00  0.00    +0.124 C 
BRANCH  15  25
ATOM      3  O   UNL     1       9.308   5.691   7.084  0.00  0.00    -0.251 OA
ATOM     25  C   UNL     1       9.134   6.419   6.119  0.00  0.00    +0.305 C 
BRANCH  25   2
ATOM      2  O   UNL     1       7.913   6.844   5.705  0.00  0.00    -0.481 OA
ATOM     33  H   UNL     1       7.895   7.812   5.552  0.00  0.00    +0.295 HD
ENDBRANCH  25   2
ENDBRANCH  15  25
ENDBRANCH   9  15
TORSDOF 7
ENDMDL
MODEL 4
REMARK VINA RESULT:      -6.4      3.284      7.383
REMARK  Name = 28960039
REMARK  7 active torsions:
REMARK  status: ('A' for Active; 'I' for Inactive)
REMARK    1  A    between atoms: O_2  and  C_25
REMARK    2  A    between atoms: N_5  and  C_16
REMARK    3  A    between atoms: C_8  and  C_12
REMARK    4  A    between atoms: C_9  and  C_15
REMARK    5  A    between atoms: C_12  and  C_16
REMARK    6  A    between atoms: C_14  and  C_17
REMARK    7  A    between atoms: C_15  and  C_25
REMARK                            x       y       z     vdW  Elec       q    Type
REMARK                         _______ _______ _______ _____ _____    ______ ____
ROOT
ATOM      1  O   UNL     1      -9.110 -11.403  17.341  0.00  0.00    -0.275 OA
ATOM      4  N   UNL     1      -6.975 -10.558  16.994  0.00  0.00    -0.301 N 
ATOM      8  C   UNL     1      -4.983 -10.177  15.558  0.00  0.00    +0.011 C 
ATOM      9  C   UNL     1      -4.258 -11.310  16.327  0.00  0.00    +0.006 C 
ATOM     10  C   UNL     1      -6.060  -9.542  16.456  0.00  0.00    +0.111 C 
ATOM     11  C   UNL     1      -5.254 -12.322  16.916  0.00  0.00    +0.023 C 
ATOM     13  C   UNL     1      -6.323 -11.625  17.753  0.00  0.00    +0.108 C 
ATOM     17  C   UNL     1      -8.362 -10.551  16.856  0.00  0.00    +0.219 C 
ENDROOT
BRANCH  17  14
ATOM     14  C   UNL     1      -8.952  -9.425  16.062  0.00  0.00    +0.075 C 
ATOM     18  C   UNL     1      -9.965  -9.974  15.057  0.00  0.00    +0.013 C 
ATOM     19  C   UNL     1      -9.595  -8.418  17.015  0.00  0.00    +0.013 C 
ATOM     20  C   UNL     1     -10.666  -8.849  14.298  0.00  0.00    +0.001 C 
ATOM     21  C   UNL     1     -10.299  -7.297  16.256  0.00  0.00    +0.001 C 
ATOM     22  C   UNL     1     -11.308  -7.844  15.251  0.00  0.00    +0.000 C 
ENDBRANCH  17  14
BRANCH   8  12
ATOM     12  C   UNL     1      -5.596 -10.622  14.224  0.00  0.00    +0.020 C 
BRANCH  12  16
ATOM     16  C   UNL     1      -4.960  -9.876  13.059  0.00  0.00    +0.085 C 
BRANCH  16   5
ATOM      5  N   UNL     1      -5.882  -9.850  11.924  0.00  0.00    -0.299 NA
ATOM      6  N   UNL     1      -7.656  -8.650  10.034  0.00  0.00    -0.313 N 
ATOM      7  N   UNL     1      -9.695  -8.877   8.852  0.00  0.00    -0.240 NA
ATOM     23  C   UNL     1      -5.359  -8.990  10.856  0.00  0.00    +0.103 C 
ATOM     24  C   UNL     1      -7.205  -9.372  12.347  0.00  0.00    +0.103 C 
ATOM     26  C   UNL     1      -6.288  -8.998   9.639  0.00  0.00    +0.122 C 
ATOM     27  C   UNL     1      -8.195  -9.393  11.180  0.00  0.00    +0.122 C 
ATOM     28  C   UNL     1      -8.558  -8.180   9.073  0.00  0.00    +0.121 A 
ATOM     29  C   UNL     1      -8.220  -7.016   8.402  0.00  0.00    +0.043 A 
ATOM     30  C   UNL     1      -9.106  -6.536   7.443  0.00  0.00    +0.005 A 
ATOM     31  C   UNL     1     -10.532  -8.381   7.915  0.00  0.00    +0.113 A 
ATOM     32  C   UNL     1     -10.286  -7.226   7.189  0.00  0.00    +0.020 A 
ENDBRANCH  16   5
ENDBRANCH  12  16
ENDBRANCH   8  12
BRANCH   9  15
ATOM     15  C   UNL     1      -3.198 -12.023  15.486  0.00  0.00    +0.124 C 
BRANCH  15  25
ATOM      3  O   UNL     1      -1.662 -10.603  14.235  0.00  0.00    -0.251 OA
ATOM     25  C   UNL     1      -1.985 -11.160  15.274  0.00  0.00    +0.305 C 
BRANCH  25   2
ATOM      2  O   UNL     1      -1.275 -11.076  16.427  0.00  0.00    -0.481 OA
ATOM     33  H   UNL     1      -0.348 -11.374  16.308  0.00  0.00    +0.295 HD
ENDBRANCH  25   2
ENDBRANCH  15  25
ENDBRANCH   9  15
TORSDOF 7
ENDMDL
MODEL 5
REMARK VINA RESULT:      -6.3      2.848      3.903
REMARK  Name = 28960039
REMARK  7 active torsions:
REMARK  status: ('A' for Active; 'I' for Inactive)
REMARK    1  A    between atoms: O_2  and  C_25
REMARK    2  A    between atoms: N_5  and  C_16
REMARK    3  A    between atoms: C_8  and  C_12
REMARK    4  A    between atoms: C_9  and  C_15
REMARK    5  A    between atoms: C_12  and  C_16
REMARK    6  A    between atoms: C_14  and  C_17
REMARK    7  A    between atoms: C_15  and  C_25
REMARK                            x       y       z     vdW  Elec       q    Type
REMARK                         _______ _______ _______ _____ _____    ______ ____
ROOT
ATOM      1  O   UNL     1      -2.265 -10.815  16.373  0.00  0.00    -0.275 OA
ATOM      4  N   UNL     1      -4.331 -11.743  16.885  0.00  0.00    -0.301 N 
ATOM      8  C   UNL     1      -6.815 -11.661  16.918  0.00  0.00    +0.011 C 
ATOM      9  C   UNL     1      -6.746 -11.328  18.430  0.00  0.00    +0.006 C 
ATOM     10  C   UNL     1      -5.560 -12.449  16.500  0.00  0.00    +0.111 C 
ATOM     11  C   UNL     1      -5.424 -10.637  18.799  0.00  0.00    +0.023 C 
ATOM     13  C   UNL     1      -4.222 -11.443  18.313  0.00  0.00    +0.108 C 
ATOM     17  C   UNL     1      -3.300 -11.385  16.019  0.00  0.00    +0.219 C 
ENDROOT
BRANCH  17  14
ATOM     14  C   UNL     1      -3.489 -11.725  14.572  0.00  0.00    +0.075 C 
ATOM     18  C   UNL     1      -3.960 -10.489  13.804  0.00  0.00    +0.013 C 
ATOM     19  C   UNL     1      -2.178 -12.272  14.006  0.00  0.00    +0.013 C 
ATOM     20  C   UNL     1      -4.065 -10.766  12.307  0.00  0.00    +0.001 C 
ATOM     21  C   UNL     1      -2.284 -12.545  12.508  0.00  0.00    +0.001 C 
ATOM     22  C   UNL     1      -2.756 -11.312  11.743  0.00  0.00    +0.000 C 
ENDBRANCH  17  14
BRANCH   8  12
ATOM     12  C   UNL     1      -6.998 -10.433  16.018  0.00  0.00    +0.020 C 
BRANCH  12  16
ATOM     16  C   UNL     1      -7.731 -10.804  14.736  0.00  0.00    +0.085 C 
BRANCH  16   5
ATOM      5  N   UNL     1      -8.764  -9.809  14.450  0.00  0.00    -0.299 NA
ATOM      6  N   UNL     1     -11.318  -8.556  14.706  0.00  0.00    -0.313 N 
ATOM      7  N   UNL     1     -13.102  -7.507  13.556  0.00  0.00    -0.240 NA
ATOM     23  C   UNL     1      -9.105  -9.058  15.665  0.00  0.00    +0.103 C 
ATOM     24  C   UNL     1      -9.966 -10.456  13.909  0.00  0.00    +0.103 C 
ATOM     26  C   UNL     1     -10.146  -7.976  15.368  0.00  0.00    +0.122 C 
ATOM     27  C   UNL     1     -11.034  -9.419  13.553  0.00  0.00    +0.122 C 
ATOM     28  C   UNL     1     -12.538  -7.872  14.730  0.00  0.00    +0.121 A 
ATOM     29  C   UNL     1     -13.094  -7.609  15.972  0.00  0.00    +0.043 A 
ATOM     30  C   UNL     1     -14.306  -6.929  16.012  0.00  0.00    +0.005 A 
ATOM     31  C   UNL     1     -14.280  -6.848  13.634  0.00  0.00    +0.113 A 
ATOM     32  C   UNL     1     -14.917  -6.538  14.825  0.00  0.00    +0.020 A 
ENDBRANCH  16   5
ENDBRANCH  12  16
ENDBRANCH   8  12
BRANCH   9  15
ATOM     15  C   UNL     1      -7.939 -10.506  18.919  0.00  0.00    +0.124 C 
BRANCH  15  25
ATOM      3  O   UNL     1      -8.979 -12.570  19.694  0.00  0.00    -0.251 OA
ATOM     25  C   UNL     1      -8.916 -11.350  19.691  0.00  0.00    +0.305 C 
BRANCH  25   2
ATOM      2  O   UNL     1      -9.744 -10.549  20.410  0.00  0.00    -0.481 OA
ATOM     33  H   UNL     1     -10.581 -10.368  19.933  0.00  0.00    +0.295 HD
ENDBRANCH  25   2
ENDBRANCH  15  25
ENDBRANCH   9  15
TORSDOF 7
ENDMDL
MODEL 6
REMARK VINA RESULT:      -6.2     20.978     23.275
REMARK  Name = 28960039
REMARK  7 active torsions:
REMARK  status: ('A' for Active; 'I' for Inactive)
REMARK    1  A    between atoms: O_2  and  C_25
REMARK    2  A    between atoms: N_5  and  C_16
REMARK    3  A    between atoms: C_8  and  C_12
REMARK    4  A    between atoms: C_9  and  C_15
REMARK    5  A    between atoms: C_12  and  C_16
REMARK    6  A    between atoms: C_14  and  C_17
REMARK    7  A    between atoms: C_15  and  C_25
REMARK                            x       y       z     vdW  Elec       q    Type
REMARK                         _______ _______ _______ _____ _____    ______ ____
ROOT
ATOM      1  O   UNL     1      -9.754   9.343  17.535  0.00  0.00    -0.275 OA
ATOM      4  N   UNL     1     -11.803   8.607  18.346  0.00  0.00    -0.301 N 
ATOM      8  C   UNL     1     -13.537   8.498  20.123  0.00  0.00    +0.011 C 
ATOM      9  C   UNL     1     -13.046   7.067  20.460  0.00  0.00    +0.006 C 
ATOM     10  C   UNL     1     -13.223   8.823  18.651  0.00  0.00    +0.111 C 
ATOM     11  C   UNL     1     -11.571   6.869  20.078  0.00  0.00    +0.023 C 
ATOM     13  C   UNL     1     -11.318   7.255  18.624  0.00  0.00    +0.108 C 
ATOM     17  C   UNL     1     -10.938   9.559  17.807  0.00  0.00    +0.219 C 
ENDROOT
BRANCH  17  14
ATOM     14  C   UNL     1     -11.511  10.920  17.553  0.00  0.00    +0.075 C 
ATOM     18  C   UNL     1     -11.131  11.865  18.694  0.00  0.00    +0.013 C 
ATOM     19  C   UNL     1     -11.008  11.437  16.205  0.00  0.00    +0.013 C 
ATOM     20  C   UNL     1     -11.608  13.289  18.424  0.00  0.00    +0.001 C 
ATOM     21  C   UNL     1     -11.482  12.862  15.938  0.00  0.00    +0.001 C 
ATOM     22  C   UNL     1     -11.106  13.804  17.078  0.00  0.00    +0.000 C 
ENDBRANCH  17  14
BRANCH   8  12
ATOM     12  C   UNL     1     -12.966   9.585  21.042  0.00  0.00    +0.020 C 
BRANCH  12  16
ATOM     16  C   UNL     1     -14.063  10.533  21.507  0.00  0.00    +0.085 C 
BRANCH  16   5
ATOM      5  N   UNL     1     -13.890  10.833  22.927  0.00  0.00    -0.299 NA
ATOM      6  N   UNL     1     -12.913  12.285  25.185  0.00  0.00    -0.313 N 
ATOM      7  N   UNL     1     -12.023  12.127  27.373  0.00  0.00    -0.240 NA
ATOM     23  C   UNL     1     -14.420  12.166  23.240  0.00  0.00    +0.103 C 
ATOM     24  C   UNL     1     -12.471  10.760  23.300  0.00  0.00    +0.103 C 
ATOM     26  C   UNL     1     -14.295  12.471  24.735  0.00  0.00    +0.122 C 
ATOM     27  C   UNL     1     -12.282  11.017  24.797  0.00  0.00    +0.122 C 
ATOM     28  C   UNL     1     -12.477  12.902  26.363  0.00  0.00    +0.121 A 
ATOM     29  C   UNL     1     -12.543  14.285  26.416  0.00  0.00    +0.043 A 
ATOM     30  C   UNL     1     -12.115  14.913  27.582  0.00  0.00    +0.005 A 
ATOM     31  C   UNL     1     -11.614  12.771  28.489  0.00  0.00    +0.113 A 
ATOM     32  C   UNL     1     -11.640  14.148  28.642  0.00  0.00    +0.020 A 
ENDBRANCH  16   5
ENDBRANCH  12  16
ENDBRANCH   8  12
BRANCH   9  15
ATOM     15  C   UNL     1     -13.282   6.680  21.921  0.00  0.00    +0.124 C 
BRANCH  15  25
ATOM      3  O   UNL     1     -14.488   4.566  21.771  0.00  0.00    -0.251 OA
ATOM     25  C   UNL     1     -13.488   5.199  22.077  0.00  0.00    +0.305 C 
BRANCH  25   2
ATOM      2  O   UNL     1     -12.376   4.637  22.618  0.00  0.00    -0.481 OA
ATOM     33  H   UNL     1     -12.595   3.870  23.189  0.00  0.00    +0.295 HD
ENDBRANCH  25   2
ENDBRANCH  15  25
ENDBRANCH   9  15
TORSDOF 7
ENDMDL
MODEL 7
REMARK VINA RESULT:      -6.2     24.211     28.469
REMARK  Name = 28960039
REMARK  7 active torsions:
REMARK  status: ('A' for Active; 'I' for Inactive)
REMARK    1  A    between atoms: O_2  and  C_25
REMARK    2  A    between atoms: N_5  and  C_16
REMARK    3  A    between atoms: C_8  and  C_12
REMARK    4  A    between atoms: C_9  and  C_15
REMARK    5  A    between atoms: C_12  and  C_16
REMARK    6  A    between atoms: C_14  and  C_17
REMARK    7  A    between atoms: C_15  and  C_25
REMARK                            x       y       z     vdW  Elec       q    Type
REMARK                         _______ _______ _______ _____ _____    ______ ____
ROOT
ATOM      1  O   UNL     1       7.750   8.843   2.321  0.00  0.00    -0.275 OA
ATOM      4  N   UNL     1       9.064   8.316   4.162  0.00  0.00    -0.301 N 
ATOM      8  C   UNL     1      10.674   6.838   5.346  0.00  0.00    +0.011 C 
ATOM      9  C   UNL     1       9.499   6.313   6.209  0.00  0.00    +0.006 C 
ATOM     10  C   UNL     1      10.361   8.261   4.849  0.00  0.00    +0.111 C 
ATOM     11  C   UNL     1       8.156   6.435   5.472  0.00  0.00    +0.023 C 
ATOM     13  C   UNL     1       7.930   7.856   4.963  0.00  0.00    +0.108 C 
ATOM     17  C   UNL     1       8.855   8.783   2.866  0.00  0.00    +0.219 C 
ENDROOT
BRANCH  17  14
ATOM     14  C   UNL     1      10.069   9.233   2.111  0.00  0.00    +0.075 C 
ATOM     18  C   UNL     1      10.075   8.607   0.715  0.00  0.00    +0.013 C 
ATOM     19  C   UNL     1      10.082  10.761   2.040  0.00  0.00    +0.013 C 
ATOM     20  C   UNL     1      11.241   9.122  -0.124  0.00  0.00    +0.001 C 
ATOM     21  C   UNL     1      11.246  11.274   1.197  0.00  0.00    +0.001 C 
ATOM     22  C   UNL     1      11.254  10.646  -0.194  0.00  0.00    +0.000 C 
ENDBRANCH  17  14
BRANCH   8  12
ATOM     12  C   UNL     1      11.034   5.928   4.164  0.00  0.00    +0.020 C 
BRANCH  12  16
ATOM     16  C   UNL     1      12.291   6.423   3.462  0.00  0.00    +0.085 C 
BRANCH  16   5
ATOM      5  N   UNL     1      12.167   6.214   2.020  0.00  0.00    -0.299 NA
ATOM      6  N   UNL     1      12.409   4.776  -0.436  0.00  0.00    -0.313 N 
ATOM      7  N   UNL     1      12.966   4.913  -2.733  0.00  0.00    -0.240 NA
ATOM     23  C   UNL     1      11.290   5.071   1.739  0.00  0.00    +0.103 C 
ATOM     24  C   UNL     1      13.488   5.991   1.417  0.00  0.00    +0.103 C 
ATOM     26  C   UNL     1      11.108   4.875   0.231  0.00  0.00    +0.122 C 
ATOM     27  C   UNL     1      13.378   5.826  -0.100  0.00  0.00    +0.122 C 
ATOM     28  C   UNL     1      12.498   4.179  -1.698  0.00  0.00    +0.121 A 
ATOM     29  C   UNL     1      12.093   2.858  -1.805  0.00  0.00    +0.043 A 
ATOM     30  C   UNL     1      12.175   2.251  -3.054  0.00  0.00    +0.005 A 
ATOM     31  C   UNL     1      13.032   4.290  -3.931  0.00  0.00    +0.113 A 
ATOM     32  C   UNL     1      12.652   2.974  -4.142  0.00  0.00    +0.020 A 
ENDBRANCH  16   5
ENDBRANCH  12  16
ENDBRANCH   8  12
BRANCH   9  15
ATOM     15  C   UNL     1       9.713   4.883   6.708  0.00  0.00    +0.124 C 
BRANCH  15  25
ATOM      3  O   UNL     1       9.146   5.561   8.980  0.00  0.00    -0.251 OA
ATOM     25  C   UNL     1       9.734   4.816   8.210  0.00  0.00    +0.305 C 
BRANCH  25   2
ATOM      2  O   UNL     1      10.518   3.783   8.611  0.00  0.00    -0.481 OA
ATOM     33  H   UNL     1      11.365   4.094   8.995  0.00  0.00    +0.295 HD
ENDBRANCH  25   2
ENDBRANCH  15  25
ENDBRANCH   9  15
TORSDOF 7
ENDMDL
MODEL 8
REMARK VINA RESULT:      -6.1     22.586     26.772
REMARK  Name = 28960039
REMARK  7 active torsions:
REMARK  status: ('A' for Active; 'I' for Inactive)
REMARK    1  A    between atoms: O_2  and  C_25
REMARK    2  A    between atoms: N_5  and  C_16
REMARK    3  A    between atoms: C_8  and  C_12
REMARK    4  A    between atoms: C_9  and  C_15
REMARK    5  A    between atoms: C_12  and  C_16
REMARK    6  A    between atoms: C_14  and  C_17
REMARK    7  A    between atoms: C_15  and  C_25
REMARK                            x       y       z     vdW  Elec       q    Type
REMARK                         _______ _______ _______ _____ _____    ______ ____
ROOT
ATOM      1  O   UNL     1       6.614  -8.136  35.300  0.00  0.00    -0.275 OA
ATOM      4  N   UNL     1       7.745  -6.141  34.932  0.00  0.00    -0.301 N 
ATOM      8  C   UNL     1       9.843  -4.840  34.645  0.00  0.00    +0.011 C 
ATOM      9  C   UNL     1       9.669  -4.313  36.092  0.00  0.00    +0.006 C 
ATOM     10  C   UNL     1       8.469  -5.211  34.056  0.00  0.00    +0.111 C 
ATOM     11  C   UNL     1       8.863  -5.292  36.959  0.00  0.00    +0.023 C 
ATOM     13  C   UNL     1       7.537  -5.657  36.297  0.00  0.00    +0.108 C 
ATOM     17  C   UNL     1       7.243  -7.385  34.551  0.00  0.00    +0.219 C 
ENDROOT
BRANCH  17  14
ATOM     14  C   UNL     1       7.501  -7.808  33.137  0.00  0.00    +0.075 C 
ATOM     18  C   UNL     1       8.187  -9.175  33.120  0.00  0.00    +0.013 C 
ATOM     19  C   UNL     1       6.178  -7.835  32.369  0.00  0.00    +0.013 C 
ATOM     20  C   UNL     1       8.373  -9.690  31.695  0.00  0.00    +0.001 C 
ATOM     21  C   UNL     1       6.366  -8.353  30.946  0.00  0.00    +0.001 C 
ATOM     22  C   UNL     1       7.054  -9.716  30.930  0.00  0.00    +0.000 C 
ENDBRANCH  17  14
BRANCH   8  12
ATOM     12  C   UNL     1      10.811  -6.024  34.525  0.00  0.00    +0.020 C 
BRANCH  12  16
ATOM     16  C   UNL     1      10.907  -6.502  33.084  0.00  0.00    +0.085 C 
BRANCH  16   5
ATOM      5  N   UNL     1      12.270  -6.312  32.588  0.00  0.00    -0.299 NA
ATOM      6  N   UNL     1      14.416  -4.898  31.342  0.00  0.00    -0.313 N 
ATOM      7  N   UNL     1      16.262  -5.054  29.867  0.00  0.00    -0.240 NA
ATOM     23  C   UNL     1      12.913  -5.183  33.272  0.00  0.00    +0.103 C 
ATOM     24  C   UNL     1      12.262  -6.078  31.138  0.00  0.00    +0.103 C 
ATOM     26  C   UNL     1      14.359  -5.007  32.802  0.00  0.00    +0.122 C 
ATOM     27  C   UNL     1      13.687  -5.932  30.598  0.00  0.00    +0.122 C 
ATOM     28  C   UNL     1      15.533  -4.315  30.733  0.00  0.00    +0.121 A 
ATOM     29  C   UNL     1      15.822  -3.001  31.063  0.00  0.00    +0.043 A 
ATOM     30  C   UNL     1      16.929  -2.407  30.467  0.00  0.00    +0.005 A 
ATOM     31  C   UNL     1      17.329  -4.445  29.306  0.00  0.00    +0.113 A 
ATOM     32  C   UNL     1      17.702  -3.136  29.570  0.00  0.00    +0.020 A 
ENDBRANCH  16   5
ENDBRANCH  12  16
ENDBRANCH   8  12
BRANCH   9  15
ATOM     15  C   UNL     1      10.996  -3.961  36.766  0.00  0.00    +0.124 C 
BRANCH  15  25
ATOM      3  O   UNL     1      11.431  -2.726  38.823  0.00  0.00    -0.251 OA
ATOM     25  C   UNL     1      10.834  -2.847  37.763  0.00  0.00    +0.305 C 
BRANCH  25   2
ATOM      2  O   UNL     1       9.907  -1.963  37.314  0.00  0.00    -0.481 OA
ATOM     33  H   UNL     1      10.115  -1.642  36.411  0.00  0.00    +0.295 HD
ENDBRANCH  25   2
ENDBRANCH  15  25
ENDBRANCH   9  15
TORSDOF 7
ENDMDL
MODEL 9
REMARK VINA RESULT:      -6.1     20.539     22.997
REMARK  Name = 28960039
REMARK  7 active torsions:
REMARK  status: ('A' for Active; 'I' for Inactive)
REMARK    1  A    between atoms: O_2  and  C_25
REMARK    2  A    between atoms: N_5  and  C_16
REMARK    3  A    between atoms: C_8  and  C_12
REMARK    4  A    between atoms: C_9  and  C_15
REMARK    5  A    between atoms: C_12  and  C_16
REMARK    6  A    between atoms: C_14  and  C_17
REMARK    7  A    between atoms: C_15  and  C_25
REMARK                            x       y       z     vdW  Elec       q    Type
REMARK                         _______ _______ _______ _____ _____    ______ ____
ROOT
ATOM      1  O   UNL     1     -10.945  10.482  17.227  0.00  0.00    -0.275 OA
ATOM      4  N   UNL     1     -12.417   9.084  18.355  0.00  0.00    -0.301 N 
ATOM      8  C   UNL     1     -13.421   8.202  20.450  0.00  0.00    +0.011 C 
ATOM      9  C   UNL     1     -12.557   6.927  20.284  0.00  0.00    +0.006 C 
ATOM     10  C   UNL     1     -13.675   8.845  19.074  0.00  0.00    +0.111 C 
ATOM     11  C   UNL     1     -11.276   7.211  19.482  0.00  0.00    +0.023 C 
ATOM     13  C   UNL     1     -11.593   7.892  18.153  0.00  0.00    +0.108 C 
ATOM     17  C   UNL     1     -11.995  10.313  17.852  0.00  0.00    +0.219 C 
ENDROOT
BRANCH  17  14
ATOM     14  C   UNL     1     -12.894  11.486  18.103  0.00  0.00    +0.075 C 
ATOM     18  C   UNL     1     -12.216  12.465  19.062  0.00  0.00    +0.013 C 
ATOM     19  C   UNL     1     -13.238  12.153  16.770  0.00  0.00    +0.013 C 
ATOM     20  C   UNL     1     -13.056  13.724  19.262  0.00  0.00    +0.001 C 
ATOM     21  C   UNL     1     -14.074  13.413  16.972  0.00  0.00    +0.001 C 
ATOM     22  C   UNL     1     -13.399  14.389  17.932  0.00  0.00    +0.000 C 
ENDBRANCH  17  14
BRANCH   8  12
ATOM     12  C   UNL     1     -12.829   9.234  21.419  0.00  0.00    +0.020 C 
BRANCH  12  16
ATOM     16  C   UNL     1     -13.830  10.344  21.707  0.00  0.00    +0.085 C 
BRANCH  16   5
ATOM      5  N   UNL     1     -13.709  10.771  23.101  0.00  0.00    -0.299 NA
ATOM      6  N   UNL     1     -13.011  10.503  25.857  0.00  0.00    -0.313 N 
ATOM      7  N   UNL     1     -13.670  10.934  28.090  0.00  0.00    -0.240 NA
ATOM     23  C   UNL     1     -12.300  10.781  23.515  0.00  0.00    +0.103 C 
ATOM     24  C   UNL     1     -14.482   9.883  23.979  0.00  0.00    +0.103 C 
ATOM     26  C   UNL     1     -12.155  11.279  24.956  0.00  0.00    +0.122 C 
ATOM     27  C   UNL     1     -14.409  10.352  25.435  0.00  0.00    +0.122 C 
ATOM     28  C   UNL     1     -12.733  10.479  27.229  0.00  0.00    +0.121 A 
ATOM     29  C   UNL     1     -11.498   9.985  27.617  0.00  0.00    +0.043 A 
ATOM     30  C   UNL     1     -11.207   9.956  28.977  0.00  0.00    +0.005 A 
ATOM     31  C   UNL     1     -13.353  10.890  29.403  0.00  0.00    +0.113 A 
ATOM     32  C   UNL     1     -12.147  10.415  29.893  0.00  0.00    +0.020 A 
ENDBRANCH  16   5
ENDBRANCH  12  16
ENDBRANCH   8  12
BRANCH   9  15
ATOM     15  C   UNL     1     -12.222   6.250  21.614  0.00  0.00    +0.124 C 
BRANCH  15  25
ATOM      3  O   UNL     1     -14.341   5.051  21.494  0.00  0.00    -0.251 OA
ATOM     25  C   UNL     1     -13.216   5.175  21.955  0.00  0.00    +0.305 C 
BRANCH  25   2
ATOM      2  O   UNL     1     -12.680   4.331  22.873  0.00  0.00    -0.481 OA
ATOM     33  H   UNL     1     -13.317   3.638  23.148  0.00  0.00    +0.295 HD
ENDBRANCH  25   2
ENDBRANCH  15  25
ENDBRANCH   9  15
TORSDOF 7
ENDMDL
MODEL 10
REMARK VINA RESULT:      -6.0     25.780     29.540
REMARK  Name = 28960039
REMARK  7 active torsions:
REMARK  status: ('A' for Active; 'I' for Inactive)
REMARK    1  A    between atoms: O_2  and  C_25
REMARK    2  A    between atoms: N_5  and  C_16
REMARK    3  A    between atoms: C_8  and  C_12
REMARK    4  A    between atoms: C_9  and  C_15
REMARK    5  A    between atoms: C_12  and  C_16
REMARK    6  A    between atoms: C_14  and  C_17
REMARK    7  A    between atoms: C_15  and  C_25
REMARK                            x       y       z     vdW  Elec       q    Type
REMARK                         _______ _______ _______ _____ _____    ______ ____
ROOT
ATOM      1  O   UNL     1      15.801  -4.684  -3.063  0.00  0.00    -0.275 OA
ATOM      4  N   UNL     1      18.013  -5.365  -2.869  0.00  0.00    -0.301 N 
ATOM      8  C   UNL     1      19.757  -6.894  -1.976  0.00  0.00    +0.011 C 
ATOM      9  C   UNL     1      20.156  -5.788  -0.966  0.00  0.00    +0.006 C 
ATOM     10  C   UNL     1      19.125  -6.255  -3.227  0.00  0.00    +0.111 C 
ATOM     11  C   UNL     1      18.977  -4.849  -0.660  0.00  0.00    +0.023 C 
ATOM     13  C   UNL     1      18.365  -4.291  -1.942  0.00  0.00    +0.108 C 
ATOM     17  C   UNL     1      16.712  -5.461  -3.360  0.00  0.00    +0.219 C 
ENDROOT
BRANCH  17  14
ATOM     14  C   UNL     1      16.431  -6.591  -4.303  0.00  0.00    +0.075 C 
ATOM     18  C   UNL     1      15.752  -7.738  -3.554  0.00  0.00    +0.013 C 
ATOM     19  C   UNL     1      15.565  -6.083  -5.457  0.00  0.00    +0.013 C 
ATOM     20  C   UNL     1      15.355  -8.868  -4.501  0.00  0.00    +0.001 C 
ATOM     21  C   UNL     1      15.166  -7.214  -6.400  0.00  0.00    +0.001 C 
ATOM     22  C   UNL     1      14.491  -8.360  -5.651  0.00  0.00    +0.000 C 
ENDBRANCH  17  14
BRANCH   8  12
ATOM     12  C   UNL     1      18.824  -7.963  -1.394  0.00  0.00    +0.020 C 
BRANCH  12  16
ATOM     16  C   UNL     1      19.203  -9.347  -1.900  0.00  0.00    +0.085 C 
BRANCH  16   5
ATOM      5  N   UNL     1      18.961 -10.340  -0.854  0.00  0.00    -0.299 NA
ATOM      6  N   UNL     1      17.572 -11.531   1.339  0.00  0.00    -0.313 N 
ATOM      7  N   UNL     1      17.791 -12.620   3.430  0.00  0.00    -0.240 NA
ATOM     23  C   UNL     1      17.670 -11.006  -1.066  0.00  0.00    +0.103 C 
ATOM     24  C   UNL     1      18.986  -9.709   0.471  0.00  0.00    +0.103 C 
ATOM     26  C   UNL     1      17.430 -12.088  -0.009  0.00  0.00    +0.122 C 
ATOM     27  C   UNL     1      18.790 -10.747   1.578  0.00  0.00    +0.122 C 
ATOM     28  C   UNL     1      16.991 -12.191   2.428  0.00  0.00    +0.121 A 
ATOM     29  C   UNL     1      15.617 -12.364   2.404  0.00  0.00    +0.043 A 
ATOM     30  C   UNL     1      15.024 -13.020   3.479  0.00  0.00    +0.005 A 
ATOM     31  C   UNL     1      17.181 -13.252   4.457  0.00  0.00    +0.113 A 
ATOM     32  C   UNL     1      15.815 -13.474   4.529  0.00  0.00    +0.020 A 
ENDBRANCH  16   5
ENDBRANCH  12  16
ENDBRANCH   8  12
BRANCH   9  15
ATOM     15  C   UNL     1      20.754  -6.343   0.327  0.00  0.00    +0.124 C 
BRANCH  15  25
ATOM      3  O   UNL     1      21.221  -4.789   2.147  0.00  0.00    -0.251 OA
ATOM     25  C   UNL     1      21.527  -5.293   1.076  0.00  0.00    +0.305 C 
BRANCH  25   2
ATOM      2  O   UNL     1      22.649  -4.969   0.384  0.00  0.00    -0.481 OA
ATOM     33  H   UNL     1      22.450  -4.740  -0.548  0.00  0.00    +0.295 HD
ENDBRANCH  25   2
ENDBRANCH  15  25
ENDBRANCH   9  15
TORSDOF 7
ENDMDL
