MODEL 1
REMARK VINA RESULT:      -7.6      0.000      0.000
REMARK  Name = 26743954
REMARK  5 active torsions:
REMARK  status: ('A' for Active; 'I' for Inactive)
REMARK    1  A    between atoms: O_1  and  C_13
REMARK    2  A    between atoms: N_4  and  C_9
REMARK    3  A    between atoms: C_10  and  C_18
REMARK    4  A    between atoms: C_19  and  C_21
REMARK    5  A    between atoms: C_20  and  C_22
REMARK                            x       y       z     vdW  Elec       q    Type
REMARK                         _______ _______ _______ _____ _____    ______ ____
ROOT
ATOM      4  N   UNL     1      12.157   8.316  19.472  0.00  0.00    -0.286 NA
ATOM     10  C   UNL     1      13.119   8.518  20.576  0.00  0.00    +0.149 C 
ATOM     11  C   UNL     1      10.824   8.369  20.070  0.00  0.00    +0.116 C 
ATOM     12  C   UNL     1      12.394   7.993  21.830  0.00  0.00    +0.061 C 
ATOM     13  C   UNL     1      11.019   7.561  21.338  0.00  0.00    +0.130 C 
ENDROOT
BRANCH   4   9
ATOM      3  O   UNL     1      15.269  10.115  14.484  0.00  0.00    -0.276 OA
ATOM      5  N   UNL     1      13.945  10.529  16.348  0.00  0.00    -0.302 N 
ATOM      9  C   UNL     1      12.313   9.283  18.389  0.00  0.00    +0.060 C 
ATOM     14  C   UNL     1      12.659   8.558  17.082  0.00  0.00    +0.038 C 
ATOM     15  C   UNL     1      13.407  10.299  18.744  0.00  0.00    +0.038 C 
ATOM     16  C   UNL     1      12.921   9.558  15.957  0.00  0.00    +0.109 C 
ATOM     17  C   UNL     1      13.655  11.265  17.585  0.00  0.00    +0.109 C 
ATOM     19  C   UNL     1      15.065  10.721  15.539  0.00  0.00    +0.212 C 
ATOM     21  C   UNL     1      16.074  11.737  16.012  0.00  0.00    +0.109 C 
ENDBRANCH   4   9
BRANCH  10  18
ATOM      2  O   UNL     1      14.430   6.791  19.448  0.00  0.00    -0.336 OA
ATOM      6  N   UNL     1      15.617   8.069  20.852  0.00  0.00    -0.190 NA
ATOM      7  N   UNL     1      15.746   6.315  19.390  0.00  0.00    -0.056 NA
ATOM     18  C   UNL     1      14.442   7.823  20.331  0.00  0.00    +0.245 A 
ATOM     20  C   UNL     1      16.385   7.119  20.244  0.00  0.00    +0.204 A 
BRANCH  20  22
ATOM      8  N   UNL     1      19.805   7.964  21.436  0.00  0.00    -0.263 NA
ATOM     22  C   UNL     1      17.790   7.000  20.512  0.00  0.00    +0.041 A 
ATOM     23  C   UNL     1      18.497   5.864  20.134  0.00  0.00    +0.014 A 
ATOM     24  C   UNL     1      18.483   8.013  21.154  0.00  0.00    +0.122 A 
ATOM     25  C   UNL     1      19.858   5.778  20.407  0.00  0.00    +0.020 A 
ATOM     26  C   UNL     1      20.459   6.845  21.053  0.00  0.00    +0.111 A 
ENDBRANCH  20  22
ENDBRANCH  10  18
BRANCH  13   1
ATOM      1  O   UNL     1      10.027   7.853  22.304  0.00  0.00    -0.390 OA
ATOM     27  H   UNL     1       9.170   7.875  21.844  0.00  0.00    +0.210 HD
ENDBRANCH  13   1
TORSDOF 4
ENDMDL
MODEL 2
REMARK VINA RESULT:      -7.4      2.246      6.736
REMARK  Name = 26743954
REMARK  5 active torsions:
REMARK  status: ('A' for Active; 'I' for Inactive)
REMARK    1  A    between atoms: O_1  and  C_13
REMARK    2  A    between atoms: N_4  and  C_9
REMARK    3  A    between atoms: C_10  and  C_18
REMARK    4  A    between atoms: C_19  and  C_21
REMARK    5  A    between atoms: C_20  and  C_22
REMARK                            x       y       z     vdW  Elec       q    Type
REMARK                         _______ _______ _______ _____ _____    ______ ____
ROOT
ATOM      4  N   UNL     1      14.796   7.918  20.085  0.00  0.00    -0.286 NA
ATOM     10  C   UNL     1      14.200   7.281  18.892  0.00  0.00    +0.149 C 
ATOM     11  C   UNL     1      14.261   7.205  21.244  0.00  0.00    +0.116 C 
ATOM     12  C   UNL     1      12.853   6.716  19.378  0.00  0.00    +0.061 C 
ATOM     13  C   UNL     1      12.801   7.045  20.865  0.00  0.00    +0.130 C 
ENDROOT
BRANCH   4   9
ATOM      3  O   UNL     1      20.052   5.829  22.496  0.00  0.00    -0.276 OA
ATOM      5  N   UNL     1      18.787   7.431  21.387  0.00  0.00    -0.302 N 
ATOM      9  C   UNL     1      16.256   7.920  20.067  0.00  0.00    +0.060 C 
ATOM     14  C   UNL     1      16.787   6.498  20.287  0.00  0.00    +0.038 C 
ATOM     15  C   UNL     1      16.795   8.866  21.149  0.00  0.00    +0.038 C 
ATOM     16  C   UNL     1      18.313   6.492  20.368  0.00  0.00    +0.109 C 
ATOM     17  C   UNL     1      18.321   8.813  21.214  0.00  0.00    +0.109 C 
ATOM     19  C   UNL     1      19.646   6.990  22.393  0.00  0.00    +0.212 C 
ATOM     21  C   UNL     1      20.087   8.017  23.404  0.00  0.00    +0.109 C 
ENDBRANCH   4   9
BRANCH  10  18
ATOM      2  O   UNL     1      13.682   7.704  16.541  0.00  0.00    -0.336 OA
ATOM      6  N   UNL     1      14.221   9.541  17.703  0.00  0.00    -0.190 NA
ATOM      7  N   UNL     1      13.608   8.772  15.638  0.00  0.00    -0.056 NA
ATOM     18  C   UNL     1      14.048   8.244  17.733  0.00  0.00    +0.245 A 
ATOM     20  C   UNL     1      13.939   9.820  16.397  0.00  0.00    +0.204 A 
BRANCH  20  22
ATOM      8  N   UNL     1      13.799  12.655  13.995  0.00  0.00    -0.263 NA
ATOM     22  C   UNL     1      13.997  11.158  15.883  0.00  0.00    +0.041 A 
ATOM     23  C   UNL     1      14.294  12.233  16.714  0.00  0.00    +0.014 A 
ATOM     24  C   UNL     1      13.759  11.420  14.544  0.00  0.00    +0.122 A 
ATOM     25  C   UNL     1      14.344  13.518  16.186  0.00  0.00    +0.020 A 
ATOM     26  C   UNL     1      14.091  13.675  14.833  0.00  0.00    +0.111 A 
ENDBRANCH  20  22
ENDBRANCH  10  18
BRANCH  13   1
ATOM      1  O   UNL     1      12.183   5.998  21.588  0.00  0.00    -0.390 OA
ATOM     27  H   UNL     1      12.311   6.182  22.535  0.00  0.00    +0.210 HD
ENDBRANCH  13   1
TORSDOF 4
ENDMDL
MODEL 3
REMARK VINA RESULT:      -7.3      2.222      4.484
REMARK  Name = 26743954
REMARK  5 active torsions:
REMARK  status: ('A' for Active; 'I' for Inactive)
REMARK    1  A    between atoms: O_1  and  C_13
REMARK    2  A    between atoms: N_4  and  C_9
REMARK    3  A    between atoms: C_10  and  C_18
REMARK    4  A    between atoms: C_19  and  C_21
REMARK    5  A    between atoms: C_20  and  C_22
REMARK                            x       y       z     vdW  Elec       q    Type
REMARK                         _______ _______ _______ _____ _____    ______ ____
ROOT
ATOM      4  N   UNL     1      14.634   9.171  18.623  0.00  0.00    -0.286 NA
ATOM     10  C   UNL     1      14.512   7.699  18.555  0.00  0.00    +0.149 C 
ATOM     11  C   UNL     1      13.714   9.708  17.622  0.00  0.00    +0.116 C 
ATOM     12  C   UNL     1      14.085   7.407  17.104  0.00  0.00    +0.061 C 
ATOM     13  C   UNL     1      13.949   8.775  16.449  0.00  0.00    +0.130 C 
ENDROOT
BRANCH   4   9
ATOM      3  O   UNL     1      10.529  10.532  22.993  0.00  0.00    -0.276 OA
ATOM      5  N   UNL     1      12.548  10.854  21.890  0.00  0.00    -0.302 N 
ATOM      9  C   UNL     1      14.373   9.709  19.955  0.00  0.00    +0.060 C 
ATOM     14  C   UNL     1      13.317   8.855  20.669  0.00  0.00    +0.038 C 
ATOM     15  C   UNL     1      13.902  11.166  19.852  0.00  0.00    +0.038 C 
ATOM     16  C   UNL     1      12.959   9.455  22.027  0.00  0.00    +0.109 C 
ATOM     17  C   UNL     1      13.531  11.721  21.227  0.00  0.00    +0.109 C 
ATOM     19  C   UNL     1      11.323  11.273  22.408  0.00  0.00    +0.212 C 
ATOM     21  C   UNL     1      10.973  12.728  22.223  0.00  0.00    +0.109 C 
ENDBRANCH   4   9
BRANCH  10  18
ATOM      2  O   UNL     1      16.132   5.904  18.201  0.00  0.00    -0.336 OA
ATOM      6  N   UNL     1      16.636   7.267  19.904  0.00  0.00    -0.190 NA
ATOM      7  N   UNL     1      17.331   5.424  18.741  0.00  0.00    -0.056 NA
ATOM     18  C   UNL     1      15.792   6.990  18.943  0.00  0.00    +0.245 A 
ATOM     20  C   UNL     1      17.564   6.280  19.740  0.00  0.00    +0.204 A 
BRANCH  20  22
ATOM      8  N   UNL     1      20.856   5.156  21.057  0.00  0.00    -0.263 NA
ATOM     22  C   UNL     1      18.714   6.176  20.593  0.00  0.00    +0.041 A 
ATOM     23  C   UNL     1      18.824   6.950  21.743  0.00  0.00    +0.014 A 
ATOM     24  C   UNL     1      19.747   5.303  20.297  0.00  0.00    +0.122 A 
ATOM     25  C   UNL     1      19.949   6.827  22.550  0.00  0.00    +0.020 A 
ATOM     26  C   UNL     1      20.928   5.924  22.167  0.00  0.00    +0.111 A 
ENDBRANCH  20  22
ENDBRANCH  10  18
BRANCH  13   1
ATOM      1  O   UNL     1      12.864   8.791  15.542  0.00  0.00    -0.390 OA
ATOM     27  H   UNL     1      12.959   9.585  14.988  0.00  0.00    +0.210 HD
ENDBRANCH  13   1
TORSDOF 4
ENDMDL
MODEL 4
REMARK VINA RESULT:      -7.2      3.389      7.173
REMARK  Name = 26743954
REMARK  5 active torsions:
REMARK  status: ('A' for Active; 'I' for Inactive)
REMARK    1  A    between atoms: O_1  and  C_13
REMARK    2  A    between atoms: N_4  and  C_9
REMARK    3  A    between atoms: C_10  and  C_18
REMARK    4  A    between atoms: C_19  and  C_21
REMARK    5  A    between atoms: C_20  and  C_22
REMARK                            x       y       z     vdW  Elec       q    Type
REMARK                         _______ _______ _______ _____ _____    ______ ____
ROOT
ATOM      4  N   UNL     1      14.291   7.957  19.743  0.00  0.00    -0.286 NA
ATOM     10  C   UNL     1      13.855   9.358  19.565  0.00  0.00    +0.149 C 
ATOM     11  C   UNL     1      14.663   7.468  18.416  0.00  0.00    +0.116 C 
ATOM     12  C   UNL     1      13.328   9.425  18.119  0.00  0.00    +0.061 C 
ATOM     13  C   UNL     1      13.549   8.028  17.553  0.00  0.00    +0.130 C 
ENDROOT
BRANCH   4   9
ATOM      3  O   UNL     1      20.248   8.723  21.057  0.00  0.00    -0.276 OA
ATOM      5  N   UNL     1      18.206   7.641  21.301  0.00  0.00    -0.302 N 
ATOM      9  C   UNL     1      15.377   7.810  20.707  0.00  0.00    +0.060 C 
ATOM     14  C   UNL     1      16.282   9.049  20.673  0.00  0.00    +0.038 C 
ATOM     15  C   UNL     1      16.189   6.545  20.398  0.00  0.00    +0.038 C 
ATOM     16  C   UNL     1      17.479   8.875  21.607  0.00  0.00    +0.109 C 
ATOM     17  C   UNL     1      17.390   6.421  21.337  0.00  0.00    +0.109 C 
ATOM     19  C   UNL     1      19.577   7.688  21.046  0.00  0.00    +0.212 C 
ATOM     21  C   UNL     1      20.252   6.375  20.738  0.00  0.00    +0.109 C 
ENDBRANCH   4   9
BRANCH  10  18
ATOM      2  O   UNL     1      11.670   9.061  20.617  0.00  0.00    -0.336 OA
ATOM      6  N   UNL     1      12.867  10.756  21.458  0.00  0.00    -0.190 NA
ATOM      7  N   UNL     1      10.882   9.633  21.624  0.00  0.00    -0.056 NA
ATOM     18  C   UNL     1      12.821   9.781  20.586  0.00  0.00    +0.245 A 
ATOM     20  C   UNL     1      11.656  10.625  22.072  0.00  0.00    +0.204 A 
BRANCH  20  22
ATOM      8  N   UNL     1      10.809  11.833  25.486  0.00  0.00    -0.263 NA
ATOM     22  C   UNL     1      11.249  11.503  23.132  0.00  0.00    +0.041 A 
ATOM     23  C   UNL     1      10.904  12.825  22.874  0.00  0.00    +0.014 A 
ATOM     24  C   UNL     1      11.185  11.059  24.443  0.00  0.00    +0.122 A 
ATOM     25  C   UNL     1      10.513  13.651  23.921  0.00  0.00    +0.020 A 
ATOM     26  C   UNL     1      10.482  13.112  25.197  0.00  0.00    +0.111 A 
ENDBRANCH  20  22
ENDBRANCH  10  18
BRANCH  13   1
ATOM      1  O   UNL     1      13.924   8.094  16.190  0.00  0.00    -0.390 OA
ATOM     27  H   UNL     1      14.659   7.470  16.060  0.00  0.00    +0.210 HD
ENDBRANCH  13   1
TORSDOF 4
ENDMDL
MODEL 5
REMARK VINA RESULT:      -7.2      1.742      2.273
REMARK  Name = 26743954
REMARK  5 active torsions:
REMARK  status: ('A' for Active; 'I' for Inactive)
REMARK    1  A    between atoms: O_1  and  C_13
REMARK    2  A    between atoms: N_4  and  C_9
REMARK    3  A    between atoms: C_10  and  C_18
REMARK    4  A    between atoms: C_19  and  C_21
REMARK    5  A    between atoms: C_20  and  C_22
REMARK                            x       y       z     vdW  Elec       q    Type
REMARK                         _______ _______ _______ _____ _____    ______ ____
ROOT
ATOM      4  N   UNL     1      13.723   8.763  17.965  0.00  0.00    -0.286 NA
ATOM     10  C   UNL     1      14.185   8.600  19.359  0.00  0.00    +0.149 C 
ATOM     11  C   UNL     1      12.286   9.023  18.033  0.00  0.00    +0.116 C 
ATOM     12  C   UNL     1      12.952   8.081  20.124  0.00  0.00    +0.061 C 
ATOM     13  C   UNL     1      11.838   8.028  19.086  0.00  0.00    +0.130 C 
ENDROOT
BRANCH   4   9
ATOM      3  O   UNL     1      13.477  14.051  14.840  0.00  0.00    -0.276 OA
ATOM      5  N   UNL     1      14.444  12.001  15.348  0.00  0.00    -0.302 N 
ATOM      9  C   UNL     1      14.437   9.810  17.240  0.00  0.00    +0.060 C 
ATOM     14  C   UNL     1      13.862  11.185  17.600  0.00  0.00    +0.038 C 
ATOM     15  C   UNL     1      14.338   9.566  15.729  0.00  0.00    +0.038 C 
ATOM     16  C   UNL     1      14.531  12.287  16.781  0.00  0.00    +0.109 C 
ATOM     17  C   UNL     1      14.998  10.702  14.946  0.00  0.00    +0.109 C 
ATOM     19  C   UNL     1      13.903  12.951  14.481  0.00  0.00    +0.212 C 
ATOM     21  C   UNL     1      13.847  12.579  13.021  0.00  0.00    +0.109 C 
ENDBRANCH   4   9
BRANCH  10  18
ATOM      2  O   UNL     1      15.373   6.578  18.673  0.00  0.00    -0.336 OA
ATOM      6  N   UNL     1      16.430   7.770  20.246  0.00  0.00    -0.190 NA
ATOM      7  N   UNL     1      16.558   5.886  18.956  0.00  0.00    -0.056 NA
ATOM     18  C   UNL     1      15.377   7.674  19.475  0.00  0.00    +0.245 A 
ATOM     20  C   UNL     1      17.126   6.652  19.891  0.00  0.00    +0.204 A 
BRANCH  20  22
ATOM      8  N   UNL     1      20.015   6.740  22.232  0.00  0.00    -0.263 NA
ATOM     22  C   UNL     1      18.388   6.327  20.492  0.00  0.00    +0.041 A 
ATOM     23  C   UNL     1      19.200   5.331  19.959  0.00  0.00    +0.014 A 
ATOM     24  C   UNL     1      18.837   6.996  21.618  0.00  0.00    +0.122 A 
ATOM     25  C   UNL     1      20.418   5.039  20.562  0.00  0.00    +0.020 A 
ATOM     26  C   UNL     1      20.777   5.766  21.686  0.00  0.00    +0.111 A 
ENDBRANCH  20  22
ENDBRANCH  10  18
BRANCH  13   1
ATOM      1  O   UNL     1      10.599   8.395  19.662  0.00  0.00    -0.390 OA
ATOM     27  H   UNL     1      10.352   9.261  19.294  0.00  0.00    +0.210 HD
ENDBRANCH  13   1
TORSDOF 4
ENDMDL
MODEL 6
REMARK VINA RESULT:      -7.1      3.577      6.494
REMARK  Name = 26743954
REMARK  5 active torsions:
REMARK  status: ('A' for Active; 'I' for Inactive)
REMARK    1  A    between atoms: O_1  and  C_13
REMARK    2  A    between atoms: N_4  and  C_9
REMARK    3  A    between atoms: C_10  and  C_18
REMARK    4  A    between atoms: C_19  and  C_21
REMARK    5  A    between atoms: C_20  and  C_22
REMARK                            x       y       z     vdW  Elec       q    Type
REMARK                         _______ _______ _______ _____ _____    ______ ____
ROOT
ATOM      4  N   UNL     1      12.055   8.747  20.711  0.00  0.00    -0.286 NA
ATOM     10  C   UNL     1      13.250   8.140  20.089  0.00  0.00    +0.149 C 
ATOM     11  C   UNL     1      11.551   7.771  21.676  0.00  0.00    +0.116 C 
ATOM     12  C   UNL     1      13.012   6.621  20.178  0.00  0.00    +0.061 C 
ATOM     13  C   UNL     1      11.681   6.472  20.904  0.00  0.00    +0.130 C 
ENDROOT
BRANCH   4   9
ATOM      3  O   UNL     1      13.143  11.967  25.834  0.00  0.00    -0.276 OA
ATOM      5  N   UNL     1      12.349  11.759  23.660  0.00  0.00    -0.302 N 
ATOM      9  C   UNL     1      12.322  10.043  21.328  0.00  0.00    +0.060 C 
ATOM     14  C   UNL     1      13.385   9.894  22.424  0.00  0.00    +0.038 C 
ATOM     15  C   UNL     1      11.028  10.625  21.913  0.00  0.00    +0.038 C 
ATOM     16  C   UNL     1      13.611  11.221  23.147  0.00  0.00    +0.109 C 
ATOM     17  C   UNL     1      11.300  11.937  22.648  0.00  0.00    +0.109 C 
ATOM     19  C   UNL     1      12.234  12.094  25.009  0.00  0.00    +0.212 C 
ATOM     21  C   UNL     1      10.902  12.639  25.459  0.00  0.00    +0.109 C 
ENDBRANCH   4   9
BRANCH  10  18
ATOM      2  O   UNL     1      13.020   7.803  17.680  0.00  0.00    -0.336 OA
ATOM      6  N   UNL     1      14.052   9.709  18.242  0.00  0.00    -0.190 NA
ATOM      7  N   UNL     1      13.338   8.444  16.476  0.00  0.00    -0.056 NA
ATOM     18  C   UNL     1      13.474   8.616  18.669  0.00  0.00    +0.245 A 
ATOM     20  C   UNL     1      13.944   9.560  16.890  0.00  0.00    +0.204 A 
BRANCH  20  22
ATOM      8  N   UNL     1      15.523  11.054  13.872  0.00  0.00    -0.263 NA
ATOM     22  C   UNL     1      14.453  10.546  15.980  0.00  0.00    +0.041 A 
ATOM     23  C   UNL     1      14.388  11.902  16.282  0.00  0.00    +0.014 A 
ATOM     24  C   UNL     1      15.024  10.177  14.773  0.00  0.00    +0.122 A 
ATOM     25  C   UNL     1      14.889  12.833  15.381  0.00  0.00    +0.020 A 
ATOM     26  C   UNL     1      15.442  12.363  14.201  0.00  0.00    +0.111 A 
ENDBRANCH  20  22
ENDBRANCH  10  18
BRANCH  13   1
ATOM      1  O   UNL     1      11.702   5.350  21.765  0.00  0.00    -0.390 OA
ATOM     27  H   UNL     1      11.057   4.708  21.422  0.00  0.00    +0.210 HD
ENDBRANCH  13   1
TORSDOF 4
ENDMDL
MODEL 7
REMARK VINA RESULT:      -6.9      2.829      4.856
REMARK  Name = 26743954
REMARK  5 active torsions:
REMARK  status: ('A' for Active; 'I' for Inactive)
REMARK    1  A    between atoms: O_1  and  C_13
REMARK    2  A    between atoms: N_4  and  C_9
REMARK    3  A    between atoms: C_10  and  C_18
REMARK    4  A    between atoms: C_19  and  C_21
REMARK    5  A    between atoms: C_20  and  C_22
REMARK                            x       y       z     vdW  Elec       q    Type
REMARK                         _______ _______ _______ _____ _____    ______ ____
ROOT
ATOM      4  N   UNL     1      13.243   9.005  20.389  0.00  0.00    -0.286 NA
ATOM     10  C   UNL     1      13.842   7.656  20.312  0.00  0.00    +0.149 C 
ATOM     11  C   UNL     1      12.053   8.978  19.539  0.00  0.00    +0.116 C 
ATOM     12  C   UNL     1      13.420   7.117  18.931  0.00  0.00    +0.061 C 
ATOM     13  C   UNL     1      12.552   8.214  18.328  0.00  0.00    +0.130 C 
ENDROOT
BRANCH   4   9
ATOM      3  O   UNL     1       9.904  12.550  24.142  0.00  0.00    -0.276 OA
ATOM      5  N   UNL     1      11.818  11.347  23.604  0.00  0.00    -0.302 N 
ATOM      9  C   UNL     1      12.934   9.420  21.754  0.00  0.00    +0.060 C 
ATOM     14  C   UNL     1      11.419   9.589  21.922  0.00  0.00    +0.038 C 
ATOM     15  C   UNL     1      13.660  10.731  22.083  0.00  0.00    +0.038 C 
ATOM     16  C   UNL     1      11.081  10.115  23.316  0.00  0.00    +0.109 C 
ATOM     17  C   UNL     1      13.276  11.236  23.475  0.00  0.00    +0.109 C 
ATOM     19  C   UNL     1      11.129  12.492  24.006  0.00  0.00    +0.212 C 
ATOM     21  C   UNL     1      11.960  13.719  24.281  0.00  0.00    +0.109 C 
ENDBRANCH   4   9
BRANCH  10  18
ATOM      2  O   UNL     1      15.949   8.887  20.430  0.00  0.00    -0.336 OA
ATOM      6  N   UNL     1      16.164   6.677  20.720  0.00  0.00    -0.190 NA
ATOM      7  N   UNL     1      17.315   8.651  20.630  0.00  0.00    -0.056 NA
ATOM     18  C   UNL     1      15.344   7.673  20.500  0.00  0.00    +0.245 A 
ATOM     20  C   UNL     1      17.362   7.326  20.794  0.00  0.00    +0.204 A 
BRANCH  20  22
ATOM      8  N   UNL     1      20.176   4.941  20.325  0.00  0.00    -0.263 NA
ATOM     22  C   UNL     1      18.588   6.621  21.033  0.00  0.00    +0.041 A 
ATOM     23  C   UNL     1      19.368   6.898  22.150  0.00  0.00    +0.014 A 
ATOM     24  C   UNL     1      19.032   5.643  20.159  0.00  0.00    +0.122 A 
ATOM     25  C   UNL     1      20.551   6.198  22.356  0.00  0.00    +0.020 A 
ATOM     26  C   UNL     1      20.907   5.237  21.423  0.00  0.00    +0.111 A 
ENDBRANCH  20  22
ENDBRANCH  10  18
BRANCH  13   1
ATOM      1  O   UNL     1      11.486   7.656  17.584  0.00  0.00    -0.390 OA
ATOM     27  H   UNL     1      11.724   7.714  16.643  0.00  0.00    +0.210 HD
ENDBRANCH  13   1
TORSDOF 4
ENDMDL
MODEL 8
REMARK VINA RESULT:      -6.6     26.045     29.040
REMARK  Name = 26743954
REMARK  5 active torsions:
REMARK  status: ('A' for Active; 'I' for Inactive)
REMARK    1  A    between atoms: O_1  and  C_13
REMARK    2  A    between atoms: N_4  and  C_9
REMARK    3  A    between atoms: C_10  and  C_18
REMARK    4  A    between atoms: C_19  and  C_21
REMARK    5  A    between atoms: C_20  and  C_22
REMARK                            x       y       z     vdW  Elec       q    Type
REMARK                         _______ _______ _______ _____ _____    ______ ____
ROOT
ATOM      4  N   UNL     1      -3.565 -11.340  15.213  0.00  0.00    -0.286 NA
ATOM     10  C   UNL     1      -3.189 -10.446  14.099  0.00  0.00    +0.149 C 
ATOM     11  C   UNL     1      -2.640 -11.050  16.307  0.00  0.00    +0.116 C 
ATOM     12  C   UNL     1      -1.685 -10.178  14.299  0.00  0.00    +0.061 C 
ATOM     13  C   UNL     1      -1.318 -10.927  15.574  0.00  0.00    +0.130 C 
ENDROOT
BRANCH   4   9
ATOM      3  O   UNL     1      -7.636 -10.719  19.778  0.00  0.00    -0.276 OA
ATOM      5  N   UNL     1      -7.021 -11.399  17.644  0.00  0.00    -0.302 N 
ATOM      9  C   UNL     1      -4.960 -11.197  15.620  0.00  0.00    +0.060 C 
ATOM     14  C   UNL     1      -5.074 -10.175  16.758  0.00  0.00    +0.038 C 
ATOM     15  C   UNL     1      -5.521 -12.556  16.063  0.00  0.00    +0.038 C 
ATOM     16  C   UNL     1      -6.512 -10.080  17.263  0.00  0.00    +0.109 C 
ATOM     17  C   UNL     1      -6.952 -12.414  16.584  0.00  0.00    +0.109 C 
ATOM     19  C   UNL     1      -7.556 -11.598  18.916  0.00  0.00    +0.212 C 
ATOM     21  C   UNL     1      -8.057 -12.985  19.230  0.00  0.00    +0.109 C 
ENDBRANCH   4   9
BRANCH  10  18
ATOM      2  O   UNL     1      -3.425 -12.392  12.641  0.00  0.00    -0.336 OA
ATOM      6  N   UNL     1      -3.840 -10.438  11.630  0.00  0.00    -0.190 NA
ATOM      7  N   UNL     1      -3.750 -12.701  11.314  0.00  0.00    -0.056 NA
ATOM     18  C   UNL     1      -3.502 -11.040  12.742  0.00  0.00    +0.245 A 
ATOM     20  C   UNL     1      -3.983 -11.497  10.783  0.00  0.00    +0.204 A 
BRANCH  20  22
ATOM      8  N   UNL     1      -5.130  -9.848   7.653  0.00  0.00    -0.263 NA
ATOM     22  C   UNL     1      -4.358 -11.319   9.410  0.00  0.00    +0.041 A 
ATOM     23  C   UNL     1      -4.329 -12.384   8.515  0.00  0.00    +0.014 A 
ATOM     24  C   UNL     1      -4.762 -10.083   8.934  0.00  0.00    +0.122 A 
ATOM     25  C   UNL     1      -4.700 -12.181   7.191  0.00  0.00    +0.020 A 
ATOM     26  C   UNL     1      -5.089 -10.906   6.814  0.00  0.00    +0.111 A 
ENDBRANCH  20  22
ENDBRANCH  10  18
BRANCH  13   1
ATOM      1  O   UNL     1      -0.366 -10.200  16.326  0.00  0.00    -0.390 OA
ATOM     27  H   UNL     1       0.516 -10.451  16.002  0.00  0.00    +0.210 HD
ENDBRANCH  13   1
TORSDOF 4
ENDMDL
MODEL 9
REMARK VINA RESULT:      -6.6     26.476     29.297
REMARK  Name = 26743954
REMARK  5 active torsions:
REMARK  status: ('A' for Active; 'I' for Inactive)
REMARK    1  A    between atoms: O_1  and  C_13
REMARK    2  A    between atoms: N_4  and  C_9
REMARK    3  A    between atoms: C_10  and  C_18
REMARK    4  A    between atoms: C_19  and  C_21
REMARK    5  A    between atoms: C_20  and  C_22
REMARK                            x       y       z     vdW  Elec       q    Type
REMARK                         _______ _______ _______ _____ _____    ______ ____
ROOT
ATOM      4  N   UNL     1      -9.063 -10.548  17.345  0.00  0.00    -0.286 NA
ATOM     10  C   UNL     1      -7.927 -10.292  18.254  0.00  0.00    +0.149 C 
ATOM     11  C   UNL     1     -10.233 -10.761  18.195  0.00  0.00    +0.116 C 
ATOM     12  C   UNL     1      -8.289 -11.033  19.556  0.00  0.00    +0.061 C 
ATOM     13  C   UNL     1      -9.664 -11.635  19.296  0.00  0.00    +0.130 C 
ENDROOT
BRANCH   4   9
ATOM      3  O   UNL     1     -12.527  -5.840  15.437  0.00  0.00    -0.276 OA
ATOM      5  N   UNL     1     -11.031  -7.580  15.070  0.00  0.00    -0.302 N 
ATOM      9  C   UNL     1      -9.276  -9.478  16.375  0.00  0.00    +0.060 C 
ATOM     14  C   UNL     1      -9.762  -8.210  17.088  0.00  0.00    +0.038 C 
ATOM     15  C   UNL     1     -10.296  -9.922  15.317  0.00  0.00    +0.038 C 
ATOM     16  C   UNL     1     -10.083  -7.107  16.081  0.00  0.00    +0.109 C 
ATOM     17  C   UNL     1     -10.607  -8.784  14.344  0.00  0.00    +0.109 C 
ATOM     19  C   UNL     1     -12.210  -6.871  14.837  0.00  0.00    +0.212 C 
ATOM     21  C   UNL     1     -13.134  -7.424  13.783  0.00  0.00    +0.109 C 
ENDBRANCH   4   9
BRANCH  10  18
ATOM      2  O   UNL     1      -6.131 -11.942  18.100  0.00  0.00    -0.336 OA
ATOM      6  N   UNL     1      -5.827 -10.137  16.810  0.00  0.00    -0.190 NA
ATOM      7  N   UNL     1      -4.913 -12.138  17.436  0.00  0.00    -0.056 NA
ATOM     18  C   UNL     1      -6.603 -10.742  17.674  0.00  0.00    +0.245 A 
ATOM     20  C   UNL     1      -4.804 -11.032  16.694  0.00  0.00    +0.204 A 
BRANCH  20  22
ATOM      8  N   UNL     1      -2.845 -10.446  13.588  0.00  0.00    -0.263 NA
ATOM     22  C   UNL     1      -3.685 -10.791  15.829  0.00  0.00    +0.041 A 
ATOM     23  C   UNL     1      -2.397 -10.672  16.339  0.00  0.00    +0.014 A 
ATOM     24  C   UNL     1      -3.854 -10.672  14.459  0.00  0.00    +0.122 A 
ATOM     25  C   UNL     1      -1.333 -10.440  15.475  0.00  0.00    +0.020 A 
ATOM     26  C   UNL     1      -1.607 -10.336  14.121  0.00  0.00    +0.111 A 
ENDBRANCH  20  22
ENDBRANCH  10  18
BRANCH  13   1
ATOM      1  O   UNL     1     -10.459 -11.591  20.465  0.00  0.00    -0.390 OA
ATOM     27  H   UNL     1     -10.087 -10.905  21.045  0.00  0.00    +0.210 HD
ENDBRANCH  13   1
TORSDOF 4
ENDMDL
MODEL 10
REMARK VINA RESULT:      -6.6     31.901     33.009
REMARK  Name = 26743954
REMARK  5 active torsions:
REMARK  status: ('A' for Active; 'I' for Inactive)
REMARK    1  A    between atoms: O_1  and  C_13
REMARK    2  A    between atoms: N_4  and  C_9
REMARK    3  A    between atoms: C_10  and  C_18
REMARK    4  A    between atoms: C_19  and  C_21
REMARK    5  A    between atoms: C_20  and  C_22
REMARK                            x       y       z     vdW  Elec       q    Type
REMARK                         _______ _______ _______ _____ _____    ______ ____
ROOT
ATOM      4  N   UNL     1     -15.202   1.599  29.726  0.00  0.00    -0.286 NA
ATOM     10  C   UNL     1     -15.401   1.102  31.103  0.00  0.00    +0.149 C 
ATOM     11  C   UNL     1     -14.880   0.431  28.908  0.00  0.00    +0.116 C 
ATOM     12  C   UNL     1     -14.533  -0.167  31.193  0.00  0.00    +0.061 C 
ATOM     13  C   UNL     1     -13.922  -0.326  29.807  0.00  0.00    +0.130 C 
ENDROOT
BRANCH   4   9
ATOM      3  O   UNL     1     -18.666   3.138  24.886  0.00  0.00    -0.276 OA
ATOM      5  N   UNL     1     -17.772   3.541  26.992  0.00  0.00    -0.302 N 
ATOM      9  C   UNL     1     -16.352   2.334  29.207  0.00  0.00    +0.060 C 
ATOM     14  C   UNL     1     -17.095   1.484  28.169  0.00  0.00    +0.038 C 
ATOM     15  C   UNL     1     -15.893   3.660  28.585  0.00  0.00    +0.038 C 
ATOM     16  C   UNL     1     -18.246   2.270  27.543  0.00  0.00    +0.109 C 
ATOM     17  C   UNL     1     -17.068   4.403  27.950  0.00  0.00    +0.109 C 
ATOM     19  C   UNL     1     -18.040   3.865  25.662  0.00  0.00    +0.212 C 
ATOM     21  C   UNL     1     -17.517   5.191  25.170  0.00  0.00    +0.109 C 
ENDBRANCH   4   9
BRANCH  10  18
ATOM      2  O   UNL     1     -15.100   1.725  33.447  0.00  0.00    -0.336 OA
ATOM      6  N   UNL     1     -14.680   3.381  32.000  0.00  0.00    -0.190 NA
ATOM      7  N   UNL     1     -14.732   2.834  34.220  0.00  0.00    -0.056 NA
ATOM     18  C   UNL     1     -15.042   2.133  32.153  0.00  0.00    +0.245 A 
ATOM     20  C   UNL     1     -14.500   3.770  33.295  0.00  0.00    +0.204 A 
BRANCH  20  22
ATOM      8  N   UNL     1     -13.392   7.298  32.897  0.00  0.00    -0.263 NA
ATOM     22  C   UNL     1     -14.087   5.102  33.632  0.00  0.00    +0.041 A 
ATOM     23  C   UNL     1     -13.974   5.503  34.959  0.00  0.00    +0.014 A 
ATOM     24  C   UNL     1     -13.787   6.028  32.648  0.00  0.00    +0.122 A 
ATOM     25  C   UNL     1     -13.571   6.799  35.255  0.00  0.00    +0.020 A 
ATOM     26  C   UNL     1     -13.293   7.651  34.198  0.00  0.00    +0.111 A 
ENDBRANCH  20  22
ENDBRANCH  10  18
BRANCH  13   1
ATOM      1  O   UNL     1     -13.837  -1.693  29.450  0.00  0.00    -0.390 OA
ATOM     27  H   UNL     1     -12.894  -1.925  29.408  0.00  0.00    +0.210 HD
ENDBRANCH  13   1
TORSDOF 4
ENDMDL
