MODEL 1
REMARK VINA RESULT:      -8.5      0.000      0.000
REMARK  Name = 11884043
REMARK  8 active torsions:
REMARK  status: ('A' for Active; 'I' for Inactive)
REMARK    1  A    between atoms: S_1  and  N_9
REMARK    2  A    between atoms: S_1  and  C_17
REMARK    3  A    between atoms: O_4  and  C_14
REMARK    4  A    between atoms: O_4  and  C_18
REMARK    5  A    between atoms: O_8  and  C_33
REMARK    6  A    between atoms: O_8  and  C_34
REMARK    7  A    between atoms: N_9  and  C_13
REMARK    8  A    between atoms: N_10  and  C_24
REMARK                            x       y       z     vdW  Elec       q    Type
REMARK                         _______ _______ _______ _____ _____    ______ ____
ROOT
ATOM      2  O   UNL     1      -5.595  -9.925  16.737  0.00  0.00    -0.369 OA
ATOM      3  O   UNL     1      -5.066 -12.051  18.897  0.00  0.00    -0.368 OA
ATOM     11  C   UNL     1      -5.217 -12.152  17.465  0.00  0.00    +0.171 C 
ATOM     12  C   UNL     1      -6.278 -11.148  17.063  0.00  0.00    +0.191 C 
ATOM     13  C   UNL     1      -3.967 -11.655  16.781  0.00  0.00    +0.133 C 
ATOM     14  C   UNL     1      -7.098 -11.012  18.323  0.00  0.00    +0.235 C 
ATOM     15  C   UNL     1      -4.179 -10.155  16.741  0.00  0.00    +0.183 C 
ATOM     16  C   UNL     1      -6.044 -11.130  19.401  0.00  0.00    +0.207 C 
ENDROOT
BRANCH  13   9
ATOM      9  N   UNL     1      -3.901 -12.189  15.399  0.00  0.00    -0.182 NA
ATOM     40  H   UNL     1      -4.592 -12.909  15.154  0.00  0.00    +0.148 HD
BRANCH   9   1
ATOM      1  S   UNL     1      -2.440 -12.121  14.537  0.00  0.00    +0.059 S 
ATOM      5  O   UNL     1      -2.096 -13.448  14.064  0.00  0.00    -0.153 OA
ATOM      6  O   UNL     1      -1.482 -11.349  15.303  0.00  0.00    -0.153 OA
BRANCH   1  17
ATOM     17  C   UNL     1      -2.888 -11.141  13.136  0.00  0.00    +0.106 A 
ATOM     19  C   UNL     1      -4.216 -10.753  12.953  0.00  0.00    +0.037 A 
ATOM     20  C   UNL     1      -1.918 -10.758  12.215  0.00  0.00    +0.029 A 
ATOM     21  C   UNL     1      -4.590  -9.975  11.845  0.00  0.00    -0.016 A 
ATOM     22  C   UNL     1      -2.271  -9.985  11.109  0.00  0.00    +0.010 A 
ATOM     23  C   UNL     1      -3.601  -9.585  10.909  0.00  0.00    -0.018 A 
ATOM     25  C   UNL     1      -5.920  -9.574  11.645  0.00  0.00    +0.008 A 
ATOM     26  C   UNL     1      -3.975  -8.807   9.800  0.00  0.00    +0.008 A 
ATOM     27  C   UNL     1      -6.273  -8.802  10.538  0.00  0.00    +0.001 A 
ATOM     30  C   UNL     1      -5.302  -8.419   9.618  0.00  0.00    +0.001 A 
ENDBRANCH   1  17
ENDBRANCH   9   1
ENDBRANCH  13   9
BRANCH  14   4
ATOM      4  O   UNL     1      -7.807  -9.797  18.406  0.00  0.00    -0.442 OA
BRANCH   4  18
ATOM      7  O   UNL     1      -9.781 -10.622  17.596  0.00  0.00    -0.226 OA
ATOM     10  N   UNL     1      -9.048  -8.459  17.079  0.00  0.00    -0.251 N 
ATOM     18  C   UNL     1      -8.973  -9.704  17.672  0.00  0.00    +0.405 C 
ATOM     41  H   UNL     1      -8.273  -7.826  17.263  0.00  0.00    +0.158 HD
BRANCH  10  24
ATOM     24  C   UNL     1     -10.072  -7.951  16.248  0.00  0.00    +0.037 A 
ATOM     28  C   UNL     1     -10.335  -8.554  15.018  0.00  0.00    +0.027 A 
ATOM     29  C   UNL     1     -10.822  -6.849  16.659  0.00  0.00    +0.027 A 
ATOM     31  C   UNL     1     -11.347  -8.053  14.198  0.00  0.00    +0.048 A 
ATOM     32  C   UNL     1     -11.834  -6.349  15.840  0.00  0.00    +0.048 A 
ATOM     33  C   UNL     1     -12.096  -6.951  14.609  0.00  0.00    +0.129 A 
BRANCH  33   8
ATOM      8  O   UNL     1     -13.085  -6.465  13.810  0.00  0.00    -0.456 OA
BRANCH   8  34
ATOM     34  C   UNL     1     -12.720  -5.608  12.785  0.00  0.00    +0.128 A 
ATOM     35  C   UNL     1     -12.587  -4.242  13.032  0.00  0.00    +0.046 A 
ATOM     36  C   UNL     1     -12.485  -6.111  11.505  0.00  0.00    +0.046 A 
ATOM     37  C   UNL     1     -12.219  -3.378  12.000  0.00  0.00    +0.004 A 
ATOM     38  C   UNL     1     -12.118  -5.247  10.473  0.00  0.00    +0.004 A 
ATOM     39  C   UNL     1     -11.985  -3.881  10.721  0.00  0.00    +0.000 A 
ENDBRANCH   8  34
ENDBRANCH  33   8
ENDBRANCH  10  24
ENDBRANCH   4  18
ENDBRANCH  14   4
TORSDOF 8
ENDMDL
MODEL 2
REMARK VINA RESULT:      -8.4     28.431     32.404
REMARK  Name = 11884043
REMARK  8 active torsions:
REMARK  status: ('A' for Active; 'I' for Inactive)
REMARK    1  A    between atoms: S_1  and  N_9
REMARK    2  A    between atoms: S_1  and  C_17
REMARK    3  A    between atoms: O_4  and  C_14
REMARK    4  A    between atoms: O_4  and  C_18
REMARK    5  A    between atoms: O_8  and  C_33
REMARK    6  A    between atoms: O_8  and  C_34
REMARK    7  A    between atoms: N_9  and  C_13
REMARK    8  A    between atoms: N_10  and  C_24
REMARK                            x       y       z     vdW  Elec       q    Type
REMARK                         _______ _______ _______ _____ _____    ______ ____
ROOT
ATOM      2  O   UNL     1      16.335   8.236  21.296  0.00  0.00    -0.369 OA
ATOM      3  O   UNL     1      15.969   6.046  19.167  0.00  0.00    -0.368 OA
ATOM     11  C   UNL     1      15.325   6.267  20.440  0.00  0.00    +0.171 C 
ATOM     12  C   UNL     1      16.385   6.802  21.382  0.00  0.00    +0.191 C 
ATOM     13  C   UNL     1      14.335   7.399  20.325  0.00  0.00    +0.133 C 
ATOM     14  C   UNL     1      17.660   6.250  20.791  0.00  0.00    +0.235 C 
ATOM     15  C   UNL     1      15.206   8.627  20.502  0.00  0.00    +0.183 C 
ATOM     16  C   UNL     1      17.373   6.307  19.307  0.00  0.00    +0.207 C 
ENDROOT
BRANCH  13   9
ATOM      9  N   UNL     1      13.347   7.321  21.428  0.00  0.00    -0.182 NA
ATOM     40  H   UNL     1      13.582   6.695  22.208  0.00  0.00    +0.148 HD
BRANCH   9   1
ATOM      1  S   UNL     1      11.717   7.689  21.129  0.00  0.00    +0.059 S 
ATOM      5  O   UNL     1      10.873   6.873  21.982  0.00  0.00    -0.153 OA
ATOM      6  O   UNL     1      11.499   7.711  19.695  0.00  0.00    -0.153 OA
BRANCH   1  17
ATOM     17  C   UNL     1      11.610   9.360  21.692  0.00  0.00    +0.106 A 
ATOM     19  C   UNL     1      11.330   9.627  23.033  0.00  0.00    +0.037 A 
ATOM     20  C   UNL     1      11.803  10.410  20.799  0.00  0.00    +0.029 A 
ATOM     21  C   UNL     1      11.242  10.950  23.497  0.00  0.00    -0.016 A 
ATOM     22  C   UNL     1      11.719  11.729  21.243  0.00  0.00    +0.010 A 
ATOM     23  C   UNL     1      11.439  12.017  22.588  0.00  0.00    -0.018 A 
ATOM     25  C   UNL     1      10.962  11.237  24.843  0.00  0.00    +0.008 A 
ATOM     26  C   UNL     1      11.349  13.340  23.052  0.00  0.00    +0.008 A 
ATOM     27  C   UNL     1      10.876  12.558  25.286  0.00  0.00    +0.001 A 
ATOM     30  C   UNL     1      11.070  13.606  24.393  0.00  0.00    +0.001 A 
ENDBRANCH   1  17
ENDBRANCH   9   1
ENDBRANCH  13   9
BRANCH  14   4
ATOM      4  O   UNL     1      18.808   6.990  21.138  0.00  0.00    -0.442 OA
BRANCH   4  18
ATOM      7  O   UNL     1      20.152   6.226  22.824  0.00  0.00    -0.226 OA
ATOM     10  N   UNL     1      20.557   5.676  20.584  0.00  0.00    -0.251 N 
ATOM     18  C   UNL     1      19.884   6.279  21.629  0.00  0.00    +0.405 C 
ATOM     41  H   UNL     1      20.178   5.837  19.654  0.00  0.00    +0.158 HD
BRANCH  10  24
ATOM     24  C   UNL     1      21.708   4.860  20.646  0.00  0.00    +0.037 A 
ATOM     28  C   UNL     1      22.960   5.396  20.342  0.00  0.00    +0.027 A 
ATOM     29  C   UNL     1      21.594   3.519  21.013  0.00  0.00    +0.027 A 
ATOM     31  C   UNL     1      24.097   4.590  20.405  0.00  0.00    +0.048 A 
ATOM     32  C   UNL     1      22.731   2.713  21.076  0.00  0.00    +0.048 A 
ATOM     33  C   UNL     1      23.982   3.249  20.771  0.00  0.00    +0.129 A 
BRANCH  33   8
ATOM      8  O   UNL     1      25.093   2.464  20.834  0.00  0.00    -0.456 OA
BRANCH   8  34
ATOM     34  C   UNL     1      25.390   1.868  22.049  0.00  0.00    +0.128 A 
ATOM     35  C   UNL     1      25.348   0.480  22.173  0.00  0.00    +0.046 A 
ATOM     36  C   UNL     1      25.733   2.656  23.148  0.00  0.00    +0.046 A 
ATOM     37  C   UNL     1      25.648  -0.122  23.396  0.00  0.00    +0.004 A 
ATOM     38  C   UNL     1      26.033   2.055  24.370  0.00  0.00    +0.004 A 
ATOM     39  C   UNL     1      25.991   0.667  24.494  0.00  0.00    +0.000 A 
ENDBRANCH   8  34
ENDBRANCH  33   8
ENDBRANCH  10  24
ENDBRANCH   4  18
ENDBRANCH  14   4
TORSDOF 8
ENDMDL
MODEL 3
REMARK VINA RESULT:      -8.1      3.732      4.750
REMARK  Name = 11884043
REMARK  8 active torsions:
REMARK  status: ('A' for Active; 'I' for Inactive)
REMARK    1  A    between atoms: S_1  and  N_9
REMARK    2  A    between atoms: S_1  and  C_17
REMARK    3  A    between atoms: O_4  and  C_14
REMARK    4  A    between atoms: O_4  and  C_18
REMARK    5  A    between atoms: O_8  and  C_33
REMARK    6  A    between atoms: O_8  and  C_34
REMARK    7  A    between atoms: N_9  and  C_13
REMARK    8  A    between atoms: N_10  and  C_24
REMARK                            x       y       z     vdW  Elec       q    Type
REMARK                         _______ _______ _______ _____ _____    ______ ____
ROOT
ATOM      2  O   UNL     1      -5.107 -10.708  18.335  0.00  0.00    -0.369 OA
ATOM      3  O   UNL     1      -6.471 -12.534  16.269  0.00  0.00    -0.368 OA
ATOM     11  C   UNL     1      -5.728 -11.304  16.124  0.00  0.00    +0.171 C 
ATOM     12  C   UNL     1      -6.081 -10.435  17.314  0.00  0.00    +0.191 C 
ATOM     13  C   UNL     1      -4.253 -11.573  16.294  0.00  0.00    +0.133 C 
ATOM     14  C   UNL     1      -7.451 -10.941  17.698  0.00  0.00    +0.235 C 
ATOM     15  C   UNL     1      -4.079 -11.553  17.799  0.00  0.00    +0.183 C 
ATOM     16  C   UNL     1      -7.334 -12.421  17.410  0.00  0.00    +0.207 C 
ENDROOT
BRANCH  13   9
ATOM      9  N   UNL     1      -3.466 -10.475  15.682  0.00  0.00    -0.182 NA
ATOM     40  H   UNL     1      -3.962  -9.589  15.527  0.00  0.00    +0.148 HD
BRANCH   9   1
ATOM      1  S   UNL     1      -2.110 -10.839  14.728  0.00  0.00    +0.059 S 
ATOM      5  O   UNL     1      -1.899 -12.274  14.715  0.00  0.00    -0.153 OA
ATOM      6  O   UNL     1      -1.028  -9.946  15.095  0.00  0.00    -0.153 OA
BRANCH   1  17
ATOM     17  C   UNL     1      -2.656 -10.353  13.119  0.00  0.00    +0.106 A 
ATOM     19  C   UNL     1      -4.018 -10.348  12.817  0.00  0.00    +0.037 A 
ATOM     20  C   UNL     1      -1.727  -9.977  12.153  0.00  0.00    +0.029 A 
ATOM     21  C   UNL     1      -4.469  -9.965  11.543  0.00  0.00    -0.016 A 
ATOM     22  C   UNL     1      -2.157  -9.594  10.883  0.00  0.00    +0.010 A 
ATOM     23  C   UNL     1      -3.523  -9.582  10.561  0.00  0.00    -0.018 A 
ATOM     25  C   UNL     1      -5.835  -9.953  11.222  0.00  0.00    +0.008 A 
ATOM     26  C   UNL     1      -3.974  -9.201   9.286  0.00  0.00    +0.008 A 
ATOM     27  C   UNL     1      -6.265  -9.571   9.950  0.00  0.00    +0.001 A 
ATOM     30  C   UNL     1      -5.336  -9.195   8.985  0.00  0.00    +0.001 A 
ENDBRANCH   1  17
ENDBRANCH   9   1
ENDBRANCH  13   9
BRANCH  14   4
ATOM      4  O   UNL     1      -7.789 -10.687  19.042  0.00  0.00    -0.442 OA
BRANCH   4  18
ATOM      7  O   UNL     1      -9.359 -12.023  20.033  0.00  0.00    -0.226 OA
ATOM     10  N   UNL     1      -9.933  -9.985  19.034  0.00  0.00    -0.251 N 
ATOM     18  C   UNL     1      -9.077 -10.994  19.430  0.00  0.00    +0.405 C 
ATOM     41  H   UNL     1      -9.508  -9.204  18.541  0.00  0.00    +0.158 HD
BRANCH  10  24
ATOM     24  C   UNL     1     -11.330  -9.901  19.231  0.00  0.00    +0.037 A 
ATOM     28  C   UNL     1     -12.177  -9.700  18.141  0.00  0.00    +0.027 A 
ATOM     29  C   UNL     1     -11.862 -10.023  20.514  0.00  0.00    +0.027 A 
ATOM     31  C   UNL     1     -13.556  -9.619  18.335  0.00  0.00    +0.048 A 
ATOM     32  C   UNL     1     -13.241  -9.942  20.709  0.00  0.00    +0.048 A 
ATOM     33  C   UNL     1     -14.087  -9.740  19.618  0.00  0.00    +0.129 A 
BRANCH  33   8
ATOM      8  O   UNL     1     -15.434  -9.663  19.807  0.00  0.00    -0.456 OA
BRANCH   8  34
ATOM     34  C   UNL     1     -15.973  -8.420  20.092  0.00  0.00    +0.128 A 
ATOM     35  C   UNL     1     -16.545  -7.657  19.074  0.00  0.00    +0.046 A 
ATOM     36  C   UNL     1     -15.945  -7.930  21.398  0.00  0.00    +0.046 A 
ATOM     37  C   UNL     1     -17.088  -6.404  19.361  0.00  0.00    +0.004 A 
ATOM     38  C   UNL     1     -16.489  -6.678  21.686  0.00  0.00    +0.004 A 
ATOM     39  C   UNL     1     -17.060  -5.916  20.667  0.00  0.00    +0.000 A 
ENDBRANCH   8  34
ENDBRANCH  33   8
ENDBRANCH  10  24
ENDBRANCH   4  18
ENDBRANCH  14   4
TORSDOF 8
ENDMDL
MODEL 4
REMARK VINA RESULT:      -7.9      4.058      7.355
REMARK  Name = 11884043
REMARK  8 active torsions:
REMARK  status: ('A' for Active; 'I' for Inactive)
REMARK    1  A    between atoms: S_1  and  N_9
REMARK    2  A    between atoms: S_1  and  C_17
REMARK    3  A    between atoms: O_4  and  C_14
REMARK    4  A    between atoms: O_4  and  C_18
REMARK    5  A    between atoms: O_8  and  C_33
REMARK    6  A    between atoms: O_8  and  C_34
REMARK    7  A    between atoms: N_9  and  C_13
REMARK    8  A    between atoms: N_10  and  C_24
REMARK                            x       y       z     vdW  Elec       q    Type
REMARK                         _______ _______ _______ _____ _____    ______ ____
ROOT
ATOM      2  O   UNL     1      -6.947 -10.224   8.961  0.00  0.00    -0.369 OA
ATOM      3  O   UNL     1      -4.843 -10.942   6.835  0.00  0.00    -0.368 OA
ATOM     11  C   UNL     1      -4.788 -10.076   7.988  0.00  0.00    +0.171 C 
ATOM     12  C   UNL     1      -6.142  -9.404   8.098  0.00  0.00    +0.191 C 
ATOM     13  C   UNL     1      -4.688 -10.902   9.247  0.00  0.00    +0.133 C 
ATOM     14  C   UNL     1      -6.640  -9.433   6.673  0.00  0.00    +0.235 C 
ATOM     15  C   UNL     1      -6.133 -11.260   9.530  0.00  0.00    +0.183 C 
ATOM     16  C   UNL     1      -6.104 -10.756   6.176  0.00  0.00    +0.207 C 
ENDROOT
BRANCH  13   9
ATOM      9  N   UNL     1      -4.150 -10.074  10.354  0.00  0.00    -0.182 NA
ATOM     40  H   UNL     1      -4.134  -9.058  10.198  0.00  0.00    +0.148 HD
BRANCH   9   1
ATOM      1  S   UNL     1      -3.064 -10.754  11.466  0.00  0.00    +0.059 S 
ATOM      5  O   UNL     1      -1.869  -9.934  11.539  0.00  0.00    -0.153 OA
ATOM      6  O   UNL     1      -2.956 -12.176  11.203  0.00  0.00    -0.153 OA
BRANCH   1  17
ATOM     17  C   UNL     1      -3.942 -10.577  12.989  0.00  0.00    +0.106 A 
ATOM     19  C   UNL     1      -3.322 -10.912  14.194  0.00  0.00    +0.037 A 
ATOM     20  C   UNL     1      -5.251 -10.105  12.987  0.00  0.00    +0.029 A 
ATOM     21  C   UNL     1      -4.006 -10.778  15.413  0.00  0.00    -0.016 A 
ATOM     22  C   UNL     1      -5.945  -9.964  14.189  0.00  0.00    +0.010 A 
ATOM     23  C   UNL     1      -5.338 -10.297  15.410  0.00  0.00    -0.018 A 
ATOM     25  C   UNL     1      -3.398 -11.109  16.635  0.00  0.00    +0.008 A 
ATOM     26  C   UNL     1      -6.022 -10.164  16.630  0.00  0.00    +0.008 A 
ATOM     27  C   UNL     1      -4.093 -10.971  17.837  0.00  0.00    +0.001 A 
ATOM     30  C   UNL     1      -5.402 -10.498  17.834  0.00  0.00    +0.001 A 
ENDBRANCH   1  17
ENDBRANCH   9   1
ENDBRANCH  13   9
BRANCH  14   4
ATOM      4  O   UNL     1      -8.044  -9.356   6.565  0.00  0.00    -0.442 OA
BRANCH   4  18
ATOM      7  O   UNL     1      -8.445  -7.297   5.652  0.00  0.00    -0.226 OA
ATOM     10  N   UNL     1      -9.321  -7.910   7.735  0.00  0.00    -0.251 N 
ATOM     18  C   UNL     1      -8.601  -8.093   6.571  0.00  0.00    +0.405 C 
ATOM     41  H   UNL     1      -9.335  -8.695   8.383  0.00  0.00    +0.158 HD
BRANCH  10  24
ATOM     24  C   UNL     1     -10.047  -6.767   8.139  0.00  0.00    +0.037 A 
ATOM     28  C   UNL     1      -9.371  -5.589   8.458  0.00  0.00    +0.027 A 
ATOM     29  C   UNL     1     -11.439  -6.815   8.218  0.00  0.00    +0.027 A 
ATOM     31  C   UNL     1     -10.087  -4.460   8.856  0.00  0.00    +0.048 A 
ATOM     32  C   UNL     1     -12.155  -5.687   8.616  0.00  0.00    +0.048 A 
ATOM     33  C   UNL     1     -11.479  -4.509   8.934  0.00  0.00    +0.129 A 
BRANCH  33   8
ATOM      8  O   UNL     1     -12.177  -3.406   9.320  0.00  0.00    -0.456 OA
BRANCH   8  34
ATOM     34  C   UNL     1     -12.884  -3.476  10.510  0.00  0.00    +0.128 A 
ATOM     35  C   UNL     1     -14.245  -3.171  10.531  0.00  0.00    +0.046 A 
ATOM     36  C   UNL     1     -12.235  -3.852  11.686  0.00  0.00    +0.046 A 
ATOM     37  C   UNL     1     -14.957  -3.241  11.729  0.00  0.00    +0.004 A 
ATOM     38  C   UNL     1     -12.946  -3.922  12.883  0.00  0.00    +0.004 A 
ATOM     39  C   UNL     1     -14.307  -3.617  12.904  0.00  0.00    +0.000 A 
ENDBRANCH   8  34
ENDBRANCH  33   8
ENDBRANCH  10  24
ENDBRANCH   4  18
ENDBRANCH  14   4
TORSDOF 8
ENDMDL
MODEL 5
REMARK VINA RESULT:      -7.9      2.773      7.088
REMARK  Name = 11884043
REMARK  8 active torsions:
REMARK  status: ('A' for Active; 'I' for Inactive)
REMARK    1  A    between atoms: S_1  and  N_9
REMARK    2  A    between atoms: S_1  and  C_17
REMARK    3  A    between atoms: O_4  and  C_14
REMARK    4  A    between atoms: O_4  and  C_18
REMARK    5  A    between atoms: O_8  and  C_33
REMARK    6  A    between atoms: O_8  and  C_34
REMARK    7  A    between atoms: N_9  and  C_13
REMARK    8  A    between atoms: N_10  and  C_24
REMARK                            x       y       z     vdW  Elec       q    Type
REMARK                         _______ _______ _______ _____ _____    ______ ____
ROOT
ATOM      2  O   UNL     1      -4.351 -11.994  14.954  0.00  0.00    -0.369 OA
ATOM      3  O   UNL     1      -2.102 -10.865  16.724  0.00  0.00    -0.368 OA
ATOM     11  C   UNL     1      -3.473 -10.455  16.533  0.00  0.00    +0.171 C 
ATOM     12  C   UNL     1      -3.797 -10.672  15.069  0.00  0.00    +0.191 C 
ATOM     13  C   UNL     1      -4.397 -11.404  17.256  0.00  0.00    +0.133 C 
ATOM     14  C   UNL     1      -2.440 -10.576  14.413  0.00  0.00    +0.235 C 
ATOM     15  C   UNL     1      -4.553 -12.541  16.265  0.00  0.00    +0.183 C 
ATOM     16  C   UNL     1      -1.541 -11.212  15.449  0.00  0.00    +0.207 C 
ENDROOT
BRANCH  13   9
ATOM      9  N   UNL     1      -5.711 -10.754  17.484  0.00  0.00    -0.182 NA
ATOM     40  H   UNL     1      -5.834  -9.818  17.079  0.00  0.00    +0.148 HD
BRANCH   9   1
ATOM      1  S   UNL     1      -6.653 -11.203  18.822  0.00  0.00    +0.059 S 
ATOM      5  O   UNL     1      -6.146 -10.547  20.013  0.00  0.00    -0.153 OA
ATOM      6  O   UNL     1      -6.834 -12.642  18.804  0.00  0.00    -0.153 OA
BRANCH   1  17
ATOM     17  C   UNL     1      -8.217 -10.483  18.426  0.00  0.00    +0.106 A 
ATOM     19  C   UNL     1      -8.291  -9.446  17.495  0.00  0.00    +0.037 A 
ATOM     20  C   UNL     1      -9.374 -10.948  19.044  0.00  0.00    +0.029 A 
ATOM     21  C   UNL     1      -9.526  -8.862  17.169  0.00  0.00    -0.016 A 
ATOM     22  C   UNL     1     -10.610 -10.380  18.731  0.00  0.00    +0.010 A 
ATOM     23  C   UNL     1     -10.703  -9.336  17.797  0.00  0.00    -0.018 A 
ATOM     25  C   UNL     1      -9.620  -7.819  16.233  0.00  0.00    +0.008 A 
ATOM     26  C   UNL     1     -11.938  -8.751  17.472  0.00  0.00    +0.008 A 
ATOM     27  C   UNL     1     -10.855  -7.249  15.923  0.00  0.00    +0.001 A 
ATOM     30  C   UNL     1     -12.012  -7.715  16.540  0.00  0.00    +0.001 A 
ENDBRANCH   1  17
ENDBRANCH   9   1
ENDBRANCH  13   9
BRANCH  14   4
ATOM      4  O   UNL     1      -2.367 -11.236  13.170  0.00  0.00    -0.442 OA
BRANCH   4  18
ATOM      7  O   UNL     1      -1.955  -9.873  11.380  0.00  0.00    -0.226 OA
ATOM     10  N   UNL     1      -4.111 -10.648  11.865  0.00  0.00    -0.251 N 
ATOM     18  C   UNL     1      -2.749 -10.516  12.057  0.00  0.00    +0.405 C 
ATOM     41  H   UNL     1      -4.605 -11.229  12.538  0.00  0.00    +0.158 HD
BRANCH  10  24
ATOM     24  C   UNL     1      -4.906 -10.077  10.847  0.00  0.00    +0.037 A 
ATOM     28  C   UNL     1      -5.598 -10.899   9.958  0.00  0.00    +0.027 A 
ATOM     29  C   UNL     1      -5.001  -8.689  10.731  0.00  0.00    +0.027 A 
ATOM     31  C   UNL     1      -6.384 -10.335   8.953  0.00  0.00    +0.048 A 
ATOM     32  C   UNL     1      -5.787  -8.125   9.727  0.00  0.00    +0.048 A 
ATOM     33  C   UNL     1      -6.478  -8.948   8.838  0.00  0.00    +0.129 A 
BRANCH  33   8
ATOM      8  O   UNL     1      -7.248  -8.398   7.859  0.00  0.00    -0.456 OA
BRANCH   8  34
ATOM     34  C   UNL     1      -8.304  -7.591   8.249  0.00  0.00    +0.128 A 
ATOM     35  C   UNL     1      -8.260  -6.219   8.003  0.00  0.00    +0.046 A 
ATOM     36  C   UNL     1      -9.412  -8.150   8.886  0.00  0.00    +0.046 A 
ATOM     37  C   UNL     1      -9.323  -5.404   8.396  0.00  0.00    +0.004 A 
ATOM     38  C   UNL     1     -10.475  -7.336   9.278  0.00  0.00    +0.004 A 
ATOM     39  C   UNL     1     -10.431  -5.964   9.032  0.00  0.00    +0.000 A 
ENDBRANCH   8  34
ENDBRANCH  33   8
ENDBRANCH  10  24
ENDBRANCH   4  18
ENDBRANCH  14   4
TORSDOF 8
ENDMDL
MODEL 6
REMARK VINA RESULT:      -7.8      3.494      6.681
REMARK  Name = 11884043
REMARK  8 active torsions:
REMARK  status: ('A' for Active; 'I' for Inactive)
REMARK    1  A    between atoms: S_1  and  N_9
REMARK    2  A    between atoms: S_1  and  C_17
REMARK    3  A    between atoms: O_4  and  C_14
REMARK    4  A    between atoms: O_4  and  C_18
REMARK    5  A    between atoms: O_8  and  C_33
REMARK    6  A    between atoms: O_8  and  C_34
REMARK    7  A    between atoms: N_9  and  C_13
REMARK    8  A    between atoms: N_10  and  C_24
REMARK                            x       y       z     vdW  Elec       q    Type
REMARK                         _______ _______ _______ _____ _____    ______ ____
ROOT
ATOM      2  O   UNL     1      -6.539 -11.014  10.219  0.00  0.00    -0.369 OA
ATOM      3  O   UNL     1      -4.270  -9.851   8.498  0.00  0.00    -0.368 OA
ATOM     11  C   UNL     1      -4.651  -9.618   9.870  0.00  0.00    +0.171 C 
ATOM     12  C   UNL     1      -6.166  -9.658   9.918  0.00  0.00    +0.191 C 
ATOM     13  C   UNL     1      -4.228 -10.787  10.726  0.00  0.00    +0.133 C 
ATOM     14  C   UNL     1      -6.550  -9.271   8.511  0.00  0.00    +0.235 C 
ATOM     15  C   UNL     1      -5.363 -11.774  10.532  0.00  0.00    +0.183 C 
ATOM     16  C   UNL     1      -5.456  -9.920   7.693  0.00  0.00    +0.207 C 
ENDROOT
BRANCH  13   9
ATOM      9  N   UNL     1      -4.161 -10.374  12.148  0.00  0.00    -0.182 NA
ATOM     40  H   UNL     1      -4.612  -9.482  12.387  0.00  0.00    +0.148 HD
BRANCH   9   1
ATOM      1  S   UNL     1      -2.910 -10.955  13.138  0.00  0.00    +0.059 S 
ATOM      5  O   UNL     1      -1.792 -10.032  13.097  0.00  0.00    -0.153 OA
ATOM      6  O   UNL     1      -2.704 -12.362  12.851  0.00  0.00    -0.153 OA
BRANCH   1  17
ATOM     17  C   UNL     1      -3.640 -10.859  14.744  0.00  0.00    +0.106 A 
ATOM     19  C   UNL     1      -4.953 -10.407  14.887  0.00  0.00    +0.037 A 
ATOM     20  C   UNL     1      -2.905 -11.230  15.866  0.00  0.00    +0.029 A 
ATOM     21  C   UNL     1      -5.548 -10.324  16.156  0.00  0.00    -0.016 A 
ATOM     22  C   UNL     1      -3.481 -11.155  17.134  0.00  0.00    +0.010 A 
ATOM     23  C   UNL     1      -4.800 -10.703  17.297  0.00  0.00    -0.018 A 
ATOM     25  C   UNL     1      -6.868  -9.874  16.319  0.00  0.00    +0.008 A 
ATOM     26  C   UNL     1      -5.395 -10.619  18.567  0.00  0.00    +0.008 A 
ATOM     27  C   UNL     1      -7.443  -9.796  17.588  0.00  0.00    +0.001 A 
ATOM     30  C   UNL     1      -6.708 -10.169  18.710  0.00  0.00    +0.001 A 
ENDBRANCH   1  17
ENDBRANCH   9   1
ENDBRANCH  13   9
BRANCH  14   4
ATOM      4  O   UNL     1      -7.832  -9.721   8.133  0.00  0.00    -0.442 OA
BRANCH   4  18
ATOM      7  O   UNL     1      -9.785  -9.474   9.297  0.00  0.00    -0.226 OA
ATOM     10  N   UNL     1      -8.816  -7.691   8.130  0.00  0.00    -0.251 N 
ATOM     18  C   UNL     1      -8.909  -8.990   8.591  0.00  0.00    +0.405 C 
ATOM     41  H   UNL     1      -8.007  -7.477   7.551  0.00  0.00    +0.158 HD
BRANCH  10  24
ATOM     24  C   UNL     1      -9.706  -6.619   8.363  0.00  0.00    +0.037 A 
ATOM     28  C   UNL     1     -11.083  -6.843   8.363  0.00  0.00    +0.027 A 
ATOM     29  C   UNL     1      -9.208  -5.337   8.596  0.00  0.00    +0.027 A 
ATOM     31  C   UNL     1     -11.962  -5.784   8.595  0.00  0.00    +0.048 A 
ATOM     32  C   UNL     1     -10.086  -4.278   8.828  0.00  0.00    +0.048 A 
ATOM     33  C   UNL     1     -11.463  -4.502   8.827  0.00  0.00    +0.129 A 
BRANCH  33   8
ATOM      8  O   UNL     1     -12.321  -3.470   9.056  0.00  0.00    -0.456 OA
BRANCH   8  34
ATOM     34  C   UNL     1     -13.046  -3.487  10.236  0.00  0.00    +0.128 A 
ATOM     35  C   UNL     1     -12.385  -3.589  11.459  0.00  0.00    +0.046 A 
ATOM     36  C   UNL     1     -14.438  -3.401  10.200  0.00  0.00    +0.046 A 
ATOM     37  C   UNL     1     -13.116  -3.606  12.648  0.00  0.00    +0.004 A 
ATOM     38  C   UNL     1     -15.168  -3.417  11.388  0.00  0.00    +0.004 A 
ATOM     39  C   UNL     1     -14.507  -3.519  12.612  0.00  0.00    +0.000 A 
ENDBRANCH   8  34
ENDBRANCH  33   8
ENDBRANCH  10  24
ENDBRANCH   4  18
ENDBRANCH  14   4
TORSDOF 8
ENDMDL
MODEL 7
REMARK VINA RESULT:      -7.6      3.601      8.240
REMARK  Name = 11884043
REMARK  8 active torsions:
REMARK  status: ('A' for Active; 'I' for Inactive)
REMARK    1  A    between atoms: S_1  and  N_9
REMARK    2  A    between atoms: S_1  and  C_17
REMARK    3  A    between atoms: O_4  and  C_14
REMARK    4  A    between atoms: O_4  and  C_18
REMARK    5  A    between atoms: O_8  and  C_33
REMARK    6  A    between atoms: O_8  and  C_34
REMARK    7  A    between atoms: N_9  and  C_13
REMARK    8  A    between atoms: N_10  and  C_24
REMARK                            x       y       z     vdW  Elec       q    Type
REMARK                         _______ _______ _______ _____ _____    ______ ____
ROOT
ATOM      2  O   UNL     1      -5.296  -9.250  12.144  0.00  0.00    -0.369 OA
ATOM      3  O   UNL     1      -3.584 -10.286   9.807  0.00  0.00    -0.368 OA
ATOM     11  C   UNL     1      -4.936 -10.585  10.215  0.00  0.00    +0.171 C 
ATOM     12  C   UNL     1      -4.948 -10.583  11.731  0.00  0.00    +0.191 C 
ATOM     13  C   UNL     1      -5.850  -9.444   9.841  0.00  0.00    +0.133 C 
ATOM     14  C   UNL     1      -3.516 -10.919  12.072  0.00  0.00    +0.235 C 
ATOM     15  C   UNL     1      -5.669  -8.477  10.994  0.00  0.00    +0.183 C 
ATOM     16  C   UNL     1      -2.754 -10.211  10.975  0.00  0.00    +0.207 C 
ENDROOT
BRANCH  13   9
ATOM      9  N   UNL     1      -7.255  -9.915   9.798  0.00  0.00    -0.182 NA
ATOM     40  H   UNL     1      -7.510 -10.655  10.464  0.00  0.00    +0.148 HD
BRANCH   9   1
ATOM      1  S   UNL     1      -8.158  -9.746   8.371  0.00  0.00    +0.059 S 
ATOM      5  O   UNL     1      -9.289 -10.655   8.403  0.00  0.00    -0.153 OA
ATOM      6  O   UNL     1      -7.250  -9.753   7.240  0.00  0.00    -0.153 OA
BRANCH   1  17
ATOM     17  C   UNL     1      -8.777  -8.098   8.523  0.00  0.00    +0.106 A 
ATOM     19  C   UNL     1      -9.983  -7.865   9.186  0.00  0.00    +0.037 A 
ATOM     20  C   UNL     1      -8.063  -7.033   7.981  0.00  0.00    +0.029 A 
ATOM     21  C   UNL     1     -10.489  -6.562   9.316  0.00  0.00    -0.016 A 
ATOM     22  C   UNL     1      -8.551  -5.732   8.102  0.00  0.00    +0.010 A 
ATOM     23  C   UNL     1      -9.762  -5.479   8.765  0.00  0.00    -0.018 A 
ATOM     25  C   UNL     1     -11.700  -6.308   9.981  0.00  0.00    +0.008 A 
ATOM     26  C   UNL     1     -10.269  -4.175   8.894  0.00  0.00    +0.008 A 
ATOM     27  C   UNL     1     -12.189  -5.006  10.099  0.00  0.00    +0.001 A 
ATOM     30  C   UNL     1     -11.474  -3.942   9.558  0.00  0.00    +0.001 A 
ENDBRANCH   1  17
ENDBRANCH   9   1
ENDBRANCH  13   9
BRANCH  14   4
ATOM      4  O   UNL     1      -3.126 -10.483  13.355  0.00  0.00    -0.442 OA
BRANCH   4  18
ATOM      7  O   UNL     1      -3.750 -12.264  14.648  0.00  0.00    -0.226 OA
ATOM     10  N   UNL     1      -4.404 -10.077  15.169  0.00  0.00    -0.251 N 
ATOM     18  C   UNL     1      -3.771 -11.058  14.431  0.00  0.00    +0.405 C 
ATOM     41  H   UNL     1      -4.305  -9.124  14.828  0.00  0.00    +0.158 HD
BRANCH  10  24
ATOM     24  C   UNL     1      -5.173 -10.232  16.344  0.00  0.00    +0.037 A 
ATOM     28  C   UNL     1      -4.571 -10.687  17.517  0.00  0.00    +0.027 A 
ATOM     29  C   UNL     1      -6.534  -9.926  16.332  0.00  0.00    +0.027 A 
ATOM     31  C   UNL     1      -5.331 -10.838  18.678  0.00  0.00    +0.048 A 
ATOM     32  C   UNL     1      -7.294 -10.077  17.492  0.00  0.00    +0.048 A 
ATOM     33  C   UNL     1      -6.691 -10.533  18.665  0.00  0.00    +0.129 A 
BRANCH  33   8
ATOM      8  O   UNL     1      -7.431 -10.678  19.798  0.00  0.00    -0.456 OA
BRANCH   8  34
ATOM     34  C   UNL     1      -8.483 -11.578  19.769  0.00  0.00    +0.128 A 
ATOM     35  C   UNL     1      -9.794 -11.124  19.910  0.00  0.00    +0.046 A 
ATOM     36  C   UNL     1      -8.232 -12.940  19.597  0.00  0.00    +0.046 A 
ATOM     37  C   UNL     1     -10.854 -12.031  19.880  0.00  0.00    +0.004 A 
ATOM     38  C   UNL     1      -9.291 -13.846  19.568  0.00  0.00    +0.004 A 
ATOM     39  C   UNL     1     -10.602 -13.391  19.708  0.00  0.00    +0.000 A 
ENDBRANCH   8  34
ENDBRANCH  33   8
ENDBRANCH  10  24
ENDBRANCH   4  18
ENDBRANCH  14   4
TORSDOF 8
ENDMDL
MODEL 8
REMARK VINA RESULT:      -7.5      3.460      5.959
REMARK  Name = 11884043
REMARK  8 active torsions:
REMARK  status: ('A' for Active; 'I' for Inactive)
REMARK    1  A    between atoms: S_1  and  N_9
REMARK    2  A    between atoms: S_1  and  C_17
REMARK    3  A    between atoms: O_4  and  C_14
REMARK    4  A    between atoms: O_4  and  C_18
REMARK    5  A    between atoms: O_8  and  C_33
REMARK    6  A    between atoms: O_8  and  C_34
REMARK    7  A    between atoms: N_9  and  C_13
REMARK    8  A    between atoms: N_10  and  C_24
REMARK                            x       y       z     vdW  Elec       q    Type
REMARK                         _______ _______ _______ _____ _____    ______ ____
ROOT
ATOM      2  O   UNL     1     -10.732  -8.310  17.833  0.00  0.00    -0.369 OA
ATOM      3  O   UNL     1      -9.696  -9.158  15.063  0.00  0.00    -0.368 OA
ATOM     11  C   UNL     1      -9.010  -8.698  16.247  0.00  0.00    +0.171 C 
ATOM     12  C   UNL     1      -9.889  -7.639  16.881  0.00  0.00    +0.191 C 
ATOM     13  C   UNL     1      -8.966  -9.800  17.276  0.00  0.00    +0.133 C 
ATOM     14  C   UNL     1     -10.679  -7.118  15.704  0.00  0.00    +0.235 C 
ATOM     15  C   UNL     1     -10.315  -9.677  17.957  0.00  0.00    +0.183 C 
ATOM     16  C   UNL     1     -10.881  -8.370  14.879  0.00  0.00    +0.207 C 
ENDROOT
BRANCH  13   9
ATOM      9  N   UNL     1      -7.885  -9.535  18.255  0.00  0.00    -0.182 NA
ATOM     40  H   UNL     1      -7.397  -8.635  18.165  0.00  0.00    +0.148 HD
BRANCH   9   1
ATOM      1  S   UNL     1      -7.086 -10.833  19.003  0.00  0.00    +0.059 S 
ATOM      5  O   UNL     1      -8.030 -11.907  19.243  0.00  0.00    -0.153 OA
ATOM      6  O   UNL     1      -6.276 -10.318  20.090  0.00  0.00    -0.153 OA
BRANCH   1  17
ATOM     17  C   UNL     1      -5.974 -11.357  17.734  0.00  0.00    +0.106 A 
ATOM     19  C   UNL     1      -4.712 -10.770  17.627  0.00  0.00    +0.037 A 
ATOM     20  C   UNL     1      -6.356 -12.353  16.840  0.00  0.00    +0.029 A 
ATOM     21  C   UNL     1      -3.816 -11.174  16.624  0.00  0.00    -0.016 A 
ATOM     22  C   UNL     1      -5.479 -12.767  15.838  0.00  0.00    +0.010 A 
ATOM     23  C   UNL     1      -4.206 -12.188  15.716  0.00  0.00    -0.018 A 
ATOM     25  C   UNL     1      -2.542 -10.596  16.502  0.00  0.00    +0.008 A 
ATOM     26  C   UNL     1      -3.310 -12.592  14.712  0.00  0.00    +0.008 A 
ATOM     27  C   UNL     1      -1.665 -11.009  15.498  0.00  0.00    +0.001 A 
ATOM     30  C   UNL     1      -2.048 -12.006  14.606  0.00  0.00    +0.001 A 
ENDBRANCH   1  17
ENDBRANCH   9   1
ENDBRANCH  13   9
BRANCH  14   4
ATOM      4  O   UNL     1     -11.902  -6.520  16.067  0.00  0.00    -0.442 OA
BRANCH   4  18
ATOM      7  O   UNL     1     -13.784  -6.848  14.808  0.00  0.00    -0.226 OA
ATOM     10  N   UNL     1     -12.305  -5.086  14.372  0.00  0.00    -0.251 N 
ATOM     18  C   UNL     1     -12.769  -6.201  15.042  0.00  0.00    +0.405 C 
ATOM     41  H   UNL     1     -11.436  -4.684  14.717  0.00  0.00    +0.158 HD
BRANCH  10  24
ATOM     24  C   UNL     1     -12.887  -4.430  13.264  0.00  0.00    +0.037 A 
ATOM     28  C   UNL     1     -12.141  -4.224  12.104  0.00  0.00    +0.027 A 
ATOM     29  C   UNL     1     -14.210  -3.991  13.330  0.00  0.00    +0.027 A 
ATOM     31  C   UNL     1     -12.718  -3.578  11.010  0.00  0.00    +0.048 A 
ATOM     32  C   UNL     1     -14.786  -3.345  12.237  0.00  0.00    +0.048 A 
ATOM     33  C   UNL     1     -14.039  -3.138  11.077  0.00  0.00    +0.129 A 
BRANCH  33   8
ATOM      8  O   UNL     1     -14.602  -2.510  10.008  0.00  0.00    -0.456 OA
BRANCH   8  34
ATOM     34  C   UNL     1     -15.522  -3.221   9.255  0.00  0.00    +0.128 A 
ATOM     35  C   UNL     1     -15.084  -4.188   8.351  0.00  0.00    +0.046 A 
ATOM     36  C   UNL     1     -16.886  -2.970   9.402  0.00  0.00    +0.046 A 
ATOM     37  C   UNL     1     -16.010  -4.905   7.592  0.00  0.00    +0.004 A 
ATOM     38  C   UNL     1     -17.812  -3.686   8.643  0.00  0.00    +0.004 A 
ATOM     39  C   UNL     1     -17.374  -4.654   7.739  0.00  0.00    +0.000 A 
ENDBRANCH   8  34
ENDBRANCH  33   8
ENDBRANCH  10  24
ENDBRANCH   4  18
ENDBRANCH  14   4
TORSDOF 8
ENDMDL
MODEL 9
REMARK VINA RESULT:      -7.5     25.923     29.140
REMARK  Name = 11884043
REMARK  8 active torsions:
REMARK  status: ('A' for Active; 'I' for Inactive)
REMARK    1  A    between atoms: S_1  and  N_9
REMARK    2  A    between atoms: S_1  and  C_17
REMARK    3  A    between atoms: O_4  and  C_14
REMARK    4  A    between atoms: O_4  and  C_18
REMARK    5  A    between atoms: O_8  and  C_33
REMARK    6  A    between atoms: O_8  and  C_34
REMARK    7  A    between atoms: N_9  and  C_13
REMARK    8  A    between atoms: N_10  and  C_24
REMARK                            x       y       z     vdW  Elec       q    Type
REMARK                         _______ _______ _______ _____ _____    ______ ____
ROOT
ATOM      2  O   UNL     1      11.726  12.403  12.646  0.00  0.00    -0.369 OA
ATOM      3  O   UNL     1      13.496  14.218  10.904  0.00  0.00    -0.368 OA
ATOM     11  C   UNL     1      12.949  12.902  10.675  0.00  0.00    +0.171 C 
ATOM     12  C   UNL     1      12.991  12.172  12.003  0.00  0.00    +0.191 C 
ATOM     13  C   UNL     1      11.477  13.005  10.361  0.00  0.00    +0.133 C 
ATOM     14  C   UNL     1      14.121  12.865  12.725  0.00  0.00    +0.235 C 
ATOM     15  C   UNL     1      10.845  13.077  11.737  0.00  0.00    +0.183 C 
ATOM     16  C   UNL     1      13.967  14.294  12.257  0.00  0.00    +0.207 C 
ENDROOT
BRANCH  13   9
ATOM      9  N   UNL     1      11.022  11.778   9.663  0.00  0.00    -0.182 NA
ATOM     40  H   UNL     1      11.739  11.254   9.147  0.00  0.00    +0.148 HD
BRANCH   9   1
ATOM      1  S   UNL     1       9.396  11.625   9.201  0.00  0.00    +0.059 S 
ATOM      5  O   UNL     1       8.970  12.835   8.523  0.00  0.00    -0.153 OA
ATOM      6  O   UNL     1       8.637  11.114  10.326  0.00  0.00    -0.153 OA
BRANCH   1  17
ATOM     17  C   UNL     1       9.478  10.328   8.003  0.00  0.00    +0.106 A 
ATOM     19  C   UNL     1       9.373   8.997   8.409  0.00  0.00    +0.037 A 
ATOM     20  C   UNL     1       9.650  10.634   6.656  0.00  0.00    +0.029 A 
ATOM     21  C   UNL     1       9.436   7.955   7.470  0.00  0.00    -0.016 A 
ATOM     22  C   UNL     1       9.714   9.611   5.710  0.00  0.00    +0.010 A 
ATOM     23  C   UNL     1       9.610   8.267   6.100  0.00  0.00    -0.018 A 
ATOM     25  C   UNL     1       9.331   6.610   7.860  0.00  0.00    +0.008 A 
ATOM     26  C   UNL     1       9.675   7.223   5.161  0.00  0.00    +0.008 A 
ATOM     27  C   UNL     1       9.398   5.586   6.913  0.00  0.00    +0.001 A 
ATOM     30  C   UNL     1       9.569   5.893   5.567  0.00  0.00    +0.001 A 
ENDBRANCH   1  17
ENDBRANCH   9   1
ENDBRANCH  13   9
BRANCH  14   4
ATOM      4  O   UNL     1      14.045  12.754  14.128  0.00  0.00    -0.442 OA
BRANCH   4  18
ATOM      7  O   UNL     1      15.589  11.072  14.246  0.00  0.00    -0.226 OA
ATOM     10  N   UNL     1      13.841  11.246  15.793  0.00  0.00    -0.251 N 
ATOM     18  C   UNL     1      14.590  11.620  14.695  0.00  0.00    +0.405 C 
ATOM     41  H   UNL     1      13.039  11.834  16.011  0.00  0.00    +0.158 HD
BRANCH  10  24
ATOM     24  C   UNL     1      14.050  10.147  16.656  0.00  0.00    +0.037 A 
ATOM     28  C   UNL     1      14.525  10.357  17.950  0.00  0.00    +0.027 A 
ATOM     29  C   UNL     1      13.777   8.852  16.215  0.00  0.00    +0.027 A 
ATOM     31  C   UNL     1      14.730   9.272  18.802  0.00  0.00    +0.048 A 
ATOM     32  C   UNL     1      13.982   7.767  17.066  0.00  0.00    +0.048 A 
ATOM     33  C   UNL     1      14.458   7.977  18.360  0.00  0.00    +0.129 A 
BRANCH  33   8
ATOM      8  O   UNL     1      14.656   6.919  19.194  0.00  0.00    -0.456 OA
BRANCH   8  34
ATOM     34  C   UNL     1      15.955   6.644  19.587  0.00  0.00    +0.128 A 
ATOM     35  C   UNL     1      16.787   5.886  18.764  0.00  0.00    +0.046 A 
ATOM     36  C   UNL     1      16.431   7.127  20.807  0.00  0.00    +0.046 A 
ATOM     37  C   UNL     1      18.096   5.609  19.161  0.00  0.00    +0.004 A 
ATOM     38  C   UNL     1      17.740   6.850  21.203  0.00  0.00    +0.004 A 
ATOM     39  C   UNL     1      18.572   6.091  20.380  0.00  0.00    +0.000 A 
ENDBRANCH   8  34
ENDBRANCH  33   8
ENDBRANCH  10  24
ENDBRANCH   4  18
ENDBRANCH  14   4
TORSDOF 8
ENDMDL
MODEL 10
REMARK VINA RESULT:      -7.4      2.579      8.722
REMARK  Name = 11884043
REMARK  8 active torsions:
REMARK  status: ('A' for Active; 'I' for Inactive)
REMARK    1  A    between atoms: S_1  and  N_9
REMARK    2  A    between atoms: S_1  and  C_17
REMARK    3  A    between atoms: O_4  and  C_14
REMARK    4  A    between atoms: O_4  and  C_18
REMARK    5  A    between atoms: O_8  and  C_33
REMARK    6  A    between atoms: O_8  and  C_34
REMARK    7  A    between atoms: N_9  and  C_13
REMARK    8  A    between atoms: N_10  and  C_24
REMARK                            x       y       z     vdW  Elec       q    Type
REMARK                         _______ _______ _______ _____ _____    ______ ____
ROOT
ATOM      2  O   UNL     1      -7.106  -9.940  17.988  0.00  0.00    -0.369 OA
ATOM      3  O   UNL     1      -8.432 -12.643  18.617  0.00  0.00    -0.368 OA
ATOM     11  C   UNL     1      -8.831 -11.286  18.906  0.00  0.00    +0.171 C 
ATOM     12  C   UNL     1      -7.566 -10.514  19.223  0.00  0.00    +0.191 C 
ATOM     13  C   UNL     1      -9.356 -10.628  17.654  0.00  0.00    +0.133 C 
ATOM     14  C   UNL     1      -6.635 -11.596  19.718  0.00  0.00    +0.235 C 
ATOM     15  C   UNL     1      -8.090 -10.156  16.966  0.00  0.00    +0.183 C 
ATOM     16  C   UNL     1      -7.021 -12.769  18.846  0.00  0.00    +0.207 C 
ENDROOT
BRANCH  13   9
ATOM      9  N   UNL     1     -10.197  -9.460  18.011  0.00  0.00    -0.182 NA
ATOM     40  H   UNL     1      -9.862  -8.876  18.788  0.00  0.00    +0.148 HD
BRANCH   9   1
ATOM      1  S   UNL     1     -11.854  -9.469  17.643  0.00  0.00    +0.059 S 
ATOM      5  O   UNL     1     -12.617  -9.176  18.841  0.00  0.00    -0.153 OA
ATOM      6  O   UNL     1     -12.151 -10.653  16.861  0.00  0.00    -0.153 OA
BRANCH   1  17
ATOM     17  C   UNL     1     -11.993  -8.085  16.554  0.00  0.00    +0.106 A 
ATOM     19  C   UNL     1     -13.211  -7.807  15.932  0.00  0.00    +0.037 A 
ATOM     20  C   UNL     1     -10.888  -7.273  16.315  0.00  0.00    +0.029 A 
ATOM     21  C   UNL     1     -13.339  -6.711  15.063  0.00  0.00    -0.016 A 
ATOM     22  C   UNL     1     -10.997  -6.179  15.455  0.00  0.00    +0.010 A 
ATOM     23  C   UNL     1     -12.214  -5.885  14.821  0.00  0.00    -0.018 A 
ATOM     25  C   UNL     1     -14.557  -6.415  14.430  0.00  0.00    +0.008 A 
ATOM     26  C   UNL     1     -12.342  -4.789  13.951  0.00  0.00    +0.008 A 
ATOM     27  C   UNL     1     -14.665  -5.323  13.568  0.00  0.00    +0.001 A 
ATOM     30  C   UNL     1     -13.560  -4.511  13.330  0.00  0.00    +0.001 A 
ENDBRANCH   1  17
ENDBRANCH   9   1
ENDBRANCH  13   9
BRANCH  14   4
ATOM      4  O   UNL     1      -5.271 -11.266  19.590  0.00  0.00    -0.442 OA
BRANCH   4  18
ATOM      7  O   UNL     1      -4.233 -12.969  18.470  0.00  0.00    -0.226 OA
ATOM     10  N   UNL     1      -4.429 -10.828  17.544  0.00  0.00    -0.251 N 
ATOM     18  C   UNL     1      -4.599 -11.800  18.510  0.00  0.00    +0.405 C 
ATOM     41  H   UNL     1      -4.806  -9.908  17.761  0.00  0.00    +0.158 HD
BRANCH  10  24
ATOM     24  C   UNL     1      -3.795 -10.950  16.287  0.00  0.00    +0.037 A 
ATOM     28  C   UNL     1      -4.528 -11.361  15.173  0.00  0.00    +0.027 A 
ATOM     29  C   UNL     1      -2.437 -10.658  16.158  0.00  0.00    +0.027 A 
ATOM     31  C   UNL     1      -3.902 -11.480  13.932  0.00  0.00    +0.048 A 
ATOM     32  C   UNL     1      -1.811 -10.777  14.918  0.00  0.00    +0.048 A 
ATOM     33  C   UNL     1      -2.545 -11.189  13.805  0.00  0.00    +0.129 A 
BRANCH  33   8
ATOM      8  O   UNL     1      -1.936 -11.303  12.592  0.00  0.00    -0.456 OA
BRANCH   8  34
ATOM     34  C   UNL     1      -2.651 -10.908  11.474  0.00  0.00    +0.128 A 
ATOM     35  C   UNL     1      -3.372 -11.849  10.739  0.00  0.00    +0.046 A 
ATOM     36  C   UNL     1      -2.650  -9.569  11.082  0.00  0.00    +0.046 A 
ATOM     37  C   UNL     1      -4.092 -11.452   9.612  0.00  0.00    +0.004 A 
ATOM     38  C   UNL     1      -3.371  -9.172   9.956  0.00  0.00    +0.004 A 
ATOM     39  C   UNL     1      -4.092 -10.113   9.221  0.00  0.00    +0.000 A 
ENDBRANCH   8  34
ENDBRANCH  33   8
ENDBRANCH  10  24
ENDBRANCH   4  18
ENDBRANCH  14   4
TORSDOF 8
ENDMDL
