REMARK  Name = 40474972
REMARK  8 active torsions:
REMARK  status: ('A' for Active; 'I' for Inactive)
REMARK    1  A    between atoms: S_1  and  N_7
REMARK    2  A    between atoms: S_1  and  C_21
REMARK    3  A    between atoms: O_6  and  C_20
REMARK    4  A    between atoms: O_6  and  C_25
REMARK    5  A    between atoms: N_7  and  C_16
REMARK    6  A    between atoms: N_8  and  C_17
REMARK    7  A    between atoms: N_12  and  C_33
REMARK    8  A    between atoms: C_21  and  C_22
REMARK                            x       y       z     vdW  Elec       q    Type
REMARK                         _______ _______ _______ _____ _____    ______ ____
ROOT
ATOM      2  O   UNL     1       4.658   1.245   1.184  0.00  0.00    -0.370 OA
ATOM      3  O   UNL     1       3.455   0.552  -1.617  0.00  0.00    -0.370 OA
ATOM     14  C   UNL     1       2.874   0.917  -0.354  0.00  0.00    +0.170 C 
ATOM     15  C   UNL     1       3.706   0.265   0.733  0.00  0.00    +0.175 C 
ATOM     16  C   UNL     1       3.040   2.397  -0.112  0.00  0.00    +0.133 C 
ATOM     17  C   UNL     1       4.425  -0.875   0.034  0.00  0.00    +0.171 C 
ATOM     18  C   UNL     1       4.425   2.483   0.498  0.00  0.00    +0.183 C 
ATOM     19  C   UNL     1       4.554  -0.343  -1.390  0.00  0.00    +0.190 C 
ENDROOT
BRANCH  17   8
ATOM      8  N   UNL     1       3.663  -2.180   0.178  0.00  0.00    -0.187 N 
ATOM      9  N   UNL     1       4.229  -3.255   0.745  0.00  0.00    -0.041 NA
ATOM     10  N   UNL     1       2.143  -3.725   0.116  0.00  0.00    -0.071 NA
ATOM     11  N   UNL     1       3.295  -4.196   0.705  0.00  0.00    -0.020 NA
ATOM     20  C   UNL     1       2.393  -2.476  -0.203  0.00  0.00    +0.342 A 
BRANCH  20   6
ATOM      6  O   UNL     1       1.567  -1.632  -0.793  0.00  0.00    -0.423 OA
BRANCH   6  25
ATOM     25  C   UNL     1       0.185  -1.767  -0.583  0.00  0.00    +0.132 A 
ATOM     28  C   UNL     1      -0.695  -1.684  -1.662  0.00  0.00    +0.048 A 
ATOM     29  C   UNL     1      -0.307  -1.983   0.704  0.00  0.00    +0.048 A 
ATOM     31  C   UNL     1      -2.067  -1.818  -1.454  0.00  0.00    +0.030 A 
ATOM     32  C   UNL     1      -1.680  -2.117   0.911  0.00  0.00    +0.030 A 
ATOM     33  C   UNL     1      -2.560  -2.034  -0.168  0.00  0.00    +0.048 A 
BRANCH  33  12
ATOM     12  N   UNL     1      -3.921  -2.169   0.038  0.00  0.00    -0.306 N 
ATOM     13  N   UNL     1      -5.845  -2.467   1.108  0.00  0.00    -0.244 NA
ATOM     34  C   UNL     1      -4.895  -2.112  -0.919  0.00  0.00    +0.112 A 
ATOM     35  C   UNL     1      -4.539  -2.384   1.239  0.00  0.00    +0.204 A 
ATOM     36  C   UNL     1      -6.073  -2.298  -0.235  0.00  0.00    +0.130 A 
ENDBRANCH  33  12
ENDBRANCH   6  25
ENDBRANCH  20   6
ENDBRANCH  17   8
BRANCH  16   7
ATOM      7  N   UNL     1       2.033   2.857   0.875  0.00  0.00    -0.186 NA
ATOM     37  H   UNL     1       2.027   2.360   1.775  0.00  0.00    +0.148 HD
BRANCH   7   1
ATOM      1  S   UNL     1       0.574   3.531   0.311  0.00  0.00    +0.034 S 
ATOM      4  O   UNL     1       0.793   4.196  -0.958  0.00  0.00    -0.158 OA
ATOM      5  O   UNL     1      -0.061   4.227   1.414  0.00  0.00    -0.158 OA
BRANCH   1  21
ATOM     21  C   UNL     1      -0.371   2.057   0.000  0.00  0.00    +0.220 C 
BRANCH  21  22
ATOM     22  C   UNL     1      -1.818   2.441  -0.030  0.00  0.00    -0.025 A 
ATOM     23  C   UNL     1      -2.334   3.132  -1.126  0.00  0.00    +0.005 A 
ATOM     24  C   UNL     1      -2.651   2.106   1.038  0.00  0.00    +0.005 A 
ATOM     26  C   UNL     1      -3.682   3.490  -1.153  0.00  0.00    +0.000 A 
ATOM     27  C   UNL     1      -3.998   2.464   1.011  0.00  0.00    +0.000 A 
ATOM     30  C   UNL     1      -4.514   3.156  -0.085  0.00  0.00    +0.000 A 
ENDBRANCH  21  22
ENDBRANCH   1  21
ENDBRANCH   7   1
ENDBRANCH  16   7
TORSDOF 8
