MODEL 1
REMARK VINA RESULT:      -6.4      0.000      0.000
REMARK  Name = 71693197
REMARK  15 active torsions:
REMARK  status: ('A' for Active; 'I' for Inactive)
REMARK    1  A    between atoms: O_2  and  C_28
REMARK    2  A    between atoms: O_2  and  C_32
REMARK    3  A    between atoms: O_3  and  C_31
REMARK    4  A    between atoms: N_5  and  C_15
REMARK    5  A    between atoms: C_8  and  C_12
REMARK    6  A    between atoms: C_9  and  C_15
REMARK    7  A    between atoms: C_11  and  C_16
REMARK    8  A    between atoms: C_12  and  C_17
REMARK    9  A    between atoms: C_12  and  C_18
REMARK   10  A    between atoms: C_13  and  C_19
REMARK   11  A    between atoms: C_16  and  C_20
REMARK   12  A    between atoms: C_21  and  C_24
REMARK   13  A    between atoms: C_24  and  C_26
REMARK   14  A    between atoms: C_26  and  C_30
REMARK   15  A    between atoms: C_30  and  C_31
REMARK                            x       y       z     vdW  Elec       q    Type
REMARK                         _______ _______ _______ _____ _____    ______ ____
ROOT
ATOM      8  C   UNL     1      13.032   8.736  21.153  0.00  0.00    +0.000 C 
ATOM      9  C   UNL     1      13.001  10.223  21.588  0.00  0.00    +0.032 C 
ATOM     10  C   UNL     1      14.069   7.958  21.978  0.00  0.00    +0.012 C 
ATOM     11  C   UNL     1      15.488   8.539  21.829  0.00  0.00    +0.022 C 
ATOM     13  C   UNL     1      15.497  10.047  21.979  0.00  0.00    -0.073 C 
ATOM     14  C   UNL     1      14.374  10.781  21.882  0.00  0.00    -0.022 C 
ATOM     19  C   UNL     1      16.821  10.688  22.290  0.00  0.00    +0.039 C 
ENDROOT
BRANCH   8  12
ATOM     12  C   UNL     1      11.657   8.075  21.292  0.00  0.00    -0.013 C 
ATOM     17  C   UNL     1      11.781   6.559  21.174  0.00  0.00    +0.007 C 
ATOM     18  C   UNL     1      11.011   8.462  22.618  0.00  0.00    +0.007 C 
ENDBRANCH   8  12
BRANCH   9  15
ATOM     15  C   UNL     1      12.311  11.093  20.531  0.00  0.00    +0.112 C 
BRANCH  15   5
ATOM      1  O   UNL     1      13.810  12.795  18.771  0.00  0.00    -0.276 OA
ATOM      5  N   UNL     1      12.776  10.764  19.221  0.00  0.00    -0.315 N 
ATOM     21  C   UNL     1      13.502  11.656  18.431  0.00  0.00    +0.213 C 
ATOM     33  H   UNL     1      12.623   9.820  18.879  0.00  0.00    +0.149 HD
BRANCH  21  24
ATOM     24  C   UNL     1      13.848  11.067  17.073  0.00  0.00    +0.096 C 
BRANCH  24  26
ATOM     26  C   UNL     1      13.805   9.540  17.035  0.00  0.00    +0.020 C 
BRANCH  26  30
ATOM     30  C   UNL     1      12.514   9.010  16.406  0.00  0.00    +0.121 C 
BRANCH  30  31
ATOM      4  O   UNL     1      10.738   8.601  18.020  0.00  0.00    -0.251 OA
ATOM     31  C   UNL     1      11.703   8.195  17.387  0.00  0.00    +0.305 C 
BRANCH  31   3
ATOM      3  O   UNL     1      12.177   6.926  17.489  0.00  0.00    -0.481 OA
ATOM     35  H   UNL     1      12.332   6.666  18.422  0.00  0.00    +0.295 HD
ENDBRANCH  31   3
ENDBRANCH  30  31
ENDBRANCH  26  30
ENDBRANCH  24  26
ENDBRANCH  21  24
ENDBRANCH  15   5
ENDBRANCH   9  15
BRANCH  11  16
ATOM     16  C   UNL     1      16.120   8.117  20.498  0.00  0.00    +0.082 C 
BRANCH  16  20
ATOM      6  N   UNL     1      18.124   7.476  21.851  0.00  0.00    -0.342 N 
ATOM      7  N   UNL     1      17.904   6.443  19.897  0.00  0.00    -0.232 NA
ATOM     20  C   UNL     1      17.380   7.327  20.715  0.00  0.00    +0.109 A 
ATOM     22  C   UNL     1      19.201   6.632  21.760  0.00  0.00    +0.070 A 
ATOM     23  C   UNL     1      19.041   5.998  20.531  0.00  0.00    +0.089 A 
ATOM     25  C   UNL     1      20.269   6.376  22.621  0.00  0.00    +0.073 A 
ATOM     27  C   UNL     1      19.993   5.051  20.120  0.00  0.00    +0.033 A 
ATOM     28  C   UNL     1      21.207   5.430  22.195  0.00  0.00    +0.122 A 
ATOM     29  C   UNL     1      21.073   4.778  20.967  0.00  0.00    +0.048 A 
ATOM     34  H   UNL     1      17.922   8.100  22.623  0.00  0.00    +0.167 HD
BRANCH  28   2
ATOM      2  O   UNL     1      22.272   5.139  22.996  0.00  0.00    -0.495 OA
ATOM     32  C   UNL     1      22.652   3.768  23.096  0.00  0.00    +0.277 C 
ENDBRANCH  28   2
ENDBRANCH  16  20
ENDBRANCH  11  16
TORSDOF 11
ENDMDL
MODEL 2
REMARK VINA RESULT:      -6.2      1.263      2.763
REMARK  Name = 71693197
REMARK  15 active torsions:
REMARK  status: ('A' for Active; 'I' for Inactive)
REMARK    1  A    between atoms: O_2  and  C_28
REMARK    2  A    between atoms: O_2  and  C_32
REMARK    3  A    between atoms: O_3  and  C_31
REMARK    4  A    between atoms: N_5  and  C_15
REMARK    5  A    between atoms: C_8  and  C_12
REMARK    6  A    between atoms: C_9  and  C_15
REMARK    7  A    between atoms: C_11  and  C_16
REMARK    8  A    between atoms: C_12  and  C_17
REMARK    9  A    between atoms: C_12  and  C_18
REMARK   10  A    between atoms: C_13  and  C_19
REMARK   11  A    between atoms: C_16  and  C_20
REMARK   12  A    between atoms: C_21  and  C_24
REMARK   13  A    between atoms: C_24  and  C_26
REMARK   14  A    between atoms: C_26  and  C_30
REMARK   15  A    between atoms: C_30  and  C_31
REMARK                            x       y       z     vdW  Elec       q    Type
REMARK                         _______ _______ _______ _____ _____    ______ ____
ROOT
ATOM      8  C   UNL     1      13.124   7.950  21.121  0.00  0.00    +0.000 C 
ATOM      9  C   UNL     1      12.705   9.377  20.684  0.00  0.00    +0.032 C 
ATOM     10  C   UNL     1      14.442   7.996  21.909  0.00  0.00    +0.012 C 
ATOM     11  C   UNL     1      15.591   8.611  21.088  0.00  0.00    +0.022 C 
ATOM     13  C   UNL     1      15.168   9.895  20.401  0.00  0.00    -0.073 C 
ATOM     14  C   UNL     1      13.875  10.226  20.242  0.00  0.00    -0.022 C 
ATOM     19  C   UNL     1      16.268  10.811  19.942  0.00  0.00    +0.039 C 
ENDROOT
BRANCH   8  12
ATOM     12  C   UNL     1      12.039   7.273  21.964  0.00  0.00    -0.013 C 
ATOM     17  C   UNL     1      10.979   8.288  22.381  0.00  0.00    +0.007 C 
ATOM     18  C   UNL     1      11.408   6.119  21.192  0.00  0.00    +0.007 C 
ENDBRANCH   8  12
BRANCH   9  15
ATOM     15  C   UNL     1      11.659   9.328  19.565  0.00  0.00    +0.112 C 
BRANCH  15   5
ATOM      1  O   UNL     1      11.696   7.360  17.475  0.00  0.00    -0.276 OA
ATOM      5  N   UNL     1      12.278   9.458  18.284  0.00  0.00    -0.315 N 
ATOM     21  C   UNL     1      12.247   8.447  17.324  0.00  0.00    +0.213 C 
ATOM     33  H   UNL     1      12.705  10.348  18.045  0.00  0.00    +0.149 HD
BRANCH  21  24
ATOM     24  C   UNL     1      13.005   8.830  16.064  0.00  0.00    +0.096 C 
BRANCH  24  26
ATOM     26  C   UNL     1      14.351   9.502  16.336  0.00  0.00    +0.020 C 
BRANCH  26  30
ATOM     30  C   UNL     1      14.452  10.884  15.688  0.00  0.00    +0.121 C 
BRANCH  30  31
ATOM      4  O   UNL     1      15.723  12.571  16.899  0.00  0.00    -0.251 OA
ATOM     31  C   UNL     1      14.673  11.972  16.714  0.00  0.00    +0.305 C 
BRANCH  31   3
ATOM      3  O   UNL     1      13.543  12.218  17.426  0.00  0.00    -0.481 OA
ATOM     35  H   UNL     1      12.733  12.062  16.895  0.00  0.00    +0.295 HD
ENDBRANCH  31   3
ENDBRANCH  30  31
ENDBRANCH  26  30
ENDBRANCH  24  26
ENDBRANCH  21  24
ENDBRANCH  15   5
ENDBRANCH   9  15
BRANCH  11  16
ATOM     16  C   UNL     1      16.146   7.605  20.074  0.00  0.00    +0.082 C 
BRANCH  16  20
ATOM      6  N   UNL     1      18.104   6.071  19.809  0.00  0.00    -0.342 N 
ATOM      7  N   UNL     1      18.147   7.398  21.591  0.00  0.00    -0.232 NA
ATOM     20  C   UNL     1      17.468   7.047  20.522  0.00  0.00    +0.109 A 
ATOM     22  C   UNL     1      19.273   5.771  20.461  0.00  0.00    +0.070 A 
ATOM     23  C   UNL     1      19.277   6.614  21.570  0.00  0.00    +0.089 A 
ATOM     25  C   UNL     1      20.297   4.865  20.185  0.00  0.00    +0.073 A 
ATOM     27  C   UNL     1      20.357   6.561  22.466  0.00  0.00    +0.033 A 
ATOM     28  C   UNL     1      21.364   4.826  21.089  0.00  0.00    +0.122 A 
ATOM     29  C   UNL     1      21.395   5.658  22.210  0.00  0.00    +0.048 A 
ATOM     34  H   UNL     1      17.774   5.640  18.955  0.00  0.00    +0.167 HD
BRANCH  28   2
ATOM      2  O   UNL     1      22.393   3.958  20.869  0.00  0.00    -0.495 OA
ATOM     32  C   UNL     1      23.642   4.522  20.475  0.00  0.00    +0.277 C 
ENDBRANCH  28   2
ENDBRANCH  16  20
ENDBRANCH  11  16
TORSDOF 11
ENDMDL
MODEL 3
REMARK VINA RESULT:      -6.1     27.129     30.510
REMARK  Name = 71693197
REMARK  15 active torsions:
REMARK  status: ('A' for Active; 'I' for Inactive)
REMARK    1  A    between atoms: O_2  and  C_28
REMARK    2  A    between atoms: O_2  and  C_32
REMARK    3  A    between atoms: O_3  and  C_31
REMARK    4  A    between atoms: N_5  and  C_15
REMARK    5  A    between atoms: C_8  and  C_12
REMARK    6  A    between atoms: C_9  and  C_15
REMARK    7  A    between atoms: C_11  and  C_16
REMARK    8  A    between atoms: C_12  and  C_17
REMARK    9  A    between atoms: C_12  and  C_18
REMARK   10  A    between atoms: C_13  and  C_19
REMARK   11  A    between atoms: C_16  and  C_20
REMARK   12  A    between atoms: C_21  and  C_24
REMARK   13  A    between atoms: C_24  and  C_26
REMARK   14  A    between atoms: C_26  and  C_30
REMARK   15  A    between atoms: C_30  and  C_31
REMARK                            x       y       z     vdW  Elec       q    Type
REMARK                         _______ _______ _______ _____ _____    ______ ____
ROOT
ATOM      8  C   UNL     1      -5.849 -10.613  17.598  0.00  0.00    +0.000 C 
ATOM      9  C   UNL     1      -5.388 -11.049  16.184  0.00  0.00    +0.032 C 
ATOM     10  C   UNL     1      -7.348 -10.894  17.784  0.00  0.00    +0.012 C 
ATOM     11  C   UNL     1      -8.213 -10.160  16.741  0.00  0.00    +0.022 C 
ATOM     13  C   UNL     1      -7.662 -10.323  15.339  0.00  0.00    -0.073 C 
ATOM     14  C   UNL     1      -6.403 -10.734  15.109  0.00  0.00    -0.022 C 
ATOM     19  C   UNL     1      -8.609 -10.046  14.204  0.00  0.00    +0.039 C 
ENDROOT
BRANCH   8  12
ATOM     12  C   UNL     1      -5.049 -11.316  18.698  0.00  0.00    -0.013 C 
ATOM     17  C   UNL     1      -5.756 -11.177  20.042  0.00  0.00    +0.007 C 
ATOM     18  C   UNL     1      -4.840 -12.786  18.348  0.00  0.00    +0.007 C 
ENDBRANCH   8  12
BRANCH   9  15
ATOM     15  C   UNL     1      -4.043 -10.411  15.819  0.00  0.00    +0.112 C 
BRANCH  15   5
ATOM      1  O   UNL     1      -1.395 -10.162  14.739  0.00  0.00    -0.276 OA
ATOM      5  N   UNL     1      -3.602 -10.856  14.535  0.00  0.00    -0.315 N 
ATOM     21  C   UNL     1      -2.291 -10.695  14.089  0.00  0.00    +0.213 C 
ATOM     33  H   UNL     1      -4.259 -11.366  13.951  0.00  0.00    +0.149 HD
BRANCH  21  24
ATOM     24  C   UNL     1      -2.095 -11.229  12.680  0.00  0.00    +0.096 C 
BRANCH  24  26
ATOM     26  C   UNL     1      -2.172 -10.153  11.597  0.00  0.00    +0.020 C 
BRANCH  26  30
ATOM     30  C   UNL     1      -3.386 -10.333  10.684  0.00  0.00    +0.121 C 
BRANCH  30  31
ATOM      4  O   UNL     1      -4.661  -8.274  10.434  0.00  0.00    -0.251 OA
ATOM     31  C   UNL     1      -4.482  -9.343  11.003  0.00  0.00    +0.305 C 
BRANCH  31   3
ATOM      3  O   UNL     1      -5.271  -9.785  12.016  0.00  0.00    -0.481 OA
ATOM     35  H   UNL     1      -5.842  -9.072  12.375  0.00  0.00    +0.295 HD
ENDBRANCH  31   3
ENDBRANCH  30  31
ENDBRANCH  26  30
ENDBRANCH  24  26
ENDBRANCH  21  24
ENDBRANCH  15   5
ENDBRANCH   9  15
BRANCH  11  16
ATOM     16  C   UNL     1      -8.370  -8.678  17.099  0.00  0.00    +0.082 C 
BRANCH  16  20
ATOM      6  N   UNL     1      -9.717  -7.039  15.773  0.00  0.00    -0.342 N 
ATOM      7  N   UNL     1     -10.877  -8.589  16.865  0.00  0.00    -0.232 NA
ATOM     20  C   UNL     1      -9.676  -8.128  16.597  0.00  0.00    +0.109 A 
ATOM     22  C   UNL     1     -11.034  -6.779  15.489  0.00  0.00    +0.070 A 
ATOM     23  C   UNL     1     -11.738  -7.761  16.182  0.00  0.00    +0.089 A 
ATOM     25  C   UNL     1     -11.651  -5.800  14.710  0.00  0.00    +0.073 A 
ATOM     27  C   UNL     1     -13.140  -7.781  16.105  0.00  0.00    +0.033 A 
ATOM     28  C   UNL     1     -13.048  -5.836  14.644  0.00  0.00    +0.122 A 
ATOM     29  C   UNL     1     -13.781  -6.808  15.329  0.00  0.00    +0.048 A 
ATOM     34  H   UNL     1      -8.922  -6.514  15.434  0.00  0.00    +0.167 HD
BRANCH  28   2
ATOM      2  O   UNL     1     -13.704  -4.903  13.897  0.00  0.00    -0.495 OA
ATOM     32  C   UNL     1     -12.927  -4.159  12.962  0.00  0.00    +0.277 C 
ENDBRANCH  28   2
ENDBRANCH  16  20
ENDBRANCH  11  16
TORSDOF 11
ENDMDL
MODEL 4
REMARK VINA RESULT:      -6.0      2.960      9.573
REMARK  Name = 71693197
REMARK  15 active torsions:
REMARK  status: ('A' for Active; 'I' for Inactive)
REMARK    1  A    between atoms: O_2  and  C_28
REMARK    2  A    between atoms: O_2  and  C_32
REMARK    3  A    between atoms: O_3  and  C_31
REMARK    4  A    between atoms: N_5  and  C_15
REMARK    5  A    between atoms: C_8  and  C_12
REMARK    6  A    between atoms: C_9  and  C_15
REMARK    7  A    between atoms: C_11  and  C_16
REMARK    8  A    between atoms: C_12  and  C_17
REMARK    9  A    between atoms: C_12  and  C_18
REMARK   10  A    between atoms: C_13  and  C_19
REMARK   11  A    between atoms: C_16  and  C_20
REMARK   12  A    between atoms: C_21  and  C_24
REMARK   13  A    between atoms: C_24  and  C_26
REMARK   14  A    between atoms: C_26  and  C_30
REMARK   15  A    between atoms: C_30  and  C_31
REMARK                            x       y       z     vdW  Elec       q    Type
REMARK                         _______ _______ _______ _____ _____    ______ ____
ROOT
ATOM      8  C   UNL     1      21.476   5.566  21.838  0.00  0.00    +0.000 C 
ATOM      9  C   UNL     1      22.305   6.834  22.167  0.00  0.00    +0.032 C 
ATOM     10  C   UNL     1      20.561   5.822  20.631  0.00  0.00    +0.012 C 
ATOM     11  C   UNL     1      19.587   6.991  20.875  0.00  0.00    +0.022 C 
ATOM     13  C   UNL     1      20.294   8.200  21.456  0.00  0.00    -0.073 C 
ATOM     14  C   UNL     1      21.512   8.112  22.017  0.00  0.00    -0.022 C 
ATOM     19  C   UNL     1      19.585   9.520  21.337  0.00  0.00    +0.039 C 
ENDROOT
BRANCH   8  12
ATOM     12  C   UNL     1      22.374   4.357  21.561  0.00  0.00    -0.013 C 
ATOM     17  C   UNL     1      21.534   3.158  21.133  0.00  0.00    +0.007 C 
ATOM     18  C   UNL     1      23.412   4.697  20.497  0.00  0.00    +0.007 C 
ENDBRANCH   8  12
BRANCH   9  15
ATOM     15  C   UNL     1      22.892   6.760  23.580  0.00  0.00    +0.112 C 
BRANCH  15   5
ATOM      1  O   UNL     1      23.870   8.727  25.427  0.00  0.00    -0.276 OA
ATOM      5  N   UNL     1      22.112   7.531  24.495  0.00  0.00    -0.315 N 
ATOM     21  C   UNL     1      22.672   8.470  25.361  0.00  0.00    +0.213 C 
ATOM     33  H   UNL     1      21.101   7.431  24.467  0.00  0.00    +0.149 HD
BRANCH  21  24
ATOM     24  C   UNL     1      21.626   9.128  26.246  0.00  0.00    +0.096 C 
BRANCH  24  26
ATOM     26  C   UNL     1      20.350   8.304  26.407  0.00  0.00    +0.020 C 
BRANCH  26  30
ATOM     30  C   UNL     1      20.328   7.514  27.718  0.00  0.00    +0.121 C 
BRANCH  30  31
ATOM      4  O   UNL     1      21.218   5.532  26.619  0.00  0.00    -0.251 OA
ATOM     31  C   UNL     1      20.512   6.032  27.484  0.00  0.00    +0.305 C 
BRANCH  31   3
ATOM      3  O   UNL     1      19.790   5.297  28.369  0.00  0.00    -0.481 OA
ATOM     35  H   UNL     1      19.015   4.869  27.944  0.00  0.00    +0.295 HD
ENDBRANCH  31   3
ENDBRANCH  30  31
ENDBRANCH  26  30
ENDBRANCH  24  26
ENDBRANCH  21  24
ENDBRANCH  15   5
ENDBRANCH   9  15
BRANCH  11  16
ATOM     16  C   UNL     1      18.417   6.559  21.765  0.00  0.00    +0.082 C 
BRANCH  16  20
ATOM      6  N   UNL     1      15.917   6.653  21.749  0.00  0.00    -0.342 N 
ATOM      7  N   UNL     1      16.913   7.035  19.800  0.00  0.00    -0.232 NA
ATOM     20  C   UNL     1      17.099   6.756  21.071  0.00  0.00    +0.109 A 
ATOM     22  C   UNL     1      14.901   6.881  20.857  0.00  0.00    +0.070 A 
ATOM     23  C   UNL     1      15.548   7.117  19.648  0.00  0.00    +0.089 A 
ATOM     25  C   UNL     1      13.513   6.901  21.000  0.00  0.00    +0.073 A 
ATOM     27  C   UNL     1      14.783   7.389  18.502  0.00  0.00    +0.033 A 
ATOM     28  C   UNL     1      12.766   7.174  19.848  0.00  0.00    +0.122 A 
ATOM     29  C   UNL     1      13.388   7.414  18.621  0.00  0.00    +0.048 A 
ATOM     34  H   UNL     1      15.807   6.444  22.733  0.00  0.00    +0.167 HD
BRANCH  28   2
ATOM      2  O   UNL     1      11.405   7.206  19.928  0.00  0.00    -0.495 OA
ATOM     32  C   UNL     1      10.827   8.251  20.707  0.00  0.00    +0.277 C 
ENDBRANCH  28   2
ENDBRANCH  16  20
ENDBRANCH  11  16
TORSDOF 11
ENDMDL
MODEL 5
REMARK VINA RESULT:      -6.0     13.783     17.780
REMARK  Name = 71693197
REMARK  15 active torsions:
REMARK  status: ('A' for Active; 'I' for Inactive)
REMARK    1  A    between atoms: O_2  and  C_28
REMARK    2  A    between atoms: O_2  and  C_32
REMARK    3  A    between atoms: O_3  and  C_31
REMARK    4  A    between atoms: N_5  and  C_15
REMARK    5  A    between atoms: C_8  and  C_12
REMARK    6  A    between atoms: C_9  and  C_15
REMARK    7  A    between atoms: C_11  and  C_16
REMARK    8  A    between atoms: C_12  and  C_17
REMARK    9  A    between atoms: C_12  and  C_18
REMARK   10  A    between atoms: C_13  and  C_19
REMARK   11  A    between atoms: C_16  and  C_20
REMARK   12  A    between atoms: C_21  and  C_24
REMARK   13  A    between atoms: C_24  and  C_26
REMARK   14  A    between atoms: C_26  and  C_30
REMARK   15  A    between atoms: C_30  and  C_31
REMARK                            x       y       z     vdW  Elec       q    Type
REMARK                         _______ _______ _______ _____ _____    ______ ____
ROOT
ATOM      8  C   UNL     1       8.967   8.430   5.700  0.00  0.00    +0.000 C 
ATOM      9  C   UNL     1       8.668   8.168   7.197  0.00  0.00    +0.032 C 
ATOM     10  C   UNL     1       8.646   7.182   4.862  0.00  0.00    +0.012 C 
ATOM     11  C   UNL     1       9.457   5.952   5.314  0.00  0.00    +0.022 C 
ATOM     13  C   UNL     1       9.430   5.782   6.820  0.00  0.00    -0.073 C 
ATOM     14  C   UNL     1       9.062   6.779   7.644  0.00  0.00    -0.022 C 
ATOM     19  C   UNL     1       9.793   4.425   7.354  0.00  0.00    +0.039 C 
ENDROOT
BRANCH   8  12
ATOM     12  C   UNL     1       8.180   9.630   5.165  0.00  0.00    -0.013 C 
ATOM     17  C   UNL     1       9.133  10.702   4.645  0.00  0.00    +0.007 C 
ATOM     18  C   UNL     1       7.215   9.188   4.069  0.00  0.00    +0.007 C 
ENDBRANCH   8  12
BRANCH   9  15
ATOM     15  C   UNL     1       9.358   9.206   8.089  0.00  0.00    +0.112 C 
BRANCH  15   5
ATOM      1  O   UNL     1      11.164  11.194   9.102  0.00  0.00    -0.276 OA
ATOM      5  N   UNL     1      10.696   9.444   7.649  0.00  0.00    -0.315 N 
ATOM     21  C   UNL     1      11.507  10.435   8.200  0.00  0.00    +0.213 C 
ATOM     33  H   UNL     1      11.089   8.822   6.948  0.00  0.00    +0.149 HD
BRANCH  21  24
ATOM     24  C   UNL     1      12.872  10.496   7.532  0.00  0.00    +0.096 C 
BRANCH  24  26
ATOM     26  C   UNL     1      13.041   9.498   6.387  0.00  0.00    +0.020 C 
BRANCH  26  30
ATOM     30  C   UNL     1      14.330   8.683   6.512  0.00  0.00    +0.121 C 
BRANCH  30  31
ATOM      4  O   UNL     1      13.378   6.601   7.338  0.00  0.00    -0.251 OA
ATOM     31  C   UNL     1      14.058   7.196   6.514  0.00  0.00    +0.305 C 
BRANCH  31   3
ATOM      3  O   UNL     1      14.667   6.579   5.469  0.00  0.00    -0.481 OA
ATOM     35  H   UNL     1      15.612   6.832   5.393  0.00  0.00    +0.295 HD
ENDBRANCH  31   3
ENDBRANCH  30  31
ENDBRANCH  26  30
ENDBRANCH  24  26
ENDBRANCH  21  24
ENDBRANCH  15   5
ENDBRANCH   9  15
BRANCH  11  16
ATOM     16  C   UNL     1      10.898   6.020   4.796  0.00  0.00    +0.082 C 
BRANCH  16  20
ATOM      6  N   UNL     1      12.019   4.705   2.988  0.00  0.00    -0.342 N 
ATOM      7  N   UNL     1      10.168   5.781   2.397  0.00  0.00    -0.232 NA
ATOM     20  C   UNL     1      10.997   5.520   3.382  0.00  0.00    +0.109 A 
ATOM     22  C   UNL     1      11.839   4.420   1.658  0.00  0.00    +0.070 A 
ATOM     23  C   UNL     1      10.676   5.104   1.313  0.00  0.00    +0.089 A 
ATOM     25  C   UNL     1      12.570   3.647   0.756  0.00  0.00    +0.073 A 
ATOM     27  C   UNL     1      10.201   5.023  -0.006  0.00  0.00    +0.033 A 
ATOM     28  C   UNL     1      12.082   3.578  -0.554  0.00  0.00    +0.122 A 
ATOM     29  C   UNL     1      10.918   4.253  -0.930  0.00  0.00    +0.048 A 
ATOM     34  H   UNL     1      12.778   4.371   3.569  0.00  0.00    +0.167 HD
BRANCH  28   2
ATOM      2  O   UNL     1      12.756   2.837  -1.479  0.00  0.00    -0.495 OA
ATOM     32  C   UNL     1      11.971   2.096  -2.411  0.00  0.00    +0.277 C 
ENDBRANCH  28   2
ENDBRANCH  16  20
ENDBRANCH  11  16
TORSDOF 11
ENDMDL
MODEL 6
REMARK VINA RESULT:      -6.0     14.204     18.413
REMARK  Name = 71693197
REMARK  15 active torsions:
REMARK  status: ('A' for Active; 'I' for Inactive)
REMARK    1  A    between atoms: O_2  and  C_28
REMARK    2  A    between atoms: O_2  and  C_32
REMARK    3  A    between atoms: O_3  and  C_31
REMARK    4  A    between atoms: N_5  and  C_15
REMARK    5  A    between atoms: C_8  and  C_12
REMARK    6  A    between atoms: C_9  and  C_15
REMARK    7  A    between atoms: C_11  and  C_16
REMARK    8  A    between atoms: C_12  and  C_17
REMARK    9  A    between atoms: C_12  and  C_18
REMARK   10  A    between atoms: C_13  and  C_19
REMARK   11  A    between atoms: C_16  and  C_20
REMARK   12  A    between atoms: C_21  and  C_24
REMARK   13  A    between atoms: C_24  and  C_26
REMARK   14  A    between atoms: C_26  and  C_30
REMARK   15  A    between atoms: C_30  and  C_31
REMARK                            x       y       z     vdW  Elec       q    Type
REMARK                         _______ _______ _______ _____ _____    ______ ____
ROOT
ATOM      8  C   UNL     1       8.382   8.869   4.884  0.00  0.00    +0.000 C 
ATOM      9  C   UNL     1       8.243   8.138   6.243  0.00  0.00    +0.032 C 
ATOM     10  C   UNL     1       8.167   7.886   3.723  0.00  0.00    +0.012 C 
ATOM     11  C   UNL     1       9.173   6.718   3.753  0.00  0.00    +0.022 C 
ATOM     13  C   UNL     1       9.291   6.114   5.138  0.00  0.00    -0.073 C 
ATOM     14  C   UNL     1       8.858   6.757   6.237  0.00  0.00    -0.022 C 
ATOM     19  C   UNL     1       9.877   4.733   5.226  0.00  0.00    +0.039 C 
ENDROOT
BRANCH   8  12
ATOM     12  C   UNL     1       7.398  10.036   4.763  0.00  0.00    -0.013 C 
ATOM     17  C   UNL     1       8.150  11.347   4.562  0.00  0.00    +0.007 C 
ATOM     18  C   UNL     1       6.421   9.793   3.618  0.00  0.00    +0.007 C 
ENDBRANCH   8  12
BRANCH   9  15
ATOM     15  C   UNL     1       8.855   8.965   7.380  0.00  0.00    +0.112 C 
BRANCH  15   5
ATOM      1  O   UNL     1      10.907  10.840   6.665  0.00  0.00    -0.276 OA
ATOM      5  N   UNL     1      10.266   8.754   7.458  0.00  0.00    -0.315 N 
ATOM     21  C   UNL     1      11.197   9.725   7.089  0.00  0.00    +0.213 C 
ATOM     33  H   UNL     1      10.601   7.882   7.858  0.00  0.00    +0.149 HD
BRANCH  21  24
ATOM     24  C   UNL     1      12.627   9.235   7.241  0.00  0.00    +0.096 C 
BRANCH  24  26
ATOM     26  C   UNL     1      13.172   8.531   5.999  0.00  0.00    +0.020 C 
BRANCH  26  30
ATOM     30  C   UNL     1      12.701   7.078   5.900  0.00  0.00    +0.121 C 
BRANCH  30  31
ATOM      4  O   UNL     1      11.884   6.026   7.938  0.00  0.00    -0.251 OA
ATOM     31  C   UNL     1      12.820   6.356   7.223  0.00  0.00    +0.305 C 
BRANCH  31   3
ATOM      3  O   UNL     1      14.118   6.106   7.536  0.00  0.00    -0.481 OA
ATOM     35  H   UNL     1      14.597   6.923   7.794  0.00  0.00    +0.295 HD
ENDBRANCH  31   3
ENDBRANCH  30  31
ENDBRANCH  26  30
ENDBRANCH  24  26
ENDBRANCH  21  24
ENDBRANCH  15   5
ENDBRANCH   9  15
BRANCH  11  16
ATOM     16  C   UNL     1      10.544   7.156   3.227  0.00  0.00    +0.082 C 
BRANCH  16  20
ATOM      6  N   UNL     1      10.516   5.936   1.044  0.00  0.00    -0.342 N 
ATOM      7  N   UNL     1      12.166   5.400   2.432  0.00  0.00    -0.232 NA
ATOM     20  C   UNL     1      11.104   6.154   2.257  0.00  0.00    +0.109 A 
ATOM     22  C   UNL     1      11.247   4.977   0.390  0.00  0.00    +0.070 A 
ATOM     23  C   UNL     1      12.272   4.659   1.278  0.00  0.00    +0.089 A 
ATOM     25  C   UNL     1      11.106   4.378  -0.862  0.00  0.00    +0.073 A 
ATOM     27  C   UNL     1      13.219   3.689   0.912  0.00  0.00    +0.033 A 
ATOM     28  C   UNL     1      12.058   3.414  -1.210  0.00  0.00    +0.122 A 
ATOM     29  C   UNL     1      13.097   3.075  -0.340  0.00  0.00    +0.048 A 
ATOM     34  H   UNL     1       9.688   6.395   0.687  0.00  0.00    +0.167 HD
BRANCH  28   2
ATOM      2  O   UNL     1      11.969   2.796  -2.422  0.00  0.00    -0.495 OA
ATOM     32  C   UNL     1      10.674   2.367  -2.836  0.00  0.00    +0.277 C 
ENDBRANCH  28   2
ENDBRANCH  16  20
ENDBRANCH  11  16
TORSDOF 11
ENDMDL
MODEL 7
REMARK VINA RESULT:      -6.0     26.791     30.128
REMARK  Name = 71693197
REMARK  15 active torsions:
REMARK  status: ('A' for Active; 'I' for Inactive)
REMARK    1  A    between atoms: O_2  and  C_28
REMARK    2  A    between atoms: O_2  and  C_32
REMARK    3  A    between atoms: O_3  and  C_31
REMARK    4  A    between atoms: N_5  and  C_15
REMARK    5  A    between atoms: C_8  and  C_12
REMARK    6  A    between atoms: C_9  and  C_15
REMARK    7  A    between atoms: C_11  and  C_16
REMARK    8  A    between atoms: C_12  and  C_17
REMARK    9  A    between atoms: C_12  and  C_18
REMARK   10  A    between atoms: C_13  and  C_19
REMARK   11  A    between atoms: C_16  and  C_20
REMARK   12  A    between atoms: C_21  and  C_24
REMARK   13  A    between atoms: C_24  and  C_26
REMARK   14  A    between atoms: C_26  and  C_30
REMARK   15  A    between atoms: C_30  and  C_31
REMARK                            x       y       z     vdW  Elec       q    Type
REMARK                         _______ _______ _______ _____ _____    ______ ____
ROOT
ATOM      8  C   UNL     1      -3.181 -12.151  13.754  0.00  0.00    +0.000 C 
ATOM      9  C   UNL     1      -1.904 -11.394  14.197  0.00  0.00    +0.032 C 
ATOM     10  C   UNL     1      -3.136 -12.440  12.245  0.00  0.00    +0.012 C 
ATOM     11  C   UNL     1      -3.017 -11.152  11.408  0.00  0.00    +0.022 C 
ATOM     13  C   UNL     1      -1.948 -10.225  11.951  0.00  0.00    -0.073 C 
ATOM     14  C   UNL     1      -1.454 -10.356  13.194  0.00  0.00    -0.022 C 
ATOM     19  C   UNL     1      -1.428  -9.170  11.015  0.00  0.00    +0.039 C 
ENDROOT
BRANCH   8  12
ATOM     12  C   UNL     1      -3.364 -13.459  14.528  0.00  0.00    -0.013 C 
ATOM     17  C   UNL     1      -4.840 -13.698  14.828  0.00  0.00    +0.007 C 
ATOM     18  C   UNL     1      -2.777 -14.628  13.743  0.00  0.00    +0.007 C 
ENDBRANCH   8  12
BRANCH   9  15
ATOM     15  C   UNL     1      -2.102 -10.730  15.565  0.00  0.00    +0.112 C 
BRANCH  15   5
ATOM      1  O   UNL     1      -3.886 -11.330  17.732  0.00  0.00    -0.276 OA
ATOM      5  N   UNL     1      -3.445 -10.267  15.715  0.00  0.00    -0.315 N 
ATOM     21  C   UNL     1      -4.244 -10.609  16.805  0.00  0.00    +0.213 C 
ATOM     33  H   UNL     1      -3.807  -9.613  15.028  0.00  0.00    +0.149 HD
BRANCH  21  24
ATOM     24  C   UNL     1      -5.637 -10.008  16.706  0.00  0.00    +0.096 C 
BRANCH  24  26
ATOM     26  C   UNL     1      -6.761 -11.036  16.826  0.00  0.00    +0.020 C 
BRANCH  26  30
ATOM     30  C   UNL     1      -7.506 -10.929  18.158  0.00  0.00    +0.121 C 
BRANCH  30  31
ATOM      4  O   UNL     1      -6.614 -11.229  20.404  0.00  0.00    -0.251 OA
ATOM     31  C   UNL     1      -6.782 -11.655  19.269  0.00  0.00    +0.305 C 
BRANCH  31   3
ATOM      3  O   UNL     1      -6.328 -12.867  18.856  0.00  0.00    -0.481 OA
ATOM     35  H   UNL     1      -5.698 -13.260  19.498  0.00  0.00    +0.295 HD
ENDBRANCH  31   3
ENDBRANCH  30  31
ENDBRANCH  26  30
ENDBRANCH  24  26
ENDBRANCH  21  24
ENDBRANCH  15   5
ENDBRANCH   9  15
BRANCH  11  16
ATOM     16  C   UNL     1      -4.366 -10.433  11.304  0.00  0.00    +0.082 C 
BRANCH  16  20
ATOM      6  N   UNL     1      -4.308 -11.187   8.920  0.00  0.00    -0.342 N 
ATOM      7  N   UNL     1      -5.825  -9.640   9.410  0.00  0.00    -0.232 NA
ATOM     20  C   UNL     1      -4.859 -10.394   9.885  0.00  0.00    +0.109 A 
ATOM     22  C   UNL     1      -4.960 -10.929   7.742  0.00  0.00    +0.070 A 
ATOM     23  C   UNL     1      -5.903  -9.960   8.074  0.00  0.00    +0.089 A 
ATOM     25  C   UNL     1      -4.813 -11.444   6.454  0.00  0.00    +0.073 A 
ATOM     27  C   UNL     1      -6.756  -9.463   7.075  0.00  0.00    +0.033 A 
ATOM     28  C   UNL     1      -5.671 -10.938   5.471  0.00  0.00    +0.122 A 
ATOM     29  C   UNL     1      -6.626  -9.965   5.775  0.00  0.00    +0.048 A 
ATOM     34  H   UNL     1      -3.550 -11.847   9.046  0.00  0.00    +0.167 HD
BRANCH  28   2
ATOM      2  O   UNL     1      -5.571 -11.405   4.194  0.00  0.00    -0.495 OA
ATOM     32  C   UNL     1      -4.662 -12.479   3.967  0.00  0.00    +0.277 C 
ENDBRANCH  28   2
ENDBRANCH  16  20
ENDBRANCH  11  16
TORSDOF 11
ENDMDL
MODEL 8
REMARK VINA RESULT:      -5.8     16.454     20.723
REMARK  Name = 71693197
REMARK  15 active torsions:
REMARK  status: ('A' for Active; 'I' for Inactive)
REMARK    1  A    between atoms: O_2  and  C_28
REMARK    2  A    between atoms: O_2  and  C_32
REMARK    3  A    between atoms: O_3  and  C_31
REMARK    4  A    between atoms: N_5  and  C_15
REMARK    5  A    between atoms: C_8  and  C_12
REMARK    6  A    between atoms: C_9  and  C_15
REMARK    7  A    between atoms: C_11  and  C_16
REMARK    8  A    between atoms: C_12  and  C_17
REMARK    9  A    between atoms: C_12  and  C_18
REMARK   10  A    between atoms: C_13  and  C_19
REMARK   11  A    between atoms: C_16  and  C_20
REMARK   12  A    between atoms: C_21  and  C_24
REMARK   13  A    between atoms: C_24  and  C_26
REMARK   14  A    between atoms: C_26  and  C_30
REMARK   15  A    between atoms: C_30  and  C_31
REMARK                            x       y       z     vdW  Elec       q    Type
REMARK                         _______ _______ _______ _____ _____    ______ ____
ROOT
ATOM      8  C   UNL     1      14.931   6.342   0.242  0.00  0.00    +0.000 C 
ATOM      9  C   UNL     1      15.188   4.934  -0.352  0.00  0.00    +0.032 C 
ATOM     10  C   UNL     1      14.614   6.240   1.742  0.00  0.00    +0.012 C 
ATOM     11  C   UNL     1      13.380   5.361   2.020  0.00  0.00    +0.022 C 
ATOM     13  C   UNL     1      13.434   4.056   1.250  0.00  0.00    -0.073 C 
ATOM     14  C   UNL     1      14.258   3.880   0.202  0.00  0.00    -0.022 C 
ATOM     19  C   UNL     1      12.552   2.943   1.742  0.00  0.00    +0.039 C 
ENDROOT
BRANCH   8  12
ATOM     12  C   UNL     1      16.124   7.276   0.026  0.00  0.00    -0.013 C 
ATOM     17  C   UNL     1      15.713   8.477  -0.821  0.00  0.00    +0.007 C 
ATOM     18  C   UNL     1      16.695   7.730   1.365  0.00  0.00    +0.007 C 
ENDBRANCH   8  12
BRANCH   9  15
ATOM     15  C   UNL     1      15.086   4.952  -1.882  0.00  0.00    +0.112 C 
BRANCH  15   5
ATOM      1  O   UNL     1      13.820   4.832  -4.455  0.00  0.00    -0.276 OA
ATOM      5  N   UNL     1      14.188   3.941  -2.342  0.00  0.00    -0.315 N 
ATOM     21  C   UNL     1      13.616   3.961  -3.614  0.00  0.00    +0.213 C 
ATOM     33  H   UNL     1      14.009   3.145  -1.737  0.00  0.00    +0.149 HD
BRANCH  21  24
ATOM     24  C   UNL     1      12.678   2.787  -3.839  0.00  0.00    +0.096 C 
BRANCH  24  26
ATOM     26  C   UNL     1      11.731   2.523  -2.669  0.00  0.00    +0.020 C 
BRANCH  26  30
ATOM     30  C   UNL     1      10.590   3.541  -2.603  0.00  0.00    +0.121 C 
BRANCH  30  31
ATOM      4  O   UNL     1      11.513   5.506  -1.501  0.00  0.00    -0.251 OA
ATOM     31  C   UNL     1      10.781   4.526  -1.473  0.00  0.00    +0.305 C 
BRANCH  31   3
ATOM      3  O   UNL     1      10.024   4.196  -0.394  0.00  0.00    -0.481 OA
ATOM     35  H   UNL     1       9.216   3.703  -0.650  0.00  0.00    +0.295 HD
ENDBRANCH  31   3
ENDBRANCH  30  31
ENDBRANCH  26  30
ENDBRANCH  24  26
ENDBRANCH  21  24
ENDBRANCH  15   5
ENDBRANCH   9  15
BRANCH  11  16
ATOM     16  C   UNL     1      12.082   6.120   1.721  0.00  0.00    +0.082 C 
BRANCH  16  20
ATOM      6  N   UNL     1      11.666   5.827   4.171  0.00  0.00    -0.342 N 
ATOM      7  N   UNL     1       9.985   6.684   2.998  0.00  0.00    -0.232 NA
ATOM     20  C   UNL     1      11.215   6.225   2.944  0.00  0.00    +0.109 A 
ATOM     22  C   UNL     1      10.660   6.043   5.077  0.00  0.00    +0.070 A 
ATOM     23  C   UNL     1       9.622   6.579   4.320  0.00  0.00    +0.089 A 
ATOM     25  C   UNL     1      10.571   5.824   6.452  0.00  0.00    +0.073 A 
ATOM     27  C   UNL     1       8.416   6.921   4.956  0.00  0.00    +0.033 A 
ATOM     28  C   UNL     1       9.364   6.170   7.068  0.00  0.00    +0.122 A 
ATOM     29  C   UNL     1       8.305   6.709   6.335  0.00  0.00    +0.048 A 
ATOM     34  H   UNL     1      12.577   5.438   4.377  0.00  0.00    +0.167 HD
BRANCH  28   2
ATOM      2  O   UNL     1       9.221   5.976   8.410  0.00  0.00    -0.495 OA
ATOM     32  C   UNL     1       9.585   4.696   8.923  0.00  0.00    +0.277 C 
ENDBRANCH  28   2
ENDBRANCH  16  20
ENDBRANCH  11  16
TORSDOF 11
ENDMDL
MODEL 9
REMARK VINA RESULT:      -5.8     26.574     31.282
REMARK  Name = 71693197
REMARK  15 active torsions:
REMARK  status: ('A' for Active; 'I' for Inactive)
REMARK    1  A    between atoms: O_2  and  C_28
REMARK    2  A    between atoms: O_2  and  C_32
REMARK    3  A    between atoms: O_3  and  C_31
REMARK    4  A    between atoms: N_5  and  C_15
REMARK    5  A    between atoms: C_8  and  C_12
REMARK    6  A    between atoms: C_9  and  C_15
REMARK    7  A    between atoms: C_11  and  C_16
REMARK    8  A    between atoms: C_12  and  C_17
REMARK    9  A    between atoms: C_12  and  C_18
REMARK   10  A    between atoms: C_13  and  C_19
REMARK   11  A    between atoms: C_16  and  C_20
REMARK   12  A    between atoms: C_21  and  C_24
REMARK   13  A    between atoms: C_24  and  C_26
REMARK   14  A    between atoms: C_26  and  C_30
REMARK   15  A    between atoms: C_30  and  C_31
REMARK                            x       y       z     vdW  Elec       q    Type
REMARK                         _______ _______ _______ _____ _____    ______ ____
ROOT
ATOM      8  C   UNL     1     -17.057   5.628  22.964  0.00  0.00    +0.000 C 
ATOM      9  C   UNL     1     -16.366   4.583  23.875  0.00  0.00    +0.032 C 
ATOM     10  C   UNL     1     -16.433   5.611  21.560  0.00  0.00    +0.012 C 
ATOM     11  C   UNL     1     -14.922   5.913  21.590  0.00  0.00    +0.022 C 
ATOM     13  C   UNL     1     -14.209   5.108  22.657  0.00  0.00    -0.073 C 
ATOM     14  C   UNL     1     -14.871   4.511  23.663  0.00  0.00    -0.022 C 
ATOM     19  C   UNL     1     -12.718   4.969  22.516  0.00  0.00    +0.039 C 
ENDROOT
BRANCH   8  12
ATOM     12  C   UNL     1     -18.566   5.385  22.863  0.00  0.00    -0.013 C 
ATOM     17  C   UNL     1     -19.200   6.369  21.886  0.00  0.00    +0.007 C 
ATOM     18  C   UNL     1     -18.846   3.947  22.439  0.00  0.00    +0.007 C 
ENDBRANCH   8  12
BRANCH   9  15
ATOM     15  C   UNL     1     -16.658   4.860  25.354  0.00  0.00    +0.112 C 
BRANCH  15   5
ATOM      1  O   UNL     1     -18.214   3.337  27.225  0.00  0.00    -0.276 OA
ATOM      5  N   UNL     1     -16.193   3.786  26.173  0.00  0.00    -0.315 N 
ATOM     21  C   UNL     1     -17.022   3.097  27.058  0.00  0.00    +0.213 C 
ATOM     33  H   UNL     1     -15.233   3.475  26.058  0.00  0.00    +0.149 HD
BRANCH  21  24
ATOM     24  C   UNL     1     -16.271   2.022  27.827  0.00  0.00    +0.096 C 
BRANCH  24  26
ATOM     26  C   UNL     1     -15.549   2.544  29.068  0.00  0.00    +0.020 C 
BRANCH  26  30
ATOM     30  C   UNL     1     -15.440   1.485  30.167  0.00  0.00    +0.121 C 
BRANCH  30  31
ATOM      4  O   UNL     1     -14.568  -0.678  29.467  0.00  0.00    -0.251 OA
ATOM     31  C   UNL     1     -14.369   0.464  29.860  0.00  0.00    +0.305 C 
BRANCH  31   3
ATOM      3  O   UNL     1     -13.126   0.969  30.072  0.00  0.00    -0.481 OA
ATOM     35  H   UNL     1     -13.061   1.434  30.934  0.00  0.00    +0.295 HD
ENDBRANCH  31   3
ENDBRANCH  30  31
ENDBRANCH  26  30
ENDBRANCH  24  26
ENDBRANCH  21  24
ENDBRANCH  15   5
ENDBRANCH   9  15
BRANCH  11  16
ATOM     16  C   UNL     1     -14.662   7.413  21.768  0.00  0.00    +0.082 C 
BRANCH  16  20
ATOM      6  N   UNL     1     -13.548   7.556  19.533  0.00  0.00    -0.342 N 
ATOM      7  N   UNL     1     -12.545   8.649  21.187  0.00  0.00    -0.232 NA
ATOM     20  C   UNL     1     -13.567   7.892  20.857  0.00  0.00    +0.109 A 
ATOM     22  C   UNL     1     -12.439   8.135  18.970  0.00  0.00    +0.070 A 
ATOM     23  C   UNL     1     -11.830   8.812  20.023  0.00  0.00    +0.089 A 
ATOM     25  C   UNL     1     -11.932   8.126  17.670  0.00  0.00    +0.073 A 
ATOM     27  C   UNL     1     -10.644   9.526  19.784  0.00  0.00    +0.033 A 
ATOM     28  C   UNL     1     -10.750   8.842  17.451  0.00  0.00    +0.122 A 
ATOM     29  C   UNL     1     -10.117   9.530  18.488  0.00  0.00    +0.048 A 
ATOM     34  H   UNL     1     -14.226   6.980  19.050  0.00  0.00    +0.167 HD
BRANCH  28   2
ATOM      2  O   UNL     1     -10.209   8.867  16.199  0.00  0.00    -0.495 OA
ATOM     32  C   UNL     1     -10.996   9.455  15.166  0.00  0.00    +0.277 C 
ENDBRANCH  28   2
ENDBRANCH  16  20
ENDBRANCH  11  16
TORSDOF 11
ENDMDL
MODEL 10
REMARK VINA RESULT:      -5.7     26.595     29.661
REMARK  Name = 71693197
REMARK  15 active torsions:
REMARK  status: ('A' for Active; 'I' for Inactive)
REMARK    1  A    between atoms: O_2  and  C_28
REMARK    2  A    between atoms: O_2  and  C_32
REMARK    3  A    between atoms: O_3  and  C_31
REMARK    4  A    between atoms: N_5  and  C_15
REMARK    5  A    between atoms: C_8  and  C_12
REMARK    6  A    between atoms: C_9  and  C_15
REMARK    7  A    between atoms: C_11  and  C_16
REMARK    8  A    between atoms: C_12  and  C_17
REMARK    9  A    between atoms: C_12  and  C_18
REMARK   10  A    between atoms: C_13  and  C_19
REMARK   11  A    between atoms: C_16  and  C_20
REMARK   12  A    between atoms: C_21  and  C_24
REMARK   13  A    between atoms: C_24  and  C_26
REMARK   14  A    between atoms: C_26  and  C_30
REMARK   15  A    between atoms: C_30  and  C_31
REMARK                            x       y       z     vdW  Elec       q    Type
REMARK                         _______ _______ _______ _____ _____    ______ ____
ROOT
ATOM      8  C   UNL     1     -13.136  10.701  21.571  0.00  0.00    +0.000 C 
ATOM      9  C   UNL     1     -11.846  10.792  20.717  0.00  0.00    +0.032 C 
ATOM     10  C   UNL     1     -13.153   9.394  22.377  0.00  0.00    +0.012 C 
ATOM     11  C   UNL     1     -13.079   8.149  21.472  0.00  0.00    +0.022 C 
ATOM     13  C   UNL     1     -11.995   8.281  20.422  0.00  0.00    -0.073 C 
ATOM     14  C   UNL     1     -11.447   9.468  20.107  0.00  0.00    -0.022 C 
ATOM     19  C   UNL     1     -11.523   7.010  19.772  0.00  0.00    +0.039 C 
ENDROOT
BRANCH   8  12
ATOM     12  C   UNL     1     -13.275  11.897  22.518  0.00  0.00    -0.013 C 
ATOM     17  C   UNL     1     -14.730  12.075  22.938  0.00  0.00    +0.007 C 
ATOM     18  C   UNL     1     -12.379  11.716  23.738  0.00  0.00    +0.007 C 
ENDBRANCH   8  12
BRANCH   9  15
ATOM     15  C   UNL     1     -11.989  11.842  19.609  0.00  0.00    +0.112 C 
BRANCH  15   5
ATOM      1  O   UNL     1     -10.038  13.142  17.953  0.00  0.00    -0.276 OA
ATOM      5  N   UNL     1     -11.458  11.354  18.376  0.00  0.00    -0.315 N 
ATOM     21  C   UNL     1     -10.508  12.054  17.633  0.00  0.00    +0.213 C 
ATOM     33  H   UNL     1     -11.741  10.430  18.062  0.00  0.00    +0.149 HD
BRANCH  21  24
ATOM     24  C   UNL     1     -10.134  11.328  16.351  0.00  0.00    +0.096 C 
BRANCH  24  26
ATOM     26  C   UNL     1     -10.084   9.808  16.497  0.00  0.00    +0.020 C 
BRANCH  26  30
ATOM     30  C   UNL     1     -10.859   9.091  15.390  0.00  0.00    +0.121 C 
BRANCH  30  31
ATOM      4  O   UNL     1     -12.740   8.942  16.928  0.00  0.00    -0.251 OA
ATOM     31  C   UNL     1     -12.228   8.651  15.855  0.00  0.00    +0.305 C 
BRANCH  31   3
ATOM      3  O   UNL     1     -12.845   7.879  14.924  0.00  0.00    -0.481 OA
ATOM     35  H   UNL     1     -13.464   8.399  14.368  0.00  0.00    +0.295 HD
ENDBRANCH  31   3
ENDBRANCH  30  31
ENDBRANCH  26  30
ENDBRANCH  24  26
ENDBRANCH  21  24
ENDBRANCH  15   5
ENDBRANCH   9  15
BRANCH  11  16
ATOM     16  C   UNL     1     -14.437   7.855  20.825  0.00  0.00    +0.082 C 
BRANCH  16  20
ATOM      6  N   UNL     1     -14.526   6.008  22.510  0.00  0.00    -0.342 N 
ATOM      7  N   UNL     1     -16.245   6.124  21.108  0.00  0.00    -0.232 NA
ATOM     20  C   UNL     1     -15.099   6.663  21.458  0.00  0.00    +0.109 A 
ATOM     22  C   UNL     1     -15.357   4.976  22.864  0.00  0.00    +0.070 A 
ATOM     23  C   UNL     1     -16.423   5.070  21.974  0.00  0.00    +0.089 A 
ATOM     25  C   UNL     1     -15.271   3.998  23.856  0.00  0.00    +0.073 A 
ATOM     27  C   UNL     1     -17.474   4.142  22.063  0.00  0.00    +0.033 A 
ATOM     28  C   UNL     1     -16.326   3.083  23.930  0.00  0.00    +0.122 A 
ATOM     29  C   UNL     1     -17.408   3.152  23.051  0.00  0.00    +0.048 A 
ATOM     34  H   UNL     1     -13.644   6.237  22.951  0.00  0.00    +0.167 HD
BRANCH  28   2
ATOM      2  O   UNL     1     -16.294   2.105  24.880  0.00  0.00    -0.495 OA
ATOM     32  C   UNL     1     -16.524   2.506  26.229  0.00  0.00    +0.277 C 
ENDBRANCH  28   2
ENDBRANCH  16  20
ENDBRANCH  11  16
TORSDOF 11
ENDMDL
