MODEL 1
REMARK VINA RESULT:      -6.0      0.000      0.000
REMARK  Name = 11865833
REMARK  13 active torsions:
REMARK  status: ('A' for Active; 'I' for Inactive)
REMARK    1  A    between atoms: N_7  and  C_12
REMARK    2  A    between atoms: N_8  and  C_22
REMARK    3  A    between atoms: N_9  and  C_27
REMARK    4  A    between atoms: C_11  and  C_16
REMARK    5  A    between atoms: C_15  and  C_17
REMARK    6  A    between atoms: C_17  and  C_18
REMARK    7  A    between atoms: C_18  and  C_19
REMARK    8  A    between atoms: C_18  and  C_20
REMARK    9  A    between atoms: C_18  and  C_21
REMARK   10  A    between atoms: C_22  and  C_24
REMARK   11  A    between atoms: C_22  and  C_25
REMARK   12  A    between atoms: C_24  and  C_26
REMARK   13  A    between atoms: C_27  and  C_29
REMARK                            x       y       z     vdW  Elec       q    Type
REMARK                         _______ _______ _______ _____ _____    ______ ____
ROOT
ATOM      2  O   UNL     1      13.159   4.901   2.436  0.00  0.00    -0.276 OA
ATOM      6  N   UNL     1      14.257   6.921   2.159  0.00  0.00    -0.288 N 
ATOM     11  C   UNL     1      14.631   7.098   3.558  0.00  0.00    +0.182 C 
ATOM     12  C   UNL     1      15.685   8.206   3.549  0.00  0.00    +0.105 C 
ATOM     13  C   UNL     1      15.328   9.027   2.306  0.00  0.00    +0.043 C 
ATOM     14  C   UNL     1      14.799   7.989   1.324  0.00  0.00    +0.110 C 
ATOM     15  C   UNL     1      13.606   5.785   1.702  0.00  0.00    +0.217 C 
ENDROOT
BRANCH  12   7
ATOM      4  O   UNL     1      18.141   9.419   4.452  0.00  0.00    -0.253 OA
ATOM      7  N   UNL     1      17.015   7.655   3.449  0.00  0.00    -0.294 N 
ATOM      9  N   UNL     1      19.299   7.559   3.693  0.00  0.00    -0.296 N 
ATOM     23  C   UNL     1      18.151   8.313   3.914  0.00  0.00    +0.300 C 
ATOM     33  H   UNL     1      17.125   6.715   3.080  0.00  0.00    +0.151 HD
ATOM     35  H   UNL     1      19.207   6.645   3.258  0.00  0.00    +0.151 HD
BRANCH   9  27
ATOM     27  C   UNL     1      20.617   8.007   4.078  0.00  0.00    +0.132 C 
BRANCH  27  29
ATOM     29  C   UNL     1      20.981   7.384   5.385  0.00  0.00    -0.016 C 
ATOM     32  C   UNL     1      20.735   7.949   6.574  0.00  0.00    +0.005 C 
ENDBRANCH  27  29
ENDBRANCH   9  27
ENDBRANCH  12   7
BRANCH  11  16
ATOM      3  O   UNL     1      12.897   8.641   4.119  0.00  0.00    -0.274 OA
ATOM      8  N   UNL     1      12.915   6.546   5.136  0.00  0.00    -0.302 N 
ATOM     16  C   UNL     1      13.390   7.527   4.282  0.00  0.00    +0.236 C 
ATOM     34  H   UNL     1      13.453   5.692   5.249  0.00  0.00    +0.150 HD
BRANCH   8  22
ATOM     22  C   UNL     1      11.745   6.720   5.966  0.00  0.00    +0.163 C 
BRANCH  22  25
ATOM      5  O   UNL     1      11.278   5.837   8.181  0.00  0.00    -0.274 OA
ATOM     10  N   UNL     1      13.466   6.197   7.580  0.00  0.00    -0.328 N 
ATOM     25  C   UNL     1      12.105   6.222   7.358  0.00  0.00    +0.231 C 
ATOM     36  H   UNL     1      13.842   5.871   8.464  0.00  0.00    +0.145 HD
ATOM     37  H   UNL     1      14.138   6.514   6.889  0.00  0.00    +0.145 HD
ENDBRANCH  22  25
BRANCH  22  24
ATOM     24  C   UNL     1      10.529   5.959   5.423  0.00  0.00    +0.074 C 
BRANCH  24  26
ATOM      1  S   UNL     1       9.825   6.964   2.922  0.00  0.00    -0.102 S 
ATOM     26  C   UNL     1       9.609   6.845   4.617  0.00  0.00    -0.008 A 
ATOM     28  C   UNL     1       8.561   7.621   5.061  0.00  0.00    +0.011 A 
ATOM     30  C   UNL     1       7.926   8.322   3.995  0.00  0.00    +0.008 A 
ATOM     31  C   UNL     1       8.513   8.055   2.777  0.00  0.00    +0.045 A 
ENDBRANCH  24  26
ENDBRANCH  22  24
ENDBRANCH   8  22
ENDBRANCH  11  16
BRANCH  15  17
ATOM     17  C   UNL     1      13.453   5.681   0.205  0.00  0.00    +0.102 C 
BRANCH  17  18
ATOM     18  C   UNL     1      14.156   4.445  -0.383  0.00  0.00    -0.029 C 
ATOM     19  C   UNL     1      14.619   4.703  -1.827  0.00  0.00    +0.011 C 
ATOM     20  C   UNL     1      15.365   4.033   0.475  0.00  0.00    +0.011 C 
ATOM     21  C   UNL     1      13.143   3.284  -0.393  0.00  0.00    +0.011 C 
ENDBRANCH  17  18
ENDBRANCH  15  17
TORSDOF 10
ENDMDL
MODEL 2
REMARK VINA RESULT:      -5.9      2.876      7.721
REMARK  Name = 11865833
REMARK  13 active torsions:
REMARK  status: ('A' for Active; 'I' for Inactive)
REMARK    1  A    between atoms: N_7  and  C_12
REMARK    2  A    between atoms: N_8  and  C_22
REMARK    3  A    between atoms: N_9  and  C_27
REMARK    4  A    between atoms: C_11  and  C_16
REMARK    5  A    between atoms: C_15  and  C_17
REMARK    6  A    between atoms: C_17  and  C_18
REMARK    7  A    between atoms: C_18  and  C_19
REMARK    8  A    between atoms: C_18  and  C_20
REMARK    9  A    between atoms: C_18  and  C_21
REMARK   10  A    between atoms: C_22  and  C_24
REMARK   11  A    between atoms: C_22  and  C_25
REMARK   12  A    between atoms: C_24  and  C_26
REMARK   13  A    between atoms: C_27  and  C_29
REMARK                            x       y       z     vdW  Elec       q    Type
REMARK                         _______ _______ _______ _____ _____    ______ ____
ROOT
ATOM      2  O   UNL     1      15.450   6.938   3.341  0.00  0.00    -0.276 OA
ATOM      6  N   UNL     1      13.382   7.857   3.829  0.00  0.00    -0.288 N 
ATOM     11  C   UNL     1      12.603   6.646   3.594  0.00  0.00    +0.182 C 
ATOM     12  C   UNL     1      11.233   6.930   4.208  0.00  0.00    +0.105 C 
ATOM     13  C   UNL     1      11.109   8.454   4.113  0.00  0.00    +0.043 C 
ATOM     14  C   UNL     1      12.537   8.947   4.307  0.00  0.00    +0.110 C 
ATOM     15  C   UNL     1      14.766   7.878   3.751  0.00  0.00    +0.217 C 
ENDROOT
BRANCH  12   7
ATOM      4  O   UNL     1       9.526   4.876   5.301  0.00  0.00    -0.253 OA
ATOM      7  N   UNL     1      11.177   6.484   5.580  0.00  0.00    -0.294 N 
ATOM      9  N   UNL     1      10.470   5.249   7.386  0.00  0.00    -0.296 N 
ATOM     23  C   UNL     1      10.318   5.481   6.022  0.00  0.00    +0.300 C 
ATOM     33  H   UNL     1      11.839   6.875   6.245  0.00  0.00    +0.151 HD
ATOM     35  H   UNL     1      11.165   5.786   7.898  0.00  0.00    +0.151 HD
BRANCH   9  27
ATOM     27  C   UNL     1       9.700   4.260   8.103  0.00  0.00    +0.132 C 
BRANCH  27  29
ATOM     29  C   UNL     1       9.761   4.560   9.564  0.00  0.00    -0.016 C 
ATOM     32  C   UNL     1       8.683   4.651  10.352  0.00  0.00    +0.005 C 
ENDBRANCH  27  29
ENDBRANCH   9  27
ENDBRANCH  12   7
BRANCH  11  16
ATOM      3  O   UNL     1      12.586   7.434   1.340  0.00  0.00    -0.274 OA
ATOM      8  N   UNL     1      12.325   5.156   1.739  0.00  0.00    -0.302 N 
ATOM     16  C   UNL     1      12.514   6.476   2.107  0.00  0.00    +0.236 C 
ATOM     34  H   UNL     1      12.199   4.457   2.467  0.00  0.00    +0.150 HD
BRANCH   8  22
ATOM     22  C   UNL     1      12.184   4.730   0.365  0.00  0.00    +0.163 C 
BRANCH  22  25
ATOM      5  O   UNL     1      10.167   4.344  -0.935  0.00  0.00    -0.274 OA
ATOM     10  N   UNL     1      10.102   3.972   1.331  0.00  0.00    -0.328 N 
ATOM     25  C   UNL     1      10.724   4.353   0.161  0.00  0.00    +0.231 C 
ATOM     36  H   UNL     1       9.130   3.681   1.332  0.00  0.00    +0.145 HD
ATOM     37  H   UNL     1      10.575   3.980   2.229  0.00  0.00    +0.145 HD
ENDBRANCH  22  25
BRANCH  22  24
ATOM     24  C   UNL     1      13.095   3.543   0.028  0.00  0.00    +0.074 C 
BRANCH  24  26
ATOM      1  S   UNL     1      14.364   4.465  -2.274  0.00  0.00    -0.102 S 
ATOM     26  C   UNL     1      14.382   3.976  -0.632  0.00  0.00    -0.008 A 
ATOM     28  C   UNL     1      15.645   4.042  -0.087  0.00  0.00    +0.011 A 
ATOM     30  C   UNL     1      16.611   4.500  -1.028  0.00  0.00    +0.008 A 
ATOM     31  C   UNL     1      16.050   4.767  -2.258  0.00  0.00    +0.045 A 
ENDBRANCH  24  26
ENDBRANCH  22  24
ENDBRANCH   8  22
ENDBRANCH  11  16
BRANCH  15  17
ATOM     17  C   UNL     1      15.424   9.159   4.197  0.00  0.00    +0.102 C 
BRANCH  17  18
ATOM     18  C   UNL     1      16.060   9.050   5.593  0.00  0.00    -0.029 C 
ATOM     19  C   UNL     1      15.421   7.912   6.408  0.00  0.00    +0.011 C 
ATOM     20  C   UNL     1      17.578   8.818   5.495  0.00  0.00    +0.011 C 
ATOM     21  C   UNL     1      15.814  10.379   6.331  0.00  0.00    +0.011 C 
ENDBRANCH  17  18
ENDBRANCH  15  17
TORSDOF 10
ENDMDL
MODEL 3
REMARK VINA RESULT:      -5.6      2.676      3.628
REMARK  Name = 11865833
REMARK  13 active torsions:
REMARK  status: ('A' for Active; 'I' for Inactive)
REMARK    1  A    between atoms: N_7  and  C_12
REMARK    2  A    between atoms: N_8  and  C_22
REMARK    3  A    between atoms: N_9  and  C_27
REMARK    4  A    between atoms: C_11  and  C_16
REMARK    5  A    between atoms: C_15  and  C_17
REMARK    6  A    between atoms: C_17  and  C_18
REMARK    7  A    between atoms: C_18  and  C_19
REMARK    8  A    between atoms: C_18  and  C_20
REMARK    9  A    between atoms: C_18  and  C_21
REMARK   10  A    between atoms: C_22  and  C_24
REMARK   11  A    between atoms: C_22  and  C_25
REMARK   12  A    between atoms: C_24  and  C_26
REMARK   13  A    between atoms: C_27  and  C_29
REMARK                            x       y       z     vdW  Elec       q    Type
REMARK                         _______ _______ _______ _____ _____    ______ ____
ROOT
ATOM      2  O   UNL     1      11.150   5.341   4.254  0.00  0.00    -0.276 OA
ATOM      6  N   UNL     1      11.924   7.463   4.764  0.00  0.00    -0.288 N 
ATOM     11  C   UNL     1      13.036   7.035   5.606  0.00  0.00    +0.182 C 
ATOM     12  C   UNL     1      13.912   8.278   5.767  0.00  0.00    +0.105 C 
ATOM     13  C   UNL     1      12.920   9.435   5.614  0.00  0.00    +0.043 C 
ATOM     14  C   UNL     1      11.907   8.914   4.603  0.00  0.00    +0.110 C 
ATOM     15  C   UNL     1      11.110   6.563   4.094  0.00  0.00    +0.217 C 
ENDROOT
BRANCH  12   7
ATOM      4  O   UNL     1      16.634   9.179   6.082  0.00  0.00    -0.253 OA
ATOM      7  N   UNL     1      14.935   8.326   4.750  0.00  0.00    -0.294 N 
ATOM      9  N   UNL     1      17.009   8.718   3.840  0.00  0.00    -0.296 N 
ATOM     23  C   UNL     1      16.230   8.778   4.991  0.00  0.00    +0.300 C 
ATOM     33  H   UNL     1      14.722   7.954   3.829  0.00  0.00    +0.151 HD
ATOM     35  H   UNL     1      16.594   8.353   2.988  0.00  0.00    +0.151 HD
BRANCH   9  27
ATOM     27  C   UNL     1      18.394   9.128   3.809  0.00  0.00    +0.132 C 
BRANCH  27  29
ATOM     29  C   UNL     1      19.255   7.923   3.624  0.00  0.00    -0.016 C 
ATOM     32  C   UNL     1      20.100   7.460   4.554  0.00  0.00    +0.005 C 
ENDBRANCH  27  29
ENDBRANCH   9  27
ENDBRANCH  12   7
BRANCH  11  16
ATOM      3  O   UNL     1      13.141   6.223   7.849  0.00  0.00    -0.274 OA
ATOM      8  N   UNL     1      11.060   6.687   6.915  0.00  0.00    -0.302 N 
ATOM     16  C   UNL     1      12.442   6.609   6.915  0.00  0.00    +0.236 C 
ATOM     34  H   UNL     1      10.584   6.944   6.055  0.00  0.00    +0.150 HD
BRANCH   8  22
ATOM     22  C   UNL     1      10.247   6.310   8.049  0.00  0.00    +0.163 C 
BRANCH  22  25
ATOM      5  O   UNL     1      10.034   4.082   8.997  0.00  0.00    -0.274 OA
ATOM     10  N   UNL     1       9.938   4.319   6.714  0.00  0.00    -0.328 N 
ATOM     25  C   UNL     1      10.082   4.798   7.999  0.00  0.00    +0.231 C 
ATOM     36  H   UNL     1       9.805   3.329   6.540  0.00  0.00    +0.145 HD
ATOM     37  H   UNL     1       9.976   4.923   5.899  0.00  0.00    +0.145 HD
ENDBRANCH  22  25
BRANCH  22  24
ATOM     24  C   UNL     1       8.877   6.999   8.036  0.00  0.00    +0.074 C 
BRANCH  24  26
ATOM      1  S   UNL     1       9.670   9.669   8.009  0.00  0.00    -0.102 S 
ATOM     26  C   UNL     1       8.902   8.315   7.295  0.00  0.00    -0.008 A 
ATOM     28  C   UNL     1       8.370   8.613   6.059  0.00  0.00    +0.011 A 
ATOM     30  C   UNL     1       8.597   9.971   5.693  0.00  0.00    +0.008 A 
ATOM     31  C   UNL     1       9.293  10.659   6.663  0.00  0.00    +0.045 A 
ENDBRANCH  24  26
ENDBRANCH  22  24
ENDBRANCH   8  22
ENDBRANCH  11  16
BRANCH  15  17
ATOM     17  C   UNL     1      10.125   7.171   3.127  0.00  0.00    +0.102 C 
BRANCH  17  18
ATOM     18  C   UNL     1      10.450   6.848   1.659  0.00  0.00    -0.029 C 
ATOM     19  C   UNL     1      10.122   5.382   1.326  0.00  0.00    +0.011 C 
ATOM     20  C   UNL     1       9.679   7.774   0.702  0.00  0.00    +0.011 C 
ATOM     21  C   UNL     1      11.960   7.072   1.448  0.00  0.00    +0.011 C 
ENDBRANCH  17  18
ENDBRANCH  15  17
TORSDOF 10
ENDMDL
MODEL 4
REMARK VINA RESULT:      -5.5     26.847     30.577
REMARK  Name = 11865833
REMARK  13 active torsions:
REMARK  status: ('A' for Active; 'I' for Inactive)
REMARK    1  A    between atoms: N_7  and  C_12
REMARK    2  A    between atoms: N_8  and  C_22
REMARK    3  A    between atoms: N_9  and  C_27
REMARK    4  A    between atoms: C_11  and  C_16
REMARK    5  A    between atoms: C_15  and  C_17
REMARK    6  A    between atoms: C_17  and  C_18
REMARK    7  A    between atoms: C_18  and  C_19
REMARK    8  A    between atoms: C_18  and  C_20
REMARK    9  A    between atoms: C_18  and  C_21
REMARK   10  A    between atoms: C_22  and  C_24
REMARK   11  A    between atoms: C_22  and  C_25
REMARK   12  A    between atoms: C_24  and  C_26
REMARK   13  A    between atoms: C_27  and  C_29
REMARK                            x       y       z     vdW  Elec       q    Type
REMARK                         _______ _______ _______ _____ _____    ______ ____
ROOT
ATOM      2  O   UNL     1      -6.131  -9.278  16.543  0.00  0.00    -0.276 OA
ATOM      6  N   UNL     1      -6.543 -11.187  15.300  0.00  0.00    -0.288 N 
ATOM     11  C   UNL     1      -7.466 -10.572  14.353  0.00  0.00    +0.182 C 
ATOM     12  C   UNL     1      -7.592 -11.579  13.210  0.00  0.00    +0.105 C 
ATOM     13  C   UNL     1      -7.315 -12.924  13.888  0.00  0.00    +0.043 C 
ATOM     14  C   UNL     1      -6.289 -12.585  14.962  0.00  0.00    +0.110 C 
ATOM     15  C   UNL     1      -5.891 -10.459  16.283  0.00  0.00    +0.217 C 
ENDROOT
BRANCH  12   7
ATOM      4  O   UNL     1      -7.660  -9.423  11.294  0.00  0.00    -0.253 OA
ATOM      7  N   UNL     1      -6.627 -11.307  12.171  0.00  0.00    -0.294 N 
ATOM      9  N   UNL     1      -5.675 -10.210  10.389  0.00  0.00    -0.296 N 
ATOM     23  C   UNL     1      -6.739 -10.239  11.285  0.00  0.00    +0.300 C 
ATOM     33  H   UNL     1      -5.792 -11.884  12.121  0.00  0.00    +0.151 HD
ATOM     35  H   UNL     1      -4.949 -10.916  10.471  0.00  0.00    +0.151 HD
BRANCH   9  27
ATOM     27  C   UNL     1      -5.543  -9.204   9.361  0.00  0.00    +0.132 C 
BRANCH  27  29
ATOM     29  C   UNL     1      -4.098  -8.874   9.184  0.00  0.00    -0.016 C 
ATOM     32  C   UNL     1      -3.150  -9.170  10.082  0.00  0.00    +0.005 C 
ENDBRANCH  27  29
ENDBRANCH   9  27
ENDBRANCH  12   7
BRANCH  11  16
ATOM      3  O   UNL     1      -9.479 -11.354  15.370  0.00  0.00    -0.274 OA
ATOM      8  N   UNL     1      -9.051  -9.066  15.332  0.00  0.00    -0.302 N 
ATOM     16  C   UNL     1      -8.768 -10.397  15.076  0.00  0.00    +0.236 C 
ATOM     34  H   UNL     1      -8.426  -8.353  14.969  0.00  0.00    +0.150 HD
BRANCH   8  22
ATOM     22  C   UNL     1     -10.258  -8.629  15.997  0.00  0.00    +0.163 C 
BRANCH  22  25
ATOM      5  O   UNL     1     -11.687  -7.346  14.508  0.00  0.00    -0.274 OA
ATOM     10  N   UNL     1     -10.011  -6.252  15.636  0.00  0.00    -0.328 N 
ATOM     25  C   UNL     1     -10.733  -7.373  15.282  0.00  0.00    +0.231 C 
ATOM     36  H   UNL     1     -10.235  -5.344  15.242  0.00  0.00    +0.145 HD
ATOM     37  H   UNL     1      -9.227  -6.288  16.280  0.00  0.00    +0.145 HD
ENDBRANCH  22  25
BRANCH  22  24
ATOM     24  C   UNL     1     -10.029  -8.344  17.486  0.00  0.00    +0.074 C 
BRANCH  24  26
ATOM      1  S   UNL     1     -11.996  -9.790  18.827  0.00  0.00    -0.102 S 
ATOM     26  C   UNL     1     -10.370  -9.530  18.358  0.00  0.00    -0.008 A 
ATOM     28  C   UNL     1      -9.524 -10.491  18.865  0.00  0.00    +0.011 A 
ATOM     30  C   UNL     1     -10.220 -11.455  19.649  0.00  0.00    +0.008 A 
ATOM     31  C   UNL     1     -11.572 -11.194  19.712  0.00  0.00    +0.045 A 
ENDBRANCH  24  26
ENDBRANCH  22  24
ENDBRANCH   8  22
ENDBRANCH  11  16
BRANCH  15  17
ATOM     17  C   UNL     1      -4.839 -11.210  17.060  0.00  0.00    +0.102 C 
BRANCH  17  18
ATOM     18  C   UNL     1      -5.304 -11.601  18.473  0.00  0.00    -0.029 C 
ATOM     19  C   UNL     1      -6.425 -12.652  18.419  0.00  0.00    +0.011 C 
ATOM     20  C   UNL     1      -4.135 -12.145  19.313  0.00  0.00    +0.011 C 
ATOM     21  C   UNL     1      -5.852 -10.334  19.158  0.00  0.00    +0.011 C 
ENDBRANCH  17  18
ENDBRANCH  15  17
TORSDOF 10
ENDMDL
MODEL 5
REMARK VINA RESULT:      -5.4     34.507     39.228
REMARK  Name = 11865833
REMARK  13 active torsions:
REMARK  status: ('A' for Active; 'I' for Inactive)
REMARK    1  A    between atoms: N_7  and  C_12
REMARK    2  A    between atoms: N_8  and  C_22
REMARK    3  A    between atoms: N_9  and  C_27
REMARK    4  A    between atoms: C_11  and  C_16
REMARK    5  A    between atoms: C_15  and  C_17
REMARK    6  A    between atoms: C_17  and  C_18
REMARK    7  A    between atoms: C_18  and  C_19
REMARK    8  A    between atoms: C_18  and  C_20
REMARK    9  A    between atoms: C_18  and  C_21
REMARK   10  A    between atoms: C_22  and  C_24
REMARK   11  A    between atoms: C_22  and  C_25
REMARK   12  A    between atoms: C_24  and  C_26
REMARK   13  A    between atoms: C_27  and  C_29
REMARK                            x       y       z     vdW  Elec       q    Type
REMARK                         _______ _______ _______ _____ _____    ______ ____
ROOT
ATOM      2  O   UNL     1     -14.962   2.915  29.760  0.00  0.00    -0.276 OA
ATOM      6  N   UNL     1     -16.225   2.640  27.839  0.00  0.00    -0.288 N 
ATOM     11  C   UNL     1     -16.243   4.046  27.450  0.00  0.00    +0.182 C 
ATOM     12  C   UNL     1     -16.728   4.051  26.001  0.00  0.00    +0.105 C 
ATOM     13  C   UNL     1     -17.588   2.787  25.909  0.00  0.00    +0.043 C 
ATOM     14  C   UNL     1     -16.893   1.806  26.844  0.00  0.00    +0.110 C 
ATOM     15  C   UNL     1     -15.515   2.181  28.938  0.00  0.00    +0.217 C 
ENDROOT
BRANCH  12   7
ATOM      4  O   UNL     1     -16.473   5.458  23.495  0.00  0.00    -0.253 OA
ATOM      7  N   UNL     1     -15.616   3.996  25.082  0.00  0.00    -0.294 N 
ATOM      9  N   UNL     1     -14.392   4.478  23.197  0.00  0.00    -0.296 N 
ATOM     23  C   UNL     1     -15.577   4.713  23.888  0.00  0.00    +0.300 C 
ATOM     33  H   UNL     1     -14.794   3.460  25.346  0.00  0.00    +0.151 HD
ATOM     35  H   UNL     1     -13.699   3.860  23.610  0.00  0.00    +0.151 HD
BRANCH   9  27
ATOM     27  C   UNL     1     -14.091   5.096  21.926  0.00  0.00    +0.132 C 
BRANCH  27  29
ATOM     29  C   UNL     1     -12.664   5.534  21.922  0.00  0.00    -0.016 C 
ATOM     32  C   UNL     1     -12.171   6.460  21.092  0.00  0.00    +0.005 C 
ENDBRANCH  27  29
ENDBRANCH   9  27
ENDBRANCH  12   7
BRANCH  11  16
ATOM      3  O   UNL     1     -18.434   4.571  28.241  0.00  0.00    -0.274 OA
ATOM      8  N   UNL     1     -16.596   5.541  29.289  0.00  0.00    -0.302 N 
ATOM     16  C   UNL     1     -17.222   4.729  28.359  0.00  0.00    +0.236 C 
ATOM     34  H   UNL     1     -15.588   5.657  29.239  0.00  0.00    +0.150 HD
BRANCH   8  22
ATOM     22  C   UNL     1     -17.318   6.327  30.264  0.00  0.00    +0.163 C 
BRANCH  22  25
ATOM      5  O   UNL     1     -16.946   8.561  29.384  0.00  0.00    -0.274 OA
ATOM     10  N   UNL     1     -19.033   7.626  29.164  0.00  0.00    -0.328 N 
ATOM     25  C   UNL     1     -17.719   7.627  29.583  0.00  0.00    +0.231 C 
ATOM     36  H   UNL     1     -19.425   8.427  28.682  0.00  0.00    +0.145 HD
ATOM     37  H   UNL     1     -19.660   6.845  29.332  0.00  0.00    +0.145 HD
ENDBRANCH  22  25
BRANCH  22  24
ATOM     24  C   UNL     1     -16.477   6.615  31.514  0.00  0.00    +0.074 C 
BRANCH  24  26
ATOM      1  S   UNL     1     -14.308   5.239  32.593  0.00  0.00    -0.102 S 
ATOM     26  C   UNL     1     -15.963   5.352  32.165  0.00  0.00    -0.008 A 
ATOM     28  C   UNL     1     -16.659   4.208  32.484  0.00  0.00    +0.011 A 
ATOM     30  C   UNL     1     -15.825   3.225  33.090  0.00  0.00    +0.008 A 
ATOM     31  C   UNL     1     -14.521   3.656  33.210  0.00  0.00    +0.045 A 
ENDBRANCH  24  26
ENDBRANCH  22  24
ENDBRANCH   8  22
ENDBRANCH  11  16
BRANCH  15  17
ATOM     17  C   UNL     1     -15.455   0.682  29.094  0.00  0.00    +0.102 C 
BRANCH  17  18
ATOM     18  C   UNL     1     -14.384   0.229  30.101  0.00  0.00    -0.029 C 
ATOM     19  C   UNL     1     -13.448   1.390  30.478  0.00  0.00    +0.011 C 
ATOM     20  C   UNL     1     -15.026  -0.344  31.376  0.00  0.00    +0.011 C 
ATOM     21  C   UNL     1     -13.546  -0.878  29.434  0.00  0.00    +0.011 C 
ENDBRANCH  17  18
ENDBRANCH  15  17
TORSDOF 10
ENDMDL
MODEL 6
REMARK VINA RESULT:      -5.4     29.763     33.649
REMARK  Name = 11865833
REMARK  13 active torsions:
REMARK  status: ('A' for Active; 'I' for Inactive)
REMARK    1  A    between atoms: N_7  and  C_12
REMARK    2  A    between atoms: N_8  and  C_22
REMARK    3  A    between atoms: N_9  and  C_27
REMARK    4  A    between atoms: C_11  and  C_16
REMARK    5  A    between atoms: C_15  and  C_17
REMARK    6  A    between atoms: C_17  and  C_18
REMARK    7  A    between atoms: C_18  and  C_19
REMARK    8  A    between atoms: C_18  and  C_20
REMARK    9  A    between atoms: C_18  and  C_21
REMARK   10  A    between atoms: C_22  and  C_24
REMARK   11  A    between atoms: C_22  and  C_25
REMARK   12  A    between atoms: C_24  and  C_26
REMARK   13  A    between atoms: C_27  and  C_29
REMARK                            x       y       z     vdW  Elec       q    Type
REMARK                         _______ _______ _______ _____ _____    ______ ____
ROOT
ATOM      2  O   UNL     1     -11.716   7.446  20.825  0.00  0.00    -0.276 OA
ATOM      6  N   UNL     1     -12.715   9.521  21.061  0.00  0.00    -0.288 N 
ATOM     11  C   UNL     1     -13.469   9.205  22.269  0.00  0.00    +0.182 C 
ATOM     12  C   UNL     1     -13.932  10.557  22.813  0.00  0.00    +0.105 C 
ATOM     13  C   UNL     1     -14.018  11.434  21.560  0.00  0.00    +0.043 C 
ATOM     14  C   UNL     1     -12.887  10.920  20.679  0.00  0.00    +0.110 C 
ATOM     15  C   UNL     1     -11.835   8.623  20.477  0.00  0.00    +0.217 C 
ENDROOT
BRANCH  12   7
ATOM      4  O   UNL     1     -14.111  10.464  25.691  0.00  0.00    -0.253 OA
ATOM      7  N   UNL     1     -12.982  11.088  23.761  0.00  0.00    -0.294 N 
ATOM      9  N   UNL     1     -12.087  11.590  25.818  0.00  0.00    -0.296 N 
ATOM     23  C   UNL     1     -13.149  10.998  25.140  0.00  0.00    +0.300 C 
ATOM     33  H   UNL     1     -12.118  11.490  23.408  0.00  0.00    +0.151 HD
ATOM     35  H   UNL     1     -11.325  11.989  25.278  0.00  0.00    +0.151 HD
BRANCH   9  27
ATOM     27  C   UNL     1     -12.007  11.638  27.259  0.00  0.00    +0.132 C 
BRANCH  27  29
ATOM     29  C   UNL     1     -10.903  10.742  27.717  0.00  0.00    -0.016 C 
ATOM     32  C   UNL     1     -10.062  10.113  26.888  0.00  0.00    +0.005 C 
ENDBRANCH  27  29
ENDBRANCH   9  27
ENDBRANCH  12   7
BRANCH  11  16
ATOM      3  O   UNL     1     -15.609   8.841  21.275  0.00  0.00    -0.274 OA
ATOM      8  N   UNL     1     -14.461   7.027  22.174  0.00  0.00    -0.302 N 
ATOM     16  C   UNL     1     -14.630   8.359  21.840  0.00  0.00    +0.236 C 
ATOM     34  H   UNL     1     -13.644   6.757  22.715  0.00  0.00    +0.150 HD
BRANCH   8  22
ATOM     22  C   UNL     1     -15.448   6.009  21.891  0.00  0.00    +0.163 C 
BRANCH  22  25
ATOM      5  O   UNL     1     -15.702   4.161  23.449  0.00  0.00    -0.274 OA
ATOM     10  N   UNL     1     -13.773   4.296  22.208  0.00  0.00    -0.328 N 
ATOM     25  C   UNL     1     -15.010   4.746  22.618  0.00  0.00    +0.231 C 
ATOM     36  H   UNL     1     -13.370   3.453  22.603  0.00  0.00    +0.145 HD
ATOM     37  H   UNL     1     -13.214   4.787  21.518  0.00  0.00    +0.145 HD
ENDBRANCH  22  25
BRANCH  22  24
ATOM     24  C   UNL     1     -15.589   5.740  20.388  0.00  0.00    +0.074 C 
BRANCH  24  26
ATOM      1  S   UNL     1     -18.303   5.879  20.999  0.00  0.00    -0.102 S 
ATOM     26  C   UNL     1     -17.005   5.384  19.999  0.00  0.00    -0.008 A 
ATOM     28  C   UNL     1     -17.439   4.679  18.898  0.00  0.00    +0.011 A 
ATOM     30  C   UNL     1     -18.857   4.544  18.875  0.00  0.00    +0.008 A 
ATOM     31  C   UNL     1     -19.453   5.151  19.959  0.00  0.00    +0.045 A 
ENDBRANCH  24  26
ENDBRANCH  22  24
ENDBRANCH   8  22
ENDBRANCH  11  16
BRANCH  15  17
ATOM     17  C   UNL     1     -11.004   9.169  19.343  0.00  0.00    +0.102 C 
BRANCH  17  18
ATOM     18  C   UNL     1     -11.610   8.872  17.961  0.00  0.00    -0.029 C 
ATOM     19  C   UNL     1     -12.913   8.064  18.087  0.00  0.00    +0.011 C 
ATOM     20  C   UNL     1     -11.888  10.171  17.185  0.00  0.00    +0.011 C 
ATOM     21  C   UNL     1     -10.590   8.035  17.167  0.00  0.00    +0.011 C 
ENDBRANCH  17  18
ENDBRANCH  15  17
TORSDOF 10
ENDMDL
MODEL 7
REMARK VINA RESULT:      -5.4     26.602     29.250
REMARK  Name = 11865833
REMARK  13 active torsions:
REMARK  status: ('A' for Active; 'I' for Inactive)
REMARK    1  A    between atoms: N_7  and  C_12
REMARK    2  A    between atoms: N_8  and  C_22
REMARK    3  A    between atoms: N_9  and  C_27
REMARK    4  A    between atoms: C_11  and  C_16
REMARK    5  A    between atoms: C_15  and  C_17
REMARK    6  A    between atoms: C_17  and  C_18
REMARK    7  A    between atoms: C_18  and  C_19
REMARK    8  A    between atoms: C_18  and  C_20
REMARK    9  A    between atoms: C_18  and  C_21
REMARK   10  A    between atoms: C_22  and  C_24
REMARK   11  A    between atoms: C_22  and  C_25
REMARK   12  A    between atoms: C_24  and  C_26
REMARK   13  A    between atoms: C_27  and  C_29
REMARK                            x       y       z     vdW  Elec       q    Type
REMARK                         _______ _______ _______ _____ _____    ______ ____
ROOT
ATOM      2  O   UNL     1      -5.159  -9.934  14.706  0.00  0.00    -0.276 OA
ATOM      6  N   UNL     1      -6.371 -10.807  12.938  0.00  0.00    -0.288 N 
ATOM     11  C   UNL     1      -7.394  -9.766  12.909  0.00  0.00    +0.182 C 
ATOM     12  C   UNL     1      -8.110  -9.952  11.571  0.00  0.00    +0.105 C 
ATOM     13  C   UNL     1      -7.932 -11.444  11.275  0.00  0.00    +0.043 C 
ATOM     14  C   UNL     1      -6.561 -11.768  11.855  0.00  0.00    +0.110 C 
ATOM     15  C   UNL     1      -5.287 -10.760  13.800  0.00  0.00    +0.217 C 
ENDROOT
BRANCH  12   7
ATOM      4  O   UNL     1      -9.470  -8.247   9.682  0.00  0.00    -0.253 OA
ATOM      7  N   UNL     1      -7.507  -9.137  10.543  0.00  0.00    -0.294 N 
ATOM      9  N   UNL     1      -7.414  -7.662   8.782  0.00  0.00    -0.296 N 
ATOM     23  C   UNL     1      -8.243  -8.341   9.670  0.00  0.00    +0.300 C 
ATOM     33  H   UNL     1      -6.493  -9.092  10.492  0.00  0.00    +0.151 HD
ATOM     35  H   UNL     1      -6.409  -7.787   8.860  0.00  0.00    +0.151 HD
BRANCH   9  27
ATOM     27  C   UNL     1      -7.919  -6.766   7.767  0.00  0.00    +0.132 C 
BRANCH  27  29
ATOM     29  C   UNL     1      -8.104  -7.526   6.495  0.00  0.00    -0.016 C 
ATOM     32  C   UNL     1      -9.120  -7.325   5.648  0.00  0.00    +0.005 C 
ENDBRANCH  27  29
ENDBRANCH   9  27
ENDBRANCH  12   7
BRANCH  11  16
ATOM      3  O   UNL     1      -9.227 -10.850  13.988  0.00  0.00    -0.274 OA
ATOM      8  N   UNL     1      -8.008  -9.255  15.167  0.00  0.00    -0.302 N 
ATOM     16  C   UNL     1      -8.311 -10.035  14.064  0.00  0.00    +0.236 C 
ATOM     34  H   UNL     1      -7.276  -8.555  15.086  0.00  0.00    +0.150 HD
BRANCH   8  22
ATOM     22  C   UNL     1      -8.757  -9.307  16.402  0.00  0.00    +0.163 C 
BRANCH  22  25
ATOM      5  O   UNL     1     -10.209  -7.615  15.433  0.00  0.00    -0.274 OA
ATOM     10  N   UNL     1      -9.842  -7.581  17.701  0.00  0.00    -0.328 N 
ATOM     25  C   UNL     1      -9.661  -8.083  16.429  0.00  0.00    +0.231 C 
ATOM     36  H   UNL     1     -10.435  -6.774  17.862  0.00  0.00    +0.145 HD
ATOM     37  H   UNL     1      -9.386  -7.980  18.515  0.00  0.00    +0.145 HD
ENDBRANCH  22  25
BRANCH  22  24
ATOM     24  C   UNL     1      -7.845  -9.327  17.634  0.00  0.00    +0.074 C 
BRANCH  24  26
ATOM      1  S   UNL     1      -7.525 -12.066  17.244  0.00  0.00    -0.102 S 
ATOM     26  C   UNL     1      -6.914 -10.516  17.642  0.00  0.00    -0.008 A 
ATOM     28  C   UNL     1      -5.570 -10.550  17.938  0.00  0.00    +0.011 A 
ATOM     30  C   UNL     1      -5.033 -11.865  17.836  0.00  0.00    +0.008 A 
ATOM     31  C   UNL     1      -5.987 -12.788  17.466  0.00  0.00    +0.045 A 
ENDBRANCH  24  26
ENDBRANCH  22  24
ENDBRANCH   8  22
ENDBRANCH  11  16
BRANCH  15  17
ATOM     17  C   UNL     1      -4.233 -11.815  13.579  0.00  0.00    +0.102 C 
BRANCH  17  18
ATOM     18  C   UNL     1      -2.908 -11.236  13.054  0.00  0.00    -0.029 C 
ATOM     19  C   UNL     1      -1.966 -12.353  12.570  0.00  0.00    +0.011 C 
ATOM     20  C   UNL     1      -3.152 -10.242  11.905  0.00  0.00    +0.011 C 
ATOM     21  C   UNL     1      -2.226 -10.488  14.214  0.00  0.00    +0.011 C 
ENDBRANCH  17  18
ENDBRANCH  15  17
TORSDOF 10
ENDMDL
MODEL 8
REMARK VINA RESULT:      -5.4     11.478     15.515
REMARK  Name = 11865833
REMARK  13 active torsions:
REMARK  status: ('A' for Active; 'I' for Inactive)
REMARK    1  A    between atoms: N_7  and  C_12
REMARK    2  A    between atoms: N_8  and  C_22
REMARK    3  A    between atoms: N_9  and  C_27
REMARK    4  A    between atoms: C_11  and  C_16
REMARK    5  A    between atoms: C_15  and  C_17
REMARK    6  A    between atoms: C_17  and  C_18
REMARK    7  A    between atoms: C_18  and  C_19
REMARK    8  A    between atoms: C_18  and  C_20
REMARK    9  A    between atoms: C_18  and  C_21
REMARK   10  A    between atoms: C_22  and  C_24
REMARK   11  A    between atoms: C_22  and  C_25
REMARK   12  A    between atoms: C_24  and  C_26
REMARK   13  A    between atoms: C_27  and  C_29
REMARK                            x       y       z     vdW  Elec       q    Type
REMARK                         _______ _______ _______ _____ _____    ______ ____
ROOT
ATOM      2  O   UNL     1      -3.100   9.850   1.499  0.00  0.00    -0.276 OA
ATOM      6  N   UNL     1      -1.264  11.229   1.207  0.00  0.00    -0.288 N 
ATOM     11  C   UNL     1      -0.484  10.705   2.323  0.00  0.00    +0.182 C 
ATOM     12  C   UNL     1       0.933  11.233   2.099  0.00  0.00    +0.105 C 
ATOM     13  C   UNL     1       0.710  12.532   1.319  0.00  0.00    +0.043 C 
ATOM     14  C   UNL     1      -0.513  12.235   0.461  0.00  0.00    +0.110 C 
ATOM     15  C   UNL     1      -2.492  10.699   0.844  0.00  0.00    +0.217 C 
ENDROOT
BRANCH  12   7
ATOM      4  O   UNL     1       3.787  11.297   1.683  0.00  0.00    -0.253 OA
ATOM      7  N   UNL     1       1.723  10.294   1.339  0.00  0.00    -0.294 N 
ATOM      9  N   UNL     1       3.610   9.366   0.411  0.00  0.00    -0.296 N 
ATOM     23  C   UNL     1       3.103  10.402   1.189  0.00  0.00    +0.300 C 
ATOM     33  H   UNL     1       1.261   9.478   0.945  0.00  0.00    +0.151 HD
ATOM     35  H   UNL     1       2.970   8.659   0.061  0.00  0.00    +0.151 HD
BRANCH   9  27
ATOM     27  C   UNL     1       5.015   9.237   0.097  0.00  0.00    +0.132 C 
BRANCH  27  29
ATOM     29  C   UNL     1       5.173   9.093  -1.380  0.00  0.00    -0.016 C 
ATOM     32  C   UNL     1       4.675   9.958  -2.271  0.00  0.00    +0.005 C 
ENDBRANCH  27  29
ENDBRANCH   9  27
ENDBRANCH  12   7
BRANCH  11  16
ATOM      3  O   UNL     1      -1.783  12.284   3.554  0.00  0.00    -0.274 OA
ATOM      8  N   UNL     1      -0.754  10.537   4.697  0.00  0.00    -0.302 N 
ATOM     16  C   UNL     1      -1.090  11.270   3.572  0.00  0.00    +0.236 C 
ATOM     34  H   UNL     1      -0.105   9.761   4.601  0.00  0.00    +0.150 HD
BRANCH   8  22
ATOM     22  C   UNL     1      -1.192  10.887   6.029  0.00  0.00    +0.163 C 
BRANCH  22  25
ATOM      5  O   UNL     1       0.883  12.132   6.247  0.00  0.00    -0.274 OA
ATOM     10  N   UNL     1       0.021  11.100   8.109  0.00  0.00    -0.328 N 
ATOM     25  C   UNL     1       0.020  11.432   6.771  0.00  0.00    +0.231 C 
ATOM     36  H   UNL     1       0.766  11.413   8.722  0.00  0.00    +0.145 HD
ATOM     37  H   UNL     1      -0.701  10.523   8.529  0.00  0.00    +0.145 HD
ENDBRANCH  22  25
BRANCH  22  24
ATOM     24  C   UNL     1      -1.784   9.688   6.780  0.00  0.00    +0.074 C 
BRANCH  24  26
ATOM      1  S   UNL     1      -4.370   9.991   5.789  0.00  0.00    -0.102 S 
ATOM     26  C   UNL     1      -2.950   9.068   6.045  0.00  0.00    -0.008 A 
ATOM     28  C   UNL     1      -3.055   7.800   5.520  0.00  0.00    +0.011 A 
ATOM     30  C   UNL     1      -4.317   7.582   4.897  0.00  0.00    +0.008 A 
ATOM     31  C   UNL     1      -5.130   8.692   4.970  0.00  0.00    +0.045 A 
ENDBRANCH  24  26
ENDBRANCH  22  24
ENDBRANCH   8  22
ENDBRANCH  11  16
BRANCH  15  17
ATOM     17  C   UNL     1      -3.080  11.236  -0.437  0.00  0.00    +0.102 C 
BRANCH  17  18
ATOM     18  C   UNL     1      -3.043  10.216  -1.587  0.00  0.00    -0.029 C 
ATOM     19  C   UNL     1      -2.940  10.919  -2.951  0.00  0.00    +0.011 C 
ATOM     20  C   UNL     1      -1.863   9.240  -1.426  0.00  0.00    +0.011 C 
ATOM     21  C   UNL     1      -4.355   9.410  -1.548  0.00  0.00    +0.011 C 
ENDBRANCH  17  18
ENDBRANCH  15  17
TORSDOF 10
ENDMDL
MODEL 9
REMARK VINA RESULT:      -5.2     28.253     33.595
REMARK  Name = 11865833
REMARK  13 active torsions:
REMARK  status: ('A' for Active; 'I' for Inactive)
REMARK    1  A    between atoms: N_7  and  C_12
REMARK    2  A    between atoms: N_8  and  C_22
REMARK    3  A    between atoms: N_9  and  C_27
REMARK    4  A    between atoms: C_11  and  C_16
REMARK    5  A    between atoms: C_15  and  C_17
REMARK    6  A    between atoms: C_17  and  C_18
REMARK    7  A    between atoms: C_18  and  C_19
REMARK    8  A    between atoms: C_18  and  C_20
REMARK    9  A    between atoms: C_18  and  C_21
REMARK   10  A    between atoms: C_22  and  C_24
REMARK   11  A    between atoms: C_22  and  C_25
REMARK   12  A    between atoms: C_24  and  C_26
REMARK   13  A    between atoms: C_27  and  C_29
REMARK                            x       y       z     vdW  Elec       q    Type
REMARK                         _______ _______ _______ _____ _____    ______ ____
ROOT
ATOM      2  O   UNL     1     -12.110  10.783  22.302  0.00  0.00    -0.276 OA
ATOM      6  N   UNL     1     -14.139   9.695  22.060  0.00  0.00    -0.288 N 
ATOM     11  C   UNL     1     -13.600   8.463  21.496  0.00  0.00    +0.182 C 
ATOM     12  C   UNL     1     -14.742   7.451  21.589  0.00  0.00    +0.105 C 
ATOM     13  C   UNL     1     -15.999   8.326  21.536  0.00  0.00    +0.043 C 
ATOM     14  C   UNL     1     -15.583   9.601  22.258  0.00  0.00    +0.110 C 
ATOM     15  C   UNL     1     -13.328  10.735  22.487  0.00  0.00    +0.217 C 
ENDROOT
BRANCH  12   7
ATOM      4  O   UNL     1     -15.744   4.788  22.066  0.00  0.00    -0.253 OA
ATOM      7  N   UNL     1     -14.674   6.704  22.822  0.00  0.00    -0.294 N 
ATOM      9  N   UNL     1     -14.986   4.932  24.254  0.00  0.00    -0.296 N 
ATOM     23  C   UNL     1     -15.186   5.417  22.964  0.00  0.00    +0.300 C 
ATOM     33  H   UNL     1     -14.173   7.109  23.608  0.00  0.00    +0.151 HD
ATOM     35  H   UNL     1     -14.497   5.518  24.925  0.00  0.00    +0.151 HD
BRANCH   9  27
ATOM     27  C   UNL     1     -15.421   3.620  24.673  0.00  0.00    +0.132 C 
BRANCH  27  29
ATOM     29  C   UNL     1     -16.347   3.763  25.836  0.00  0.00    -0.016 C 
ATOM     32  C   UNL     1     -16.157   3.166  27.018  0.00  0.00    +0.005 C 
ENDBRANCH  27  29
ENDBRANCH   9  27
ENDBRANCH  12   7
BRANCH  11  16
ATOM      3  O   UNL     1     -14.111   8.926  19.210  0.00  0.00    -0.274 OA
ATOM      8  N   UNL     1     -11.880   8.806  19.864  0.00  0.00    -0.302 N 
ATOM     16  C   UNL     1     -13.248   8.763  20.069  0.00  0.00    +0.236 C 
ATOM     34  H   UNL     1     -11.261   8.575  20.636  0.00  0.00    +0.150 HD
BRANCH   8  22
ATOM     22  C   UNL     1     -11.282   9.055  18.572  0.00  0.00    +0.163 C 
BRANCH  22  25
ATOM      5  O   UNL     1     -11.098   6.632  18.556  0.00  0.00    -0.274 OA
ATOM     10  N   UNL     1     -10.287   7.808  16.756  0.00  0.00    -0.328 N 
ATOM     25  C   UNL     1     -10.879   7.705  17.998  0.00  0.00    +0.231 C 
ATOM     36  H   UNL     1      -9.984   6.980  16.255  0.00  0.00    +0.145 HD
ATOM     37  H   UNL     1     -10.116   8.701  16.305  0.00  0.00    +0.145 HD
ENDBRANCH  22  25
BRANCH  22  24
ATOM     24  C   UNL     1     -10.064   9.982  18.665  0.00  0.00    +0.074 C 
BRANCH  24  26
ATOM      1  S   UNL     1     -11.360  12.445  18.557  0.00  0.00    -0.102 S 
ATOM     26  C   UNL     1     -10.274  11.283  17.925  0.00  0.00    -0.008 A 
ATOM     28  C   UNL     1      -9.693  11.702  16.748  0.00  0.00    +0.011 A 
ATOM     30  C   UNL     1     -10.144  12.997  16.361  0.00  0.00    +0.008 A 
ATOM     31  C   UNL     1     -11.054  13.517  17.256  0.00  0.00    +0.045 A 
ENDBRANCH  24  26
ENDBRANCH  22  24
ENDBRANCH   8  22
ENDBRANCH  11  16
BRANCH  15  17
ATOM     17  C   UNL     1     -14.032  11.856  23.208  0.00  0.00    +0.102 C 
BRANCH  17  18
ATOM     18  C   UNL     1     -13.799  11.829  24.729  0.00  0.00    -0.029 C 
ATOM     19  C   UNL     1     -15.059  12.273  25.492  0.00  0.00    +0.011 C 
ATOM     20  C   UNL     1     -13.384  10.426  25.202  0.00  0.00    +0.011 C 
ATOM     21  C   UNL     1     -12.659  12.813  25.050  0.00  0.00    +0.011 C 
ENDBRANCH  17  18
ENDBRANCH  15  17
TORSDOF 10
ENDMDL
MODEL 10
REMARK VINA RESULT:      -5.2     25.877     28.351
REMARK  Name = 11865833
REMARK  13 active torsions:
REMARK  status: ('A' for Active; 'I' for Inactive)
REMARK    1  A    between atoms: N_7  and  C_12
REMARK    2  A    between atoms: N_8  and  C_22
REMARK    3  A    between atoms: N_9  and  C_27
REMARK    4  A    between atoms: C_11  and  C_16
REMARK    5  A    between atoms: C_15  and  C_17
REMARK    6  A    between atoms: C_17  and  C_18
REMARK    7  A    between atoms: C_18  and  C_19
REMARK    8  A    between atoms: C_18  and  C_20
REMARK    9  A    between atoms: C_18  and  C_21
REMARK   10  A    between atoms: C_22  and  C_24
REMARK   11  A    between atoms: C_22  and  C_25
REMARK   12  A    between atoms: C_24  and  C_26
REMARK   13  A    between atoms: C_27  and  C_29
REMARK                            x       y       z     vdW  Elec       q    Type
REMARK                         _______ _______ _______ _____ _____    ______ ____
ROOT
ATOM      2  O   UNL     1      -3.664 -14.109  11.860  0.00  0.00    -0.276 OA
ATOM      6  N   UNL     1      -2.615 -12.651  13.321  0.00  0.00    -0.288 N 
ATOM     11  C   UNL     1      -3.641 -11.615  13.286  0.00  0.00    +0.182 C 
ATOM     12  C   UNL     1      -3.322 -10.700  14.468  0.00  0.00    +0.105 C 
ATOM     13  C   UNL     1      -1.809 -10.862  14.645  0.00  0.00    +0.043 C 
ATOM     14  C   UNL     1      -1.551 -12.313  14.263  0.00  0.00    +0.110 C 
ATOM     15  C   UNL     1      -2.753 -13.857  12.651  0.00  0.00    +0.217 C 
ENDROOT
BRANCH  12   7
ATOM      4  O   UNL     1      -5.738  -9.541  15.537  0.00  0.00    -0.253 OA
ATOM      7  N   UNL     1      -4.035 -11.115  15.652  0.00  0.00    -0.294 N 
ATOM      9  N   UNL     1      -5.679 -11.095  17.259  0.00  0.00    -0.296 N 
ATOM     23  C   UNL     1      -5.200 -10.495  16.098  0.00  0.00    +0.300 C 
ATOM     33  H   UNL     1      -3.710 -11.938  16.151  0.00  0.00    +0.151 HD
ATOM     35  H   UNL     1      -5.178 -11.892  17.639  0.00  0.00    +0.151 HD
BRANCH   9  27
ATOM     27  C   UNL     1      -6.876 -10.648  17.934  0.00  0.00    +0.132 C 
BRANCH  27  29
ATOM     29  C   UNL     1      -6.593 -10.521  19.394  0.00  0.00    -0.016 C 
ATOM     32  C   UNL     1      -5.723 -11.295  20.055  0.00  0.00    +0.005 C 
ENDBRANCH  27  29
ENDBRANCH   9  27
ENDBRANCH  12   7
BRANCH  11  16
ATOM      3  O   UNL     1      -2.440 -10.316  11.681  0.00  0.00    -0.274 OA
ATOM      8  N   UNL     1      -4.625 -10.962  11.201  0.00  0.00    -0.302 N 
ATOM     16  C   UNL     1      -3.481 -10.898  11.978  0.00  0.00    +0.236 C 
ATOM     34  H   UNL     1      -5.455 -11.403  11.586  0.00  0.00    +0.150 HD
BRANCH   8  22
ATOM     22  C   UNL     1      -4.736 -10.331   9.905  0.00  0.00    +0.163 C 
BRANCH  22  25
ATOM      5  O   UNL     1      -5.540  -8.468  11.242  0.00  0.00    -0.274 OA
ATOM     10  N   UNL     1      -5.213  -8.145   8.991  0.00  0.00    -0.328 N 
ATOM     25  C   UNL     1      -5.220  -8.908  10.140  0.00  0.00    +0.231 C 
ATOM     36  H   UNL     1      -5.499  -7.172   9.012  0.00  0.00    +0.145 HD
ATOM     37  H   UNL     1      -4.942  -8.520   8.088  0.00  0.00    +0.145 HD
ENDBRANCH  22  25
BRANCH  22  24
ATOM     24  C   UNL     1      -5.701 -11.078   8.977  0.00  0.00    +0.074 C 
BRANCH  24  26
ATOM      1  S   UNL     1      -5.179 -11.100   6.240  0.00  0.00    -0.102 S 
ATOM     26  C   UNL     1      -4.990 -11.737   7.818  0.00  0.00    -0.008 A 
ATOM     28  C   UNL     1      -4.164 -12.840   7.835  0.00  0.00    +0.011 A 
ATOM     30  C   UNL     1      -3.679 -13.164   6.536  0.00  0.00    +0.008 A 
ATOM     31  C   UNL     1      -4.153 -12.299   5.575  0.00  0.00    +0.045 A 
ENDBRANCH  24  26
ENDBRANCH  22  24
ENDBRANCH   8  22
ENDBRANCH  11  16
BRANCH  15  17
ATOM     17  C   UNL     1      -1.687 -14.885  12.936  0.00  0.00    +0.102 C 
BRANCH  17  18
ATOM     18  C   UNL     1      -2.204 -16.064  13.780  0.00  0.00    -0.029 C 
ATOM     19  C   UNL     1      -3.243 -15.594  14.812  0.00  0.00    +0.011 C 
ATOM     20  C   UNL     1      -2.826 -17.154  12.889  0.00  0.00    +0.011 C 
ATOM     21  C   UNL     1      -1.004 -16.669  14.532  0.00  0.00    +0.011 C 
ENDBRANCH  17  18
ENDBRANCH  15  17
TORSDOF 10
ENDMDL
