REMARK  Name = 38026726
REMARK  13 active torsions:
REMARK  status: ('A' for Active; 'I' for Inactive)
REMARK    1  A    between atoms: S_1  and  N_9
REMARK    2  A    between atoms: S_1  and  C_19
REMARK    3  A    between atoms: O_3  and  C_12
REMARK    4  A    between atoms: O_4  and  C_15
REMARK    5  A    between atoms: O_7  and  C_29
REMARK    6  A    between atoms: O_7  and  C_30
REMARK    7  A    between atoms: N_8  and  C_10
REMARK    8  A    between atoms: N_8  and  C_16
REMARK    9  A    between atoms: N_8  and  C_17
REMARK   10  A    between atoms: N_9  and  C_14
REMARK   11  A    between atoms: C_11  and  C_14
REMARK   12  A    between atoms: C_13  and  C_15
REMARK   13  A    between atoms: C_16  and  C_18
REMARK                            x       y       z     vdW  Elec       q    Type
REMARK                         _______ _______ _______ _____ _____    ______ ____
ROOT
ATOM      2  O   UNL     1      -3.407   1.059   0.972  0.00  0.00    -0.366 OA
ATOM     10  C   UNL     1      -2.802  -1.203   0.539  0.00  0.00    +0.118 C 
ATOM     11  C   UNL     1      -2.332   0.114   1.170  0.00  0.00    +0.154 C 
ATOM     12  C   UNL     1      -3.796  -0.742  -0.515  0.00  0.00    +0.165 C 
ATOM     13  C   UNL     1      -4.454   0.427   0.210  0.00  0.00    +0.174 C 
ENDROOT
BRANCH  12   3
ATOM      3  O   UNL     1      -3.136  -0.287  -1.690  0.00  0.00    -0.388 OA
ATOM     31  H   UNL     1      -3.818  -0.105  -2.358  0.00  0.00    +0.210 HD
ENDBRANCH  12   3
BRANCH  10   8
ATOM      8  N   UNL     1      -1.760  -2.094   0.061  0.00  0.00    -0.293 NA
ATOM     17  C   UNL     1      -2.338  -3.318  -0.502  0.00  0.00    +0.105 C 
BRANCH   8  16
ATOM     16  C   UNL     1      -0.825  -2.430   1.139  0.00  0.00    +0.119 C 
BRANCH  16  18
ATOM     18  C   UNL     1       0.492  -2.928   0.604  0.00  0.00    -0.033 A 
ATOM     20  C   UNL     1       1.242  -3.844   1.342  0.00  0.00    +0.005 A 
ATOM     21  C   UNL     1       0.961  -2.474  -0.628  0.00  0.00    +0.005 A 
ATOM     22  C   UNL     1       2.461  -4.306   0.847  0.00  0.00    +0.000 A 
ATOM     23  C   UNL     1       2.180  -2.937  -1.123  0.00  0.00    +0.000 A 
ATOM     26  C   UNL     1       2.931  -3.853  -0.386  0.00  0.00    +0.000 A 
ENDBRANCH  16  18
ENDBRANCH   8  16
ENDBRANCH  10   8
BRANCH  11  14
ATOM     14  C   UNL     1      -1.069   0.738   0.587  0.00  0.00    +0.139 C 
BRANCH  14   9
ATOM      9  N   UNL     1      -0.764   1.988   1.306  0.00  0.00    -0.187 NA
ATOM     32  H   UNL     1      -0.637   1.898   2.322  0.00  0.00    +0.148 HD
BRANCH   9   1
ATOM      1  S   UNL     1       0.043   3.258   0.509  0.00  0.00    +0.058 S 
ATOM      5  O   UNL     1       0.347   4.307   1.464  0.00  0.00    -0.153 OA
ATOM      6  O   UNL     1      -0.664   3.571  -0.718  0.00  0.00    -0.153 OA
BRANCH   1  19
ATOM     19  C   UNL     1       1.564   2.485   0.047  0.00  0.00    +0.105 A 
ATOM     24  C   UNL     1       2.657   2.524   0.912  0.00  0.00    +0.032 A 
ATOM     25  C   UNL     1       1.671   1.836  -1.183  0.00  0.00    +0.032 A 
ATOM     27  C   UNL     1       3.857   1.914   0.547  0.00  0.00    +0.047 A 
ATOM     28  C   UNL     1       2.871   1.226  -1.548  0.00  0.00    +0.047 A 
ATOM     29  C   UNL     1       3.964   1.265  -0.683  0.00  0.00    +0.120 A 
BRANCH  29   7
ATOM      7  O   UNL     1       5.136   0.671  -1.039  0.00  0.00    -0.495 OA
ATOM     30  C   UNL     1       6.213   0.750  -0.107  0.00  0.00    +0.277 C 
ENDBRANCH  29   7
ENDBRANCH   1  19
ENDBRANCH   9   1
ENDBRANCH  14   9
ENDBRANCH  11  14
BRANCH  13  15
ATOM     15  C   UNL     1      -5.117   1.460  -0.683  0.00  0.00    +0.190 C 
BRANCH  15   4
ATOM      4  O   UNL     1      -6.127   0.823  -1.449  0.00  0.00    -0.392 OA
ATOM     33  H   UNL     1      -6.539   1.508  -2.003  0.00  0.00    +0.210 HD
ENDBRANCH  15   4
ENDBRANCH  13  15
TORSDOF 11
