REMARK  Name = 45783519
REMARK  4 active torsions:
REMARK  status: ('A' for Active; 'I' for Inactive)
REMARK    1  A    between atoms: N_3  and  C_13
REMARK    2  A    between atoms: C_9  and  C_14
REMARK    3  A    between atoms: C_13  and  C_15
REMARK    4  A    between atoms: C_16  and  C_21
REMARK                            x       y       z     vdW  Elec       q    Type
REMARK                         _______ _______ _______ _____ _____    ______ ____
ROOT
ATOM      1  O   UNL     1      -2.318   0.503  -2.008  0.00  0.00    -0.336 OA
ATOM      4  N   UNL     1      -1.360   1.141  -0.086  0.00  0.00    -0.190 NA
ATOM      6  N   UNL     1      -0.954   0.215  -2.139  0.00  0.00    -0.056 NA
ATOM     14  C   UNL     1      -2.471   1.046  -0.771  0.00  0.00    +0.245 A 
ATOM     16  C   UNL     1      -0.457   0.619  -0.966  0.00  0.00    +0.204 A 
ENDROOT
BRANCH  16  21
ATOM      2  O   UNL     1       7.699  -0.266   0.665  0.00  0.00    -0.377 OA
ATOM      5  N   UNL     1       4.963   0.184   0.204  0.00  0.00    -0.311 N 
ATOM      7  N   UNL     1       3.168  -0.141  -1.304  0.00  0.00    -0.240 NA
ATOM     19  C   UNL     1       5.398  -0.618   1.352  0.00  0.00    +0.134 C 
ATOM     20  C   UNL     1       5.927   0.268  -0.903  0.00  0.00    +0.134 C 
ATOM     21  C   UNL     1       0.937   0.517  -0.643  0.00  0.00    +0.041 A 
ATOM     22  C   UNL     1       6.802  -0.196   1.773  0.00  0.00    +0.178 C 
ATOM     23  C   UNL     1       7.301   0.643  -0.361  0.00  0.00    +0.178 C 
ATOM     24  C   UNL     1       3.601   0.290  -0.098  0.00  0.00    +0.121 A 
ATOM     25  C   UNL     1       1.421   0.949   0.587  0.00  0.00    +0.016 A 
ATOM     26  C   UNL     1       2.777   0.837   0.873  0.00  0.00    +0.044 A 
ATOM     29  C   UNL     1       1.843  -0.016  -1.545  0.00  0.00    +0.124 A 
ENDBRANCH  16  21
BRANCH  14   9
ATOM      3  N   UNL     1      -4.336   0.784   0.856  0.00  0.00    -0.287 NA
ATOM      9  C   UNL     1      -3.878   1.449  -0.380  0.00  0.00    +0.146 C 
ATOM     10  C   UNL     1      -4.004   2.954  -0.085  0.00  0.00    +0.030 C 
ATOM     11  C   UNL     1      -4.598   3.036   1.315  0.00  0.00    +0.017 C 
ATOM     12  C   UNL     1      -5.287   1.698   1.489  0.00  0.00    +0.085 C 
BRANCH   3  13
ATOM     13  C   UNL     1      -4.915  -0.532   0.619  0.00  0.00    +0.120 C 
BRANCH  13  15
ATOM      8  N   UNL     1      -1.890  -3.542   0.085  0.00  0.00    -0.263 NA
ATOM     15  C   UNL     1      -3.856  -1.586   0.432  0.00  0.00    -0.030 A 
ATOM     17  C   UNL     1      -3.808  -2.326  -0.744  0.00  0.00    +0.024 A 
ATOM     18  C   UNL     1      -2.922  -1.822   1.435  0.00  0.00    +0.024 A 
ATOM     27  C   UNL     1      -2.815  -3.284  -0.867  0.00  0.00    +0.111 A 
ATOM     28  C   UNL     1      -1.968  -2.802   1.214  0.00  0.00    +0.111 A 
ENDBRANCH  13  15
ENDBRANCH   3  13
ENDBRANCH  14   9
TORSDOF 4
