REMARK  Name = 38030601
REMARK  11 active torsions:
REMARK  status: ('A' for Active; 'I' for Inactive)
REMARK    1  A    between atoms: N_3  and  C_12
REMARK    2  A    between atoms: C_7  and  C_11
REMARK    3  A    between atoms: C_8  and  C_12
REMARK    4  A    between atoms: C_10  and  C_15
REMARK    5  A    between atoms: C_11  and  C_16
REMARK    6  A    between atoms: C_11  and  C_17
REMARK    7  A    between atoms: C_14  and  C_20
REMARK    8  A    between atoms: C_15  and  C_23
REMARK    9  A    between atoms: C_24  and  C_26
REMARK   10  A    between atoms: C_25  and  C_27
REMARK   11  A    between atoms: C_32  and  C_33
REMARK                            x       y       z     vdW  Elec       q    Type
REMARK                         _______ _______ _______ _____ _____    ______ ____
ROOT
ATOM      7  C   UNL     1      -1.275  -0.673  -0.840  0.00  0.00    +0.000 C 
ATOM      8  C   UNL     1      -2.261  -1.809  -0.481  0.00  0.00    +0.029 C 
ATOM      9  C   UNL     1      -0.138  -0.602   0.189  0.00  0.00    +0.012 C 
ATOM     10  C   UNL     1       0.638  -1.929   0.335  0.00  0.00    +0.024 C 
ATOM     13  C   UNL     1      -1.558  -3.078  -0.070  0.00  0.00    -0.023 C 
ATOM     14  C   UNL     1      -0.262  -3.154   0.286  0.00  0.00    -0.073 C 
ATOM     20  C   UNL     1       0.362  -4.487   0.595  0.00  0.00    +0.039 C 
ENDROOT
BRANCH   7  11
ATOM     11  C   UNL     1      -0.726  -0.838  -2.264  0.00  0.00    -0.013 C 
ATOM     16  C   UNL     1      -1.786  -0.453  -3.291  0.00  0.00    +0.007 C 
ATOM     17  C   UNL     1       0.536  -0.001  -2.447  0.00  0.00    +0.007 C 
ENDBRANCH   7  11
BRANCH   8  12
ATOM     12  C   UNL     1      -3.229  -1.388   0.629  0.00  0.00    +0.092 C 
BRANCH  12   3
ATOM      2  O   UNL     1      -7.861   2.812   1.089  0.00  0.00    -0.276 OA
ATOM      3  N   UNL     1      -3.948  -0.172   0.253  0.00  0.00    -0.299 NA
ATOM      4  N   UNL     1      -6.240   1.533   0.026  0.00  0.00    -0.299 N 
ATOM     18  C   UNL     1      -4.511   0.484   1.442  0.00  0.00    +0.103 C 
ATOM     19  C   UNL     1      -5.011  -0.478  -0.716  0.00  0.00    +0.103 C 
ATOM     21  C   UNL     1      -5.233   1.775   1.058  0.00  0.00    +0.123 C 
ATOM     22  C   UNL     1      -5.750   0.793  -1.140  0.00  0.00    +0.123 C 
ATOM     24  C   UNL     1      -7.509   2.098   0.147  0.00  0.00    +0.213 C 
ATOM     26  C   UNL     1      -8.490   1.795  -0.957  0.00  0.00    +0.109 C 
ENDBRANCH  12   3
ENDBRANCH   8  12
BRANCH  10  15
ATOM     15  C   UNL     1       1.486  -1.862   1.612  0.00  0.00    +0.105 C 
BRANCH  15  23
ATOM      1  O   UNL     1       3.474  -0.677   0.839  0.00  0.00    -0.420 OA
ATOM      5  N   UNL     1       2.226   0.479   2.292  0.00  0.00    -0.112 NA
ATOM      6  N   UNL     1       3.309   1.263   1.941  0.00  0.00    -0.107 NA
ATOM     23  C   UNL     1       2.363  -0.643   1.625  0.00  0.00    +0.218 A 
ATOM     25  C   UNL     1       4.011   0.548   1.092  0.00  0.00    +0.248 A 
BRANCH  25  27
ATOM     27  C   UNL     1       5.231   0.853   0.404  0.00  0.00    +0.038 A 
ATOM     28  C   UNL     1       5.853   2.086   0.600  0.00  0.00    +0.013 A 
ATOM     29  C   UNL     1       5.796  -0.083  -0.463  0.00  0.00    +0.013 A 
ATOM     30  C   UNL     1       7.040   2.383  -0.069  0.00  0.00    +0.004 A 
ATOM     31  C   UNL     1       6.983   0.214  -1.132  0.00  0.00    +0.004 A 
ATOM     32  C   UNL     1       7.605   1.447  -0.935  0.00  0.00    -0.050 A 
ATOM     33  C   UNL     1       8.874   1.765  -1.651  0.00  0.00    +0.044 C 
ENDBRANCH  25  27
ENDBRANCH  15  23
ENDBRANCH  10  15
TORSDOF 6
