MODEL 1
REMARK VINA RESULT:      -6.3      0.000      0.000
REMARK  Name = 26742452
REMARK  7 active torsions:
REMARK  status: ('A' for Active; 'I' for Inactive)
REMARK    1  A    between atoms: S_1  and  N_6
REMARK    2  A    between atoms: S_1  and  C_21
REMARK    3  A    between atoms: N_6  and  C_16
REMARK    4  A    between atoms: C_10  and  C_17
REMARK    5  A    between atoms: C_11  and  C_16
REMARK    6  A    between atoms: C_19  and  C_22
REMARK    7  A    between atoms: C_20  and  C_23
REMARK                            x       y       z     vdW  Elec       q    Type
REMARK                         _______ _______ _______ _____ _____    ______ ____
ROOT
ATOM      5  N   UNL     1      -5.623 -10.893  10.491  0.00  0.00    -0.297 NA
ATOM      9  C   UNL     1      -3.233 -11.538  11.302  0.00  0.00    +0.002 C 
ATOM     10  C   UNL     1      -4.268 -11.739  12.443  0.00  0.00    +0.055 C 
ATOM     11  C   UNL     1      -4.663  -9.806  10.161  0.00  0.00    +0.072 C 
ATOM     12  C   UNL     1      -3.290 -10.074  10.814  0.00  0.00    +0.024 C 
ATOM     13  C   UNL     1      -3.689 -12.426  10.124  0.00  0.00    +0.019 C 
ATOM     14  C   UNL     1      -5.620 -11.148  11.953  0.00  0.00    +0.094 C 
ATOM     15  C   UNL     1      -5.164 -12.126   9.805  0.00  0.00    +0.085 C 
ENDROOT
BRANCH  10  17
ATOM      7  N   UNL     1      -2.597 -10.983  14.063  0.00  0.00    -0.237 NA
ATOM      8  N   UNL     1      -3.180 -10.393  16.325  0.00  0.00    -0.229 NA
ATOM     17  C   UNL     1      -3.900 -11.258  13.840  0.00  0.00    +0.050 A 
ATOM     18  C   UNL     1      -4.887 -11.128  14.796  0.00  0.00    +0.055 A 
ATOM     19  C   UNL     1      -4.464 -10.686  16.033  0.00  0.00    +0.110 A 
ATOM     20  C   UNL     1      -2.312 -10.561  15.310  0.00  0.00    +0.127 A 
ATOM     23  C   UNL     1      -0.882 -10.245  15.595  0.00  0.00    +0.088 C 
BRANCH  19  22
ATOM      4  O   UNL     1      -6.590  -9.973  16.783  0.00  0.00    -0.461 OA
ATOM     22  C   UNL     1      -5.387 -10.507  17.122  0.00  0.00    +0.153 A 
ATOM     24  C   UNL     1      -5.333 -10.759  18.472  0.00  0.00    +0.051 A 
ATOM     25  C   UNL     1      -6.583 -10.354  18.998  0.00  0.00    +0.042 A 
ATOM     26  C   UNL     1      -7.312  -9.882  17.931  0.00  0.00    +0.196 A 
ENDBRANCH  19  22
ENDBRANCH  10  17
BRANCH  11  16
ATOM     16  C   UNL     1      -5.205  -8.421  10.523  0.00  0.00    +0.124 C 
BRANCH  16   6
ATOM      6  N   UNL     1      -5.735  -7.777   9.311  0.00  0.00    -0.193 NA
ATOM     27  H   UNL     1      -5.025  -7.630   8.580  0.00  0.00    +0.148 HD
BRANCH   6   1
ATOM      1  S   UNL     1      -7.305  -8.176   8.770  0.00  0.00    +0.027 S 
ATOM      2  O   UNL     1      -8.145  -8.508   9.904  0.00  0.00    -0.158 OA
ATOM      3  O   UNL     1      -7.187  -9.081   7.643  0.00  0.00    -0.158 OA
ATOM     21  C   UNL     1      -7.840  -6.604   8.135  0.00  0.00    +0.214 C 
ENDBRANCH   6   1
ENDBRANCH  16   6
ENDBRANCH  11  16
TORSDOF 5
ENDMDL
MODEL 2
REMARK VINA RESULT:      -6.3      3.118      6.563
REMARK  Name = 26742452
REMARK  7 active torsions:
REMARK  status: ('A' for Active; 'I' for Inactive)
REMARK    1  A    between atoms: S_1  and  N_6
REMARK    2  A    between atoms: S_1  and  C_21
REMARK    3  A    between atoms: N_6  and  C_16
REMARK    4  A    between atoms: C_10  and  C_17
REMARK    5  A    between atoms: C_11  and  C_16
REMARK    6  A    between atoms: C_19  and  C_22
REMARK    7  A    between atoms: C_20  and  C_23
REMARK                            x       y       z     vdW  Elec       q    Type
REMARK                         _______ _______ _______ _____ _____    ______ ____
ROOT
ATOM      5  N   UNL     1      -5.972 -10.121  17.577  0.00  0.00    -0.297 NA
ATOM      9  C   UNL     1      -5.076 -12.511  17.060  0.00  0.00    +0.002 C 
ATOM     10  C   UNL     1      -4.109 -11.434  16.495  0.00  0.00    +0.055 C 
ATOM     11  C   UNL     1      -7.049 -10.948  16.970  0.00  0.00    +0.072 C 
ATOM     12  C   UNL     1      -6.485 -12.294  16.468  0.00  0.00    +0.024 C 
ATOM     13  C   UNL     1      -5.180 -12.263  18.581  0.00  0.00    +0.019 C 
ATOM     14  C   UNL     1      -4.805 -10.053  16.662  0.00  0.00    +0.094 C 
ATOM     15  C   UNL     1      -5.540 -10.787  18.829  0.00  0.00    +0.085 C 
ENDROOT
BRANCH  10  17
ATOM      7  N   UNL     1      -2.741 -12.698  14.909  0.00  0.00    -0.237 NA
ATOM      8  N   UNL     1      -2.520 -12.044  12.600  0.00  0.00    -0.229 NA
ATOM     17  C   UNL     1      -3.551 -11.634  15.093  0.00  0.00    +0.050 A 
ATOM     18  C   UNL     1      -3.887 -10.743  14.094  0.00  0.00    +0.055 A 
ATOM     19  C   UNL     1      -3.336 -11.001  12.856  0.00  0.00    +0.110 A 
ATOM     20  C   UNL     1      -2.267 -12.841  13.656  0.00  0.00    +0.127 A 
ATOM     23  C   UNL     1      -1.370 -14.007  13.413  0.00  0.00    +0.088 C 
BRANCH  19  22
ATOM      4  O   UNL     1      -4.803  -9.516  11.742  0.00  0.00    -0.461 OA
ATOM     22  C   UNL     1      -3.601 -10.151  11.725  0.00  0.00    +0.153 A 
ATOM     24  C   UNL     1      -2.896  -9.821  10.592  0.00  0.00    +0.051 A 
ATOM     25  C   UNL     1      -3.717  -8.925   9.864  0.00  0.00    +0.042 A 
ATOM     26  C   UNL     1      -4.866  -8.773  10.606  0.00  0.00    +0.196 A 
ENDBRANCH  19  22
ENDBRANCH  10  17
BRANCH  11  16
ATOM     16  C   UNL     1      -7.805 -10.201  15.868  0.00  0.00    +0.124 C 
BRANCH  16   6
ATOM      6  N   UNL     1      -8.118  -8.840  16.333  0.00  0.00    -0.193 NA
ATOM     27  H   UNL     1      -7.479  -8.123  15.964  0.00  0.00    +0.148 HD
BRANCH   6   1
ATOM      1  S   UNL     1      -9.751  -8.375  16.515  0.00  0.00    +0.027 S 
ATOM      2  O   UNL     1      -9.952  -7.056  15.948  0.00  0.00    -0.158 OA
ATOM      3  O   UNL     1     -10.167  -8.671  17.872  0.00  0.00    -0.158 OA
ATOM     21  C   UNL     1     -10.546  -9.555  15.447  0.00  0.00    +0.214 C 
ENDBRANCH   6   1
ENDBRANCH  16   6
ENDBRANCH  11  16
TORSDOF 5
ENDMDL
MODEL 3
REMARK VINA RESULT:      -6.3      3.240      7.146
REMARK  Name = 26742452
REMARK  7 active torsions:
REMARK  status: ('A' for Active; 'I' for Inactive)
REMARK    1  A    between atoms: S_1  and  N_6
REMARK    2  A    between atoms: S_1  and  C_21
REMARK    3  A    between atoms: N_6  and  C_16
REMARK    4  A    between atoms: C_10  and  C_17
REMARK    5  A    between atoms: C_11  and  C_16
REMARK    6  A    between atoms: C_19  and  C_22
REMARK    7  A    between atoms: C_20  and  C_23
REMARK                            x       y       z     vdW  Elec       q    Type
REMARK                         _______ _______ _______ _____ _____    ______ ____
ROOT
ATOM      5  N   UNL     1      -7.533 -11.654  17.744  0.00  0.00    -0.297 NA
ATOM      9  C   UNL     1      -5.125 -10.985  18.479  0.00  0.00    +0.002 C 
ATOM     10  C   UNL     1      -5.451 -10.393  17.080  0.00  0.00    +0.055 C 
ATOM     11  C   UNL     1      -6.786 -12.858  18.196  0.00  0.00    +0.072 C 
ATOM     12  C   UNL     1      -5.299 -12.518  18.438  0.00  0.00    +0.024 C 
ATOM     13  C   UNL     1      -6.187 -10.434  19.455  0.00  0.00    +0.019 C 
ATOM     14  C   UNL     1      -6.811 -10.997  16.626  0.00  0.00    +0.094 C 
ATOM     15  C   UNL     1      -7.590 -10.702  18.881  0.00  0.00    +0.085 C 
ENDROOT
BRANCH  10  17
ATOM      7  N   UNL     1      -3.101 -10.498  16.406  0.00  0.00    -0.237 NA
ATOM      8  N   UNL     1      -2.435 -10.650  14.095  0.00  0.00    -0.229 NA
ATOM     17  C   UNL     1      -4.387 -10.486  15.995  0.00  0.00    +0.050 A 
ATOM     18  C   UNL     1      -4.770 -10.551  14.671  0.00  0.00    +0.055 A 
ATOM     19  C   UNL     1      -3.741 -10.632  13.756  0.00  0.00    +0.110 A 
ATOM     20  C   UNL     1      -2.190 -10.580  15.417  0.00  0.00    +0.127 A 
ATOM     23  C   UNL     1      -0.758 -10.598  15.832  0.00  0.00    +0.088 C 
BRANCH  19  22
ATOM      4  O   UNL     1      -5.215 -11.201  11.995  0.00  0.00    -0.461 OA
ATOM     22  C   UNL     1      -3.998 -10.705  12.342  0.00  0.00    +0.153 A 
ATOM     24  C   UNL     1      -3.273 -10.377  11.221  0.00  0.00    +0.051 A 
ATOM     25  C   UNL     1      -4.096 -10.692  10.113  0.00  0.00    +0.042 A 
ATOM     26  C   UNL     1      -5.267 -11.191  10.637  0.00  0.00    +0.196 A 
ENDBRANCH  19  22
ENDBRANCH  10  17
BRANCH  11  16
ATOM     16  C   UNL     1      -6.952 -14.040  17.238  0.00  0.00    +0.124 C 
BRANCH  16   6
ATOM      6  N   UNL     1      -5.623 -14.551  16.866  0.00  0.00    -0.193 NA
ATOM     27  H   UNL     1      -5.362 -15.415  17.359  0.00  0.00    +0.148 HD
BRANCH   6   1
ATOM      1  S   UNL     1      -5.103 -14.420  15.244  0.00  0.00    +0.027 S 
ATOM      2  O   UNL     1      -3.749 -13.902  15.203  0.00  0.00    -0.158 OA
ATOM      3  O   UNL     1      -6.159 -13.799  14.470  0.00  0.00    -0.158 OA
ATOM     21  C   UNL     1      -5.045 -16.137  14.782  0.00  0.00    +0.214 C 
ENDBRANCH   6   1
ENDBRANCH  16   6
ENDBRANCH  11  16
TORSDOF 5
ENDMDL
MODEL 4
REMARK VINA RESULT:      -6.1     23.607     25.261
REMARK  Name = 26742452
REMARK  7 active torsions:
REMARK  status: ('A' for Active; 'I' for Inactive)
REMARK    1  A    between atoms: S_1  and  N_6
REMARK    2  A    between atoms: S_1  and  C_21
REMARK    3  A    between atoms: N_6  and  C_16
REMARK    4  A    between atoms: C_10  and  C_17
REMARK    5  A    between atoms: C_11  and  C_16
REMARK    6  A    between atoms: C_19  and  C_22
REMARK    7  A    between atoms: C_20  and  C_23
REMARK                            x       y       z     vdW  Elec       q    Type
REMARK                         _______ _______ _______ _____ _____    ______ ____
ROOT
ATOM      5  N   UNL     1      12.110   5.904   0.992  0.00  0.00    -0.297 NA
ATOM      9  C   UNL     1      10.599   4.629   2.687  0.00  0.00    +0.002 C 
ATOM     10  C   UNL     1      10.897   6.066   3.198  0.00  0.00    +0.055 C 
ATOM     11  C   UNL     1      12.695   4.570   1.292  0.00  0.00    +0.072 C 
ATOM     12  C   UNL     1      11.930   3.887   2.446  0.00  0.00    +0.024 C 
ATOM     13  C   UNL     1       9.907   4.778   1.315  0.00  0.00    +0.019 C 
ATOM     14  C   UNL     1      11.957   6.686   2.243  0.00  0.00    +0.094 C 
ATOM     15  C   UNL     1      10.761   5.687   0.413  0.00  0.00    +0.085 C 
ENDROOT
BRANCH  10  17
ATOM      7  N   UNL     1      12.420   6.892   4.925  0.00  0.00    -0.237 NA
ATOM      8  N   UNL     1      11.974   6.599   7.275  0.00  0.00    -0.229 NA
ATOM     17  C   UNL     1      11.264   6.246   4.664  0.00  0.00    +0.050 A 
ATOM     18  C   UNL     1      10.422   5.755   5.641  0.00  0.00    +0.055 A 
ATOM     19  C   UNL     1      10.832   5.963   6.941  0.00  0.00    +0.110 A 
ATOM     20  C   UNL     1      12.710   7.031   6.233  0.00  0.00    +0.127 A 
ATOM     23  C   UNL     1      13.980   7.740   6.562  0.00  0.00    +0.088 C 
BRANCH  19  22
ATOM      4  O   UNL     1      10.282   4.219   8.442  0.00  0.00    -0.461 OA
ATOM     22  C   UNL     1      10.050   5.502   8.058  0.00  0.00    +0.153 A 
ATOM     24  C   UNL     1       9.089   6.078   8.855  0.00  0.00    +0.051 A 
ATOM     25  C   UNL     1       8.706   5.086   9.789  0.00  0.00    +0.042 A 
ATOM     26  C   UNL     1       9.459   3.973   9.495  0.00  0.00    +0.196 A 
ENDBRANCH  19  22
ENDBRANCH  10  17
BRANCH  11  16
ATOM     16  C   UNL     1      14.198   4.643   1.570  0.00  0.00    +0.124 C 
BRANCH  16   6
ATOM      6  N   UNL     1      14.935   4.289   0.346  0.00  0.00    -0.193 NA
ATOM     27  H   UNL     1      14.513   3.509  -0.175  0.00  0.00    +0.148 HD
BRANCH   6   1
ATOM      1  S   UNL     1      15.642   5.530  -0.591  0.00  0.00    +0.027 S 
ATOM      2  O   UNL     1      16.482   6.361   0.249  0.00  0.00    -0.158 OA
ATOM      3  O   UNL     1      14.614   6.119  -1.426  0.00  0.00    -0.158 OA
ATOM     21  C   UNL     1      16.703   4.573  -1.650  0.00  0.00    +0.214 C 
ENDBRANCH   6   1
ENDBRANCH  16   6
ENDBRANCH  11  16
TORSDOF 5
ENDMDL
MODEL 5
REMARK VINA RESULT:      -6.1      4.394      5.954
REMARK  Name = 26742452
REMARK  7 active torsions:
REMARK  status: ('A' for Active; 'I' for Inactive)
REMARK    1  A    between atoms: S_1  and  N_6
REMARK    2  A    between atoms: S_1  and  C_21
REMARK    3  A    between atoms: N_6  and  C_16
REMARK    4  A    between atoms: C_10  and  C_17
REMARK    5  A    between atoms: C_11  and  C_16
REMARK    6  A    between atoms: C_19  and  C_22
REMARK    7  A    between atoms: C_20  and  C_23
REMARK                            x       y       z     vdW  Elec       q    Type
REMARK                         _______ _______ _______ _____ _____    ______ ____
ROOT
ATOM      5  N   UNL     1      -1.707 -11.844  13.464  0.00  0.00    -0.297 NA
ATOM      9  C   UNL     1      -4.230 -11.210  13.337  0.00  0.00    +0.002 C 
ATOM     10  C   UNL     1      -3.586 -10.628  14.626  0.00  0.00    +0.055 C 
ATOM     11  C   UNL     1      -2.523 -13.056  13.185  0.00  0.00    +0.072 C 
ATOM     12  C   UNL     1      -4.028 -12.740  13.312  0.00  0.00    +0.024 C 
ATOM     13  C   UNL     1      -3.440 -10.629  12.144  0.00  0.00    +0.019 C 
ATOM     14  C   UNL     1      -2.149 -11.213  14.732  0.00  0.00    +0.094 C 
ATOM     15  C   UNL     1      -1.937 -10.879  12.361  0.00  0.00    +0.085 C 
ENDROOT
BRANCH  10  17
ATOM      7  N   UNL     1      -3.714 -11.336  16.965  0.00  0.00    -0.237 NA
ATOM      8  N   UNL     1      -5.690 -11.001  18.301  0.00  0.00    -0.229 NA
ATOM     17  C   UNL     1      -4.357 -10.751  15.933  0.00  0.00    +0.050 A 
ATOM     18  C   UNL     1      -5.650 -10.273  16.007  0.00  0.00    +0.055 A 
ATOM     19  C   UNL     1      -6.273 -10.426  17.228  0.00  0.00    +0.110 A 
ATOM     20  C   UNL     1      -4.429 -11.428  18.103  0.00  0.00    +0.127 A 
ATOM     23  C   UNL     1      -3.750 -12.067  19.266  0.00  0.00    +0.088 C 
BRANCH  19  22
ATOM      4  O   UNL     1      -8.363 -10.734  18.293  0.00  0.00    -0.461 OA
ATOM     22  C   UNL     1      -7.622  -9.974  17.445  0.00  0.00    +0.153 A 
ATOM     24  C   UNL     1      -8.361  -8.913  16.976  0.00  0.00    +0.051 A 
ATOM     25  C   UNL     1      -9.638  -9.028  17.575  0.00  0.00    +0.042 A 
ATOM     26  C   UNL     1      -9.589 -10.153  18.367  0.00  0.00    +0.196 A 
ENDBRANCH  19  22
ENDBRANCH  10  17
BRANCH  11  16
ATOM     16  C   UNL     1      -2.115 -14.245  14.058  0.00  0.00    +0.124 C 
BRANCH  16   6
ATOM      6  N   UNL     1      -3.195 -14.536  15.015  0.00  0.00    -0.193 NA
ATOM     27  H   UNL     1      -4.009 -13.915  14.916  0.00  0.00    +0.148 HD
BRANCH   6   1
ATOM      1  S   UNL     1      -3.528 -16.159  15.430  0.00  0.00    +0.027 S 
ATOM      2  O   UNL     1      -2.343 -16.774  15.995  0.00  0.00    -0.158 OA
ATOM      3  O   UNL     1      -4.233 -16.781  14.326  0.00  0.00    -0.158 OA
ATOM     21  C   UNL     1      -4.702 -15.923  16.745  0.00  0.00    +0.214 C 
ENDBRANCH   6   1
ENDBRANCH  16   6
ENDBRANCH  11  16
TORSDOF 5
ENDMDL
MODEL 6
REMARK VINA RESULT:      -6.0     23.692     27.558
REMARK  Name = 26742452
REMARK  7 active torsions:
REMARK  status: ('A' for Active; 'I' for Inactive)
REMARK    1  A    between atoms: S_1  and  N_6
REMARK    2  A    between atoms: S_1  and  C_21
REMARK    3  A    between atoms: N_6  and  C_16
REMARK    4  A    between atoms: C_10  and  C_17
REMARK    5  A    between atoms: C_11  and  C_16
REMARK    6  A    between atoms: C_19  and  C_22
REMARK    7  A    between atoms: C_20  and  C_23
REMARK                            x       y       z     vdW  Elec       q    Type
REMARK                         _______ _______ _______ _____ _____    ______ ____
ROOT
ATOM      5  N   UNL     1     -15.786   4.416  31.410  0.00  0.00    -0.297 NA
ATOM      9  C   UNL     1     -15.408   4.951  33.931  0.00  0.00    +0.002 C 
ATOM     10  C   UNL     1     -15.214   6.229  33.068  0.00  0.00    +0.055 C 
ATOM     11  C   UNL     1     -14.844   3.430  32.004  0.00  0.00    +0.072 C 
ATOM     12  C   UNL     1     -14.447   3.850  33.435  0.00  0.00    +0.024 C 
ATOM     13  C   UNL     1     -16.845   4.450  33.668  0.00  0.00    +0.019 C 
ATOM     14  C   UNL     1     -15.255   5.792  31.576  0.00  0.00    +0.094 C 
ATOM     15  C   UNL     1     -17.067   4.321  32.151  0.00  0.00    +0.085 C 
ENDROOT
BRANCH  10  17
ATOM      7  N   UNL     1     -13.354   7.628  32.316  0.00  0.00    -0.237 NA
ATOM      8  N   UNL     1     -11.884   8.748  33.862  0.00  0.00    -0.229 NA
ATOM     17  C   UNL     1     -14.025   7.128  33.375  0.00  0.00    +0.050 A 
ATOM     18  C   UNL     1     -13.691   7.389  34.688  0.00  0.00    +0.055 A 
ATOM     19  C   UNL     1     -12.600   8.214  34.873  0.00  0.00    +0.110 A 
ATOM     20  C   UNL     1     -12.308   8.419  32.627  0.00  0.00    +0.127 A 
ATOM     23  C   UNL     1     -11.543   8.991  31.483  0.00  0.00    +0.088 C 
BRANCH  19  22
ATOM      4  O   UNL     1     -11.082   7.851  36.650  0.00  0.00    -0.461 OA
ATOM     22  C   UNL     1     -12.141   8.568  36.190  0.00  0.00    +0.153 A 
ATOM     24  C   UNL     1     -12.539   9.495  37.124  0.00  0.00    +0.051 A 
ATOM     25  C   UNL     1     -11.669   9.339  38.229  0.00  0.00    +0.042 A 
ATOM     26  C   UNL     1     -10.801   8.325  37.892  0.00  0.00    +0.196 A 
ENDBRANCH  19  22
ENDBRANCH  10  17
BRANCH  11  16
ATOM     16  C   UNL     1     -13.617   3.191  31.120  0.00  0.00    +0.124 C 
BRANCH  16   6
ATOM      6  N   UNL     1     -13.247   1.768  31.180  0.00  0.00    -0.193 NA
ATOM     27  H   UNL     1     -12.999   1.448  32.126  0.00  0.00    +0.148 HD
BRANCH   6   1
ATOM      1  S   UNL     1     -14.080   0.647  30.197  0.00  0.00    +0.027 S 
ATOM      2  O   UNL     1     -13.142  -0.308  29.640  0.00  0.00    -0.158 OA
ATOM      3  O   UNL     1     -14.995   1.375  29.341  0.00  0.00    -0.158 OA
ATOM     21  C   UNL     1     -15.055  -0.197  31.422  0.00  0.00    +0.214 C 
ENDBRANCH   6   1
ENDBRANCH  16   6
ENDBRANCH  11  16
TORSDOF 5
ENDMDL
MODEL 7
REMARK VINA RESULT:      -5.9      4.913      7.839
REMARK  Name = 26742452
REMARK  7 active torsions:
REMARK  status: ('A' for Active; 'I' for Inactive)
REMARK    1  A    between atoms: S_1  and  N_6
REMARK    2  A    between atoms: S_1  and  C_21
REMARK    3  A    between atoms: N_6  and  C_16
REMARK    4  A    between atoms: C_10  and  C_17
REMARK    5  A    between atoms: C_11  and  C_16
REMARK    6  A    between atoms: C_19  and  C_22
REMARK    7  A    between atoms: C_20  and  C_23
REMARK                            x       y       z     vdW  Elec       q    Type
REMARK                         _______ _______ _______ _____ _____    ______ ____
ROOT
ATOM      5  N   UNL     1     -10.660  -9.977  15.786  0.00  0.00    -0.297 NA
ATOM      9  C   UNL     1      -9.206  -8.338  17.195  0.00  0.00    +0.002 C 
ATOM     10  C   UNL     1      -8.308  -9.200  16.265  0.00  0.00    +0.055 C 
ATOM     11  C   UNL     1     -11.033 -10.072  17.222  0.00  0.00    +0.072 C 
ATOM     12  C   UNL     1     -10.048  -9.267  18.096  0.00  0.00    +0.024 C 
ATOM     13  C   UNL     1     -10.192  -7.577  16.282  0.00  0.00    +0.019 C 
ATOM     14  C   UNL     1      -9.218 -10.281  15.613  0.00  0.00    +0.094 C 
ATOM     15  C   UNL     1     -10.894  -8.579  15.348  0.00  0.00    +0.085 C 
ENDROOT
BRANCH  10  17
ATOM      7  N   UNL     1      -7.091 -10.223  18.125  0.00  0.00    -0.237 NA
ATOM      8  N   UNL     1      -4.775 -10.865  17.943  0.00  0.00    -0.229 NA
ATOM     17  C   UNL     1      -7.033  -9.793  16.847  0.00  0.00    +0.050 A 
ATOM     18  C   UNL     1      -5.898  -9.865  16.064  0.00  0.00    +0.055 A 
ATOM     19  C   UNL     1      -4.788 -10.416  16.671  0.00  0.00    +0.110 A 
ATOM     20  C   UNL     1      -5.942 -10.740  18.603  0.00  0.00    +0.127 A 
ATOM     23  C   UNL     1      -5.968 -11.228  20.012  0.00  0.00    +0.088 C 
BRANCH  19  22
ATOM      4  O   UNL     1      -3.626 -10.541  14.615  0.00  0.00    -0.461 OA
ATOM     22  C   UNL     1      -3.538 -10.550  15.971  0.00  0.00    +0.153 A 
ATOM     24  C   UNL     1      -2.230 -10.689  16.370  0.00  0.00    +0.051 A 
ATOM     25  C   UNL     1      -1.463 -10.772  15.182  0.00  0.00    +0.042 A 
ATOM     26  C   UNL     1      -2.360 -10.678  14.142  0.00  0.00    +0.196 A 
ENDBRANCH  19  22
ENDBRANCH  10  17
BRANCH  11  16
ATOM     16  C   UNL     1     -11.161 -11.522  17.695  0.00  0.00    +0.124 C 
BRANCH  16   6
ATOM      6  N   UNL     1     -10.100 -11.807  18.674  0.00  0.00    -0.193 NA
ATOM     27  H   UNL     1     -10.193 -11.272  19.548  0.00  0.00    +0.148 HD
BRANCH   6   1
ATOM      1  S   UNL     1      -9.507 -13.401  18.824  0.00  0.00    +0.027 S 
ATOM      2  O   UNL     1     -10.589 -14.347  18.632  0.00  0.00    -0.158 OA
ATOM      3  O   UNL     1      -8.661 -13.470  19.999  0.00  0.00    -0.158 OA
ATOM     21  C   UNL     1      -8.446 -13.489  17.400  0.00  0.00    +0.214 C 
ENDBRANCH   6   1
ENDBRANCH  16   6
ENDBRANCH  11  16
TORSDOF 5
ENDMDL
MODEL 8
REMARK VINA RESULT:      -5.9     23.218     25.143
REMARK  Name = 26742452
REMARK  7 active torsions:
REMARK  status: ('A' for Active; 'I' for Inactive)
REMARK    1  A    between atoms: S_1  and  N_6
REMARK    2  A    between atoms: S_1  and  C_21
REMARK    3  A    between atoms: N_6  and  C_16
REMARK    4  A    between atoms: C_10  and  C_17
REMARK    5  A    between atoms: C_11  and  C_16
REMARK    6  A    between atoms: C_19  and  C_22
REMARK    7  A    between atoms: C_20  and  C_23
REMARK                            x       y       z     vdW  Elec       q    Type
REMARK                         _______ _______ _______ _____ _____    ______ ____
ROOT
ATOM      5  N   UNL     1      12.120   6.685   0.760  0.00  0.00    -0.297 NA
ATOM      9  C   UNL     1      10.418   5.048   1.858  0.00  0.00    +0.002 C 
ATOM     10  C   UNL     1       9.896   6.510   1.939  0.00  0.00    +0.055 C 
ATOM     11  C   UNL     1      12.820   5.795   1.724  0.00  0.00    +0.072 C 
ATOM     12  C   UNL     1      11.803   4.963   2.534  0.00  0.00    +0.024 C 
ATOM     13  C   UNL     1      10.624   4.730   0.361  0.00  0.00    +0.019 C 
ATOM     14  C   UNL     1      11.045   7.439   1.452  0.00  0.00    +0.094 C 
ATOM     15  C   UNL     1      11.493   5.829  -0.275  0.00  0.00    +0.085 C 
ENDROOT
BRANCH  10  17
ATOM      7  N   UNL     1       8.470   8.057   3.186  0.00  0.00    -0.237 NA
ATOM      8  N   UNL     1       8.163   7.880   5.570  0.00  0.00    -0.229 NA
ATOM     17  C   UNL     1       9.286   6.984   3.250  0.00  0.00    +0.050 A 
ATOM     18  C   UNL     1       9.585   6.315   4.420  0.00  0.00    +0.055 A 
ATOM     19  C   UNL     1       8.988   6.813   5.560  0.00  0.00    +0.110 A 
ATOM     20  C   UNL     1       7.951   8.447   4.367  0.00  0.00    +0.127 A 
ATOM     23  C   UNL     1       7.042   9.629   4.336  0.00  0.00    +0.088 C 
BRANCH  19  22
ATOM      4  O   UNL     1       9.718   4.951   6.823  0.00  0.00    -0.461 OA
ATOM     22  C   UNL     1       9.213   6.213   6.848  0.00  0.00    +0.153 A 
ATOM     24  C   UNL     1       9.031   6.635   8.144  0.00  0.00    +0.051 A 
ATOM     25  C   UNL     1       9.449   5.563   8.969  0.00  0.00    +0.042 A 
ATOM     26  C   UNL     1       9.857   4.562   8.118  0.00  0.00    +0.196 A 
ENDBRANCH  19  22
ENDBRANCH  10  17
BRANCH  11  16
ATOM     16  C   UNL     1      13.780   6.564   2.635  0.00  0.00    +0.124 C 
BRANCH  16   6
ATOM      6  N   UNL     1      13.288   6.502   4.020  0.00  0.00    -0.193 NA
ATOM     27  H   UNL     1      13.150   5.542   4.365  0.00  0.00    +0.148 HD
BRANCH   6   1
ATOM      1  S   UNL     1      13.857   7.639   5.161  0.00  0.00    +0.027 S 
ATOM      2  O   UNL     1      13.532   8.981   4.719  0.00  0.00    -0.158 OA
ATOM      3  O   UNL     1      15.215   7.286   5.525  0.00  0.00    -0.158 OA
ATOM     21  C   UNL     1      12.817   7.253   6.551  0.00  0.00    +0.214 C 
ENDBRANCH   6   1
ENDBRANCH  16   6
ENDBRANCH  11  16
TORSDOF 5
ENDMDL
MODEL 9
REMARK VINA RESULT:      -5.9     29.414     32.664
REMARK  Name = 26742452
REMARK  7 active torsions:
REMARK  status: ('A' for Active; 'I' for Inactive)
REMARK    1  A    between atoms: S_1  and  N_6
REMARK    2  A    between atoms: S_1  and  C_21
REMARK    3  A    between atoms: N_6  and  C_16
REMARK    4  A    between atoms: C_10  and  C_17
REMARK    5  A    between atoms: C_11  and  C_16
REMARK    6  A    between atoms: C_19  and  C_22
REMARK    7  A    between atoms: C_20  and  C_23
REMARK                            x       y       z     vdW  Elec       q    Type
REMARK                         _______ _______ _______ _____ _____    ______ ____
ROOT
ATOM      5  N   UNL     1      24.807   3.580  22.329  0.00  0.00    -0.297 NA
ATOM      9  C   UNL     1      22.472   3.085  21.286  0.00  0.00    +0.002 C 
ATOM     10  C   UNL     1      22.973   4.492  20.857  0.00  0.00    +0.055 C 
ATOM     11  C   UNL     1      23.870   3.105  23.381  0.00  0.00    +0.072 C 
ATOM     12  C   UNL     1      22.433   3.006  22.827  0.00  0.00    +0.024 C 
ATOM     13  C   UNL     1      23.532   2.069  20.807  0.00  0.00    +0.019 C 
ATOM     14  C   UNL     1      24.263   4.794  21.673  0.00  0.00    +0.094 C 
ATOM     15  C   UNL     1      24.919   2.511  21.306  0.00  0.00    +0.085 C 
ENDROOT
BRANCH  10  17
ATOM      7  N   UNL     1      22.481   6.863  21.207  0.00  0.00    -0.237 NA
ATOM      8  N   UNL     1      20.257   7.760  20.970  0.00  0.00    -0.229 NA
ATOM     17  C   UNL     1      21.984   5.648  20.892  0.00  0.00    +0.050 A 
ATOM     18  C   UNL     1      20.654   5.413  20.608  0.00  0.00    +0.055 A 
ATOM     19  C   UNL     1      19.828   6.518  20.663  0.00  0.00    +0.110 A 
ATOM     20  C   UNL     1      21.574   7.860  21.228  0.00  0.00    +0.127 A 
ATOM     23  C   UNL     1      22.086   9.217  21.571  0.00  0.00    +0.088 C 
BRANCH  19  22
ATOM      4  O   UNL     1      17.600   6.817  21.397  0.00  0.00    -0.461 OA
ATOM     22  C   UNL     1      18.419   6.416  20.390  0.00  0.00    +0.153 A 
ATOM     24  C   UNL     1      17.683   5.993  19.308  0.00  0.00    +0.051 A 
ATOM     25  C   UNL     1      16.324   6.143  19.674  0.00  0.00    +0.042 A 
ATOM     26  C   UNL     1      16.327   6.647  20.954  0.00  0.00    +0.196 A 
ENDBRANCH  19  22
ENDBRANCH  10  17
BRANCH  11  16
ATOM     16  C   UNL     1      23.934   3.963  24.648  0.00  0.00    +0.124 C 
BRANCH  16   6
ATOM      6  N   UNL     1      22.575   4.401  25.005  0.00  0.00    -0.193 NA
ATOM     27  H   UNL     1      22.170   3.881  25.794  0.00  0.00    +0.148 HD
BRANCH   6   1
ATOM      1  S   UNL     1      22.182   6.060  24.912  0.00  0.00    +0.027 S 
ATOM      2  O   UNL     1      20.918   6.227  24.220  0.00  0.00    -0.158 OA
ATOM      3  O   UNL     1      23.361   6.791  24.489  0.00  0.00    -0.158 OA
ATOM     21  C   UNL     1      21.916   6.428  26.631  0.00  0.00    +0.214 C 
ENDBRANCH   6   1
ENDBRANCH  16   6
ENDBRANCH  11  16
TORSDOF 5
ENDMDL
MODEL 10
REMARK VINA RESULT:      -5.8     23.647     25.382
REMARK  Name = 26742452
REMARK  7 active torsions:
REMARK  status: ('A' for Active; 'I' for Inactive)
REMARK    1  A    between atoms: S_1  and  N_6
REMARK    2  A    between atoms: S_1  and  C_21
REMARK    3  A    between atoms: N_6  and  C_16
REMARK    4  A    between atoms: C_10  and  C_17
REMARK    5  A    between atoms: C_11  and  C_16
REMARK    6  A    between atoms: C_19  and  C_22
REMARK    7  A    between atoms: C_20  and  C_23
REMARK                            x       y       z     vdW  Elec       q    Type
REMARK                         _______ _______ _______ _____ _____    ______ ____
ROOT
ATOM      5  N   UNL     1      11.810   8.286   0.989  0.00  0.00    -0.297 NA
ATOM      9  C   UNL     1      10.077   6.989   2.438  0.00  0.00    +0.002 C 
ATOM     10  C   UNL     1      10.889   7.981   3.318  0.00  0.00    +0.055 C 
ATOM     11  C   UNL     1      11.919   6.827   0.728  0.00  0.00    +0.072 C 
ATOM     12  C   UNL     1      11.050   6.028   1.723  0.00  0.00    +0.024 C 
ATOM     13  C   UNL     1       9.383   7.829   1.344  0.00  0.00    +0.019 C 
ATOM     14  C   UNL     1      12.027   8.562   2.431  0.00  0.00    +0.094 C 
ATOM     15  C   UNL     1      10.432   8.708   0.639  0.00  0.00    +0.085 C 
ENDROOT
BRANCH  10  17
ATOM      7  N   UNL     1      12.723   7.618   4.895  0.00  0.00    -0.237 NA
ATOM      8  N   UNL     1      12.372   6.635   7.067  0.00  0.00    -0.229 NA
ATOM     17  C   UNL     1      11.399   7.493   4.666  0.00  0.00    +0.050 A 
ATOM     18  C   UNL     1      10.510   6.956   5.576  0.00  0.00    +0.055 A 
ATOM     19  C   UNL     1      11.059   6.540   6.771  0.00  0.00    +0.110 A 
ATOM     20  C   UNL     1      13.136   7.174   6.099  0.00  0.00    +0.127 A 
ATOM     23  C   UNL     1      14.593   7.297   6.389  0.00  0.00    +0.088 C 
BRANCH  19  22
ATOM      4  O   UNL     1      10.614   4.715   8.209  0.00  0.00    -0.461 OA
ATOM     22  C   UNL     1      10.247   5.961   7.809  0.00  0.00    +0.153 A 
ATOM     24  C   UNL     1       9.148   6.391   8.514  0.00  0.00    +0.051 A 
ATOM     25  C   UNL     1       8.817   5.342   9.405  0.00  0.00    +0.042 A 
ATOM     26  C   UNL     1       9.739   4.345   9.180  0.00  0.00    +0.196 A 
ENDBRANCH  19  22
ENDBRANCH  10  17
BRANCH  11  16
ATOM     16  C   UNL     1      13.371   6.342   0.724  0.00  0.00    +0.124 C 
BRANCH  16   6
ATOM      6  N   UNL     1      13.530   5.280   1.731  0.00  0.00    -0.193 NA
ATOM     27  H   UNL     1      12.864   5.353   2.512  0.00  0.00    +0.148 HD
BRANCH   6   1
ATOM      1  S   UNL     1      13.927   3.700   1.221  0.00  0.00    +0.027 S 
ATOM      2  O   UNL     1      15.051   3.204   1.991  0.00  0.00    -0.158 OA
ATOM      3  O   UNL     1      13.952   3.675  -0.228  0.00  0.00    -0.158 OA
ATOM     21  C   UNL     1      12.475   2.815   1.742  0.00  0.00    +0.214 C 
ENDBRANCH   6   1
ENDBRANCH  16   6
ENDBRANCH  11  16
TORSDOF 5
ENDMDL
