MODEL 1
REMARK VINA RESULT:      -6.9      0.000      0.000
REMARK  Name = 38030349
REMARK  15 active torsions:
REMARK  status: ('A' for Active; 'I' for Inactive)
REMARK    1  A    between atoms: N_2  and  C_13
REMARK    2  A    between atoms: N_2  and  C_18
REMARK    3  A    between atoms: N_2  and  C_20
REMARK    4  A    between atoms: N_4  and  C_21
REMARK    5  A    between atoms: N_4  and  C_23
REMARK    6  A    between atoms: N_4  and  C_24
REMARK    7  A    between atoms: C_6  and  C_10
REMARK    8  A    between atoms: C_7  and  C_13
REMARK    9  A    between atoms: C_9  and  C_14
REMARK   10  A    between atoms: C_10  and  C_15
REMARK   11  A    between atoms: C_10  and  C_16
REMARK   12  A    between atoms: C_11  and  C_17
REMARK   13  A    between atoms: C_14  and  C_19
REMARK   14  A    between atoms: C_18  and  C_21
REMARK   15  A    between atoms: C_22  and  C_25
REMARK                            x       y       z     vdW  Elec       q    Type
REMARK                         _______ _______ _______ _____ _____    ______ ____
ROOT
ATOM      6  C   UNL     1      13.572   9.386  18.288  0.00  0.00    +0.000 C 
ATOM      7  C   UNL     1      12.362   9.800  19.159  0.00  0.00    +0.029 C 
ATOM      8  C   UNL     1      14.557   8.539  19.105  0.00  0.00    +0.012 C 
ATOM      9  C   UNL     1      13.915   7.280  19.725  0.00  0.00    +0.024 C 
ATOM     11  C   UNL     1      12.510   7.527  20.255  0.00  0.00    -0.073 C 
ATOM     12  C   UNL     1      11.838   8.666  20.001  0.00  0.00    -0.023 C 
ATOM     17  C   UNL     1      11.858   6.420  21.037  0.00  0.00    +0.039 C 
ENDROOT
BRANCH   6  10
ATOM     10  C   UNL     1      13.121   8.645  17.022  0.00  0.00    -0.013 C 
ATOM     15  C   UNL     1      11.759   9.155  16.562  0.00  0.00    +0.007 C 
ATOM     16  C   UNL     1      14.159   8.804  15.915  0.00  0.00    +0.007 C 
ENDBRANCH   6  10
BRANCH   7  13
ATOM     13  C   UNL     1      12.699  10.987  20.067  0.00  0.00    +0.092 C 
BRANCH  13   2
ATOM      2  N   UNL     1      12.425  10.676  21.434  0.00  0.00    -0.304 NA
ATOM     20  C   UNL     1      13.627  10.817  22.276  0.00  0.00    +0.104 C 
BRANCH   2  18
ATOM     18  C   UNL     1      11.350  11.524  21.981  0.00  0.00    +0.099 C 
BRANCH  18  21
ATOM     21  C   UNL     1      10.806  10.916  23.271  0.00  0.00    +0.099 C 
BRANCH  21   4
ATOM      4  N   UNL     1      10.412  11.971  24.197  0.00  0.00    -0.307 NA
ATOM     23  C   UNL     1      10.427  13.274  23.531  0.00  0.00    +0.104 C 
ATOM     24  C   UNL     1      11.294  11.987  25.365  0.00  0.00    +0.104 C 
ENDBRANCH  21   4
ENDBRANCH  18  21
ENDBRANCH   2  18
ENDBRANCH  13   2
ENDBRANCH   7  13
BRANCH   9  14
ATOM     14  C   UNL     1      14.864   6.720  20.792  0.00  0.00    +0.105 C 
BRANCH  14  19
ATOM      1  O   UNL     1      17.286   6.469  20.971  0.00  0.00    -0.420 OA
ATOM      3  N   UNL     1      16.440   5.809  19.008  0.00  0.00    -0.112 NA
ATOM      5  N   UNL     1      17.808   5.613  18.972  0.00  0.00    -0.107 NA
ATOM     19  C   UNL     1      16.180   6.310  20.193  0.00  0.00    +0.218 A 
ATOM     22  C   UNL     1      18.260   6.012  20.137  0.00  0.00    +0.248 A 
BRANCH  22  25
ATOM     25  C   UNL     1      19.595   6.039  20.658  0.00  0.00    +0.038 A 
ATOM     26  C   UNL     1      20.500   5.035  20.312  0.00  0.00    +0.013 A 
ATOM     27  C   UNL     1      19.990   7.070  21.510  0.00  0.00    +0.013 A 
ATOM     28  C   UNL     1      21.800   5.061  20.819  0.00  0.00    +0.001 A 
ATOM     29  C   UNL     1      21.290   7.097  22.017  0.00  0.00    +0.001 A 
ATOM     30  C   UNL     1      22.194   6.093  21.671  0.00  0.00    +0.000 A 
ENDBRANCH  22  25
ENDBRANCH  14  19
ENDBRANCH   9  14
TORSDOF 9
ENDMDL
MODEL 2
REMARK VINA RESULT:      -6.5     26.176     29.288
REMARK  Name = 38030349
REMARK  15 active torsions:
REMARK  status: ('A' for Active; 'I' for Inactive)
REMARK    1  A    between atoms: N_2  and  C_13
REMARK    2  A    between atoms: N_2  and  C_18
REMARK    3  A    between atoms: N_2  and  C_20
REMARK    4  A    between atoms: N_4  and  C_21
REMARK    5  A    between atoms: N_4  and  C_23
REMARK    6  A    between atoms: N_4  and  C_24
REMARK    7  A    between atoms: C_6  and  C_10
REMARK    8  A    between atoms: C_7  and  C_13
REMARK    9  A    between atoms: C_9  and  C_14
REMARK   10  A    between atoms: C_10  and  C_15
REMARK   11  A    between atoms: C_10  and  C_16
REMARK   12  A    between atoms: C_11  and  C_17
REMARK   13  A    between atoms: C_14  and  C_19
REMARK   14  A    between atoms: C_18  and  C_21
REMARK   15  A    between atoms: C_22  and  C_25
REMARK                            x       y       z     vdW  Elec       q    Type
REMARK                         _______ _______ _______ _____ _____    ______ ____
ROOT
ATOM      6  C   UNL     1      -5.574 -10.434  10.696  0.00  0.00    +0.000 C 
ATOM      7  C   UNL     1      -4.764 -10.110   9.419  0.00  0.00    +0.029 C 
ATOM      8  C   UNL     1      -4.701 -11.186  11.710  0.00  0.00    +0.012 C 
ATOM      9  C   UNL     1      -3.417 -10.423  12.097  0.00  0.00    +0.024 C 
ATOM     11  C   UNL     1      -2.766  -9.715  10.918  0.00  0.00    -0.073 C 
ATOM     12  C   UNL     1      -3.381  -9.596   9.726  0.00  0.00    -0.023 C 
ATOM     17  C   UNL     1      -1.418  -9.088  11.141  0.00  0.00    +0.039 C 
ENDROOT
BRANCH   6  10
ATOM     10  C   UNL     1      -6.175  -9.165  11.315  0.00  0.00    -0.013 C 
ATOM     15  C   UNL     1      -7.044  -8.436  10.297  0.00  0.00    +0.007 C 
ATOM     16  C   UNL     1      -6.981  -9.512  12.563  0.00  0.00    +0.007 C 
ENDBRANCH   6  10
BRANCH   7  13
ATOM     13  C   UNL     1      -4.657 -11.325   8.493  0.00  0.00    +0.092 C 
BRANCH  13   2
ATOM      2  N   UNL     1      -4.759 -10.931   7.124  0.00  0.00    -0.304 NA
ATOM     20  C   UNL     1      -5.010 -12.087   6.243  0.00  0.00    +0.104 C 
BRANCH   2  18
ATOM     18  C   UNL     1      -5.823  -9.930   6.922  0.00  0.00    +0.099 C 
BRANCH  18  21
ATOM     21  C   UNL     1      -6.452 -10.102   5.542  0.00  0.00    +0.099 C 
BRANCH  21   4
ATOM      4  N   UNL     1      -6.971  -8.826   5.063  0.00  0.00    -0.307 NA
ATOM     23  C   UNL     1      -7.744  -8.159   6.111  0.00  0.00    +0.104 C 
ATOM     24  C   UNL     1      -7.794  -9.021   3.869  0.00  0.00    +0.104 C 
ENDBRANCH  21   4
ENDBRANCH  18  21
ENDBRANCH   2  18
ENDBRANCH  13   2
ENDBRANCH   7  13
BRANCH   9  14
ATOM     14  C   UNL     1      -2.465 -11.393  12.808  0.00  0.00    +0.105 C 
BRANCH  14  19
ATOM      1  O   UNL     1      -3.577 -11.243  14.976  0.00  0.00    -0.420 OA
ATOM      3  N   UNL     1      -1.389 -10.782  15.035  0.00  0.00    -0.112 NA
ATOM      5  N   UNL     1      -1.886 -10.659  16.319  0.00  0.00    -0.107 NA
ATOM     19  C   UNL     1      -2.410 -11.123  14.285  0.00  0.00    +0.218 A 
ATOM     22  C   UNL     1      -3.166 -10.937  16.237  0.00  0.00    +0.248 A 
BRANCH  22  25
ATOM     25  C   UNL     1      -4.179 -10.969  17.252  0.00  0.00    +0.038 A 
ATOM     26  C   UNL     1      -5.366 -10.259  17.073  0.00  0.00    +0.013 A 
ATOM     27  C   UNL     1      -3.978 -11.710  18.415  0.00  0.00    +0.013 A 
ATOM     28  C   UNL     1      -6.353 -10.289  18.059  0.00  0.00    +0.001 A 
ATOM     29  C   UNL     1      -4.965 -11.741  19.402  0.00  0.00    +0.001 A 
ATOM     30  C   UNL     1      -6.152 -11.031  19.223  0.00  0.00    +0.000 A 
ENDBRANCH  22  25
ENDBRANCH  14  19
ENDBRANCH   9  14
TORSDOF 9
ENDMDL
MODEL 3
REMARK VINA RESULT:      -6.5     26.544     29.688
REMARK  Name = 38030349
REMARK  15 active torsions:
REMARK  status: ('A' for Active; 'I' for Inactive)
REMARK    1  A    between atoms: N_2  and  C_13
REMARK    2  A    between atoms: N_2  and  C_18
REMARK    3  A    between atoms: N_2  and  C_20
REMARK    4  A    between atoms: N_4  and  C_21
REMARK    5  A    between atoms: N_4  and  C_23
REMARK    6  A    between atoms: N_4  and  C_24
REMARK    7  A    between atoms: C_6  and  C_10
REMARK    8  A    between atoms: C_7  and  C_13
REMARK    9  A    between atoms: C_9  and  C_14
REMARK   10  A    between atoms: C_10  and  C_15
REMARK   11  A    between atoms: C_10  and  C_16
REMARK   12  A    between atoms: C_11  and  C_17
REMARK   13  A    between atoms: C_14  and  C_19
REMARK   14  A    between atoms: C_18  and  C_21
REMARK   15  A    between atoms: C_22  and  C_25
REMARK                            x       y       z     vdW  Elec       q    Type
REMARK                         _______ _______ _______ _____ _____    ______ ____
ROOT
ATOM      6  C   UNL     1      -3.789 -11.980  12.355  0.00  0.00    +0.000 C 
ATOM      7  C   UNL     1      -2.771 -11.410  13.370  0.00  0.00    +0.029 C 
ATOM      8  C   UNL     1      -4.320 -10.866  11.442  0.00  0.00    +0.012 C 
ATOM      9  C   UNL     1      -3.206 -10.113  10.684  0.00  0.00    +0.024 C 
ATOM     11  C   UNL     1      -1.968  -9.869  11.533  0.00  0.00    -0.073 C 
ATOM     12  C   UNL     1      -1.798 -10.449  12.737  0.00  0.00    -0.023 C 
ATOM     17  C   UNL     1      -0.891  -8.991  10.957  0.00  0.00    +0.039 C 
ENDROOT
BRANCH   6  10
ATOM     10  C   UNL     1      -3.180 -13.126  11.536  0.00  0.00    -0.013 C 
ATOM     15  C   UNL     1      -2.576 -14.179  12.459  0.00  0.00    +0.007 C 
ATOM     16  C   UNL     1      -4.234 -13.748  10.624  0.00  0.00    +0.007 C 
ENDBRANCH   6  10
BRANCH   7  13
ATOM     13  C   UNL     1      -3.470 -10.718  14.544  0.00  0.00    +0.092 C 
BRANCH  13   2
ATOM      2  N   UNL     1      -2.998 -11.233  15.791  0.00  0.00    -0.304 NA
ATOM     20  C   UNL     1      -1.674 -10.687  16.138  0.00  0.00    +0.104 C 
BRANCH   2  18
ATOM     18  C   UNL     1      -3.940 -10.949  16.890  0.00  0.00    +0.099 C 
BRANCH  18  21
ATOM     21  C   UNL     1      -5.029 -12.018  16.937  0.00  0.00    +0.099 C 
BRANCH  21   4
ATOM      4  N   UNL     1      -5.082 -12.623  18.264  0.00  0.00    -0.307 NA
ATOM     23  C   UNL     1      -6.420 -12.483  18.839  0.00  0.00    +0.104 C 
ATOM     24  C   UNL     1      -4.084 -12.017  19.146  0.00  0.00    +0.104 C 
ENDBRANCH  21   4
ENDBRANCH  18  21
ENDBRANCH   2  18
ENDBRANCH  13   2
ENDBRANCH   7  13
BRANCH   9  14
ATOM     14  C   UNL     1      -3.795  -8.822  10.103  0.00  0.00    +0.105 C 
BRANCH  14  19
ATOM      1  O   UNL     1      -4.508  -9.864   8.015  0.00  0.00    -0.420 OA
ATOM      3  N   UNL     1      -6.130  -8.754   9.084  0.00  0.00    -0.112 NA
ATOM      5  N   UNL     1      -6.668  -9.289   7.929  0.00  0.00    -0.107 NA
ATOM     19  C   UNL     1      -4.867  -9.115   9.093  0.00  0.00    +0.218 A 
ATOM     22  C   UNL     1      -5.687  -9.928   7.336  0.00  0.00    +0.248 A 
BRANCH  22  25
ATOM     25  C   UNL     1      -5.665 -10.668   6.109  0.00  0.00    +0.038 A 
ATOM     26  C   UNL     1      -4.607 -11.536   5.837  0.00  0.00    +0.013 A 
ATOM     27  C   UNL     1      -6.701 -10.523   5.187  0.00  0.00    +0.013 A 
ATOM     28  C   UNL     1      -4.584 -12.258   4.644  0.00  0.00    +0.001 A 
ATOM     29  C   UNL     1      -6.679 -11.245   3.993  0.00  0.00    +0.001 A 
ATOM     30  C   UNL     1      -5.621 -12.112   3.722  0.00  0.00    +0.000 A 
ENDBRANCH  22  25
ENDBRANCH  14  19
ENDBRANCH   9  14
TORSDOF 9
ENDMDL
MODEL 4
REMARK VINA RESULT:      -6.2     17.343     21.922
REMARK  Name = 38030349
REMARK  15 active torsions:
REMARK  status: ('A' for Active; 'I' for Inactive)
REMARK    1  A    between atoms: N_2  and  C_13
REMARK    2  A    between atoms: N_2  and  C_18
REMARK    3  A    between atoms: N_2  and  C_20
REMARK    4  A    between atoms: N_4  and  C_21
REMARK    5  A    between atoms: N_4  and  C_23
REMARK    6  A    between atoms: N_4  and  C_24
REMARK    7  A    between atoms: C_6  and  C_10
REMARK    8  A    between atoms: C_7  and  C_13
REMARK    9  A    between atoms: C_9  and  C_14
REMARK   10  A    between atoms: C_10  and  C_15
REMARK   11  A    between atoms: C_10  and  C_16
REMARK   12  A    between atoms: C_11  and  C_17
REMARK   13  A    between atoms: C_14  and  C_19
REMARK   14  A    between atoms: C_18  and  C_21
REMARK   15  A    between atoms: C_22  and  C_25
REMARK                            x       y       z     vdW  Elec       q    Type
REMARK                         _______ _______ _______ _____ _____    ______ ____
ROOT
ATOM      6  C   UNL     1      10.792   4.996  -1.283  0.00  0.00    +0.000 C 
ATOM      7  C   UNL     1      11.742   3.900  -1.821  0.00  0.00    +0.029 C 
ATOM      8  C   UNL     1      10.381   4.688   0.163  0.00  0.00    +0.012 C 
ATOM      9  C   UNL     1      11.580   4.532   1.121  0.00  0.00    +0.024 C 
ATOM     11  C   UNL     1      12.752   3.791   0.494  0.00  0.00    -0.073 C 
ATOM     12  C   UNL     1      12.799   3.507  -0.821  0.00  0.00    -0.023 C 
ATOM     17  C   UNL     1      13.903   3.427   1.390  0.00  0.00    +0.039 C 
ENDROOT
BRANCH   6  10
ATOM     10  C   UNL     1      11.425   6.389  -1.395  0.00  0.00    -0.013 C 
ATOM     15  C   UNL     1      11.862   6.662  -2.831  0.00  0.00    +0.007 C 
ATOM     16  C   UNL     1      10.448   7.457  -0.916  0.00  0.00    +0.007 C 
ENDBRANCH   6  10
BRANCH   7  13
ATOM     13  C   UNL     1      10.973   2.650  -2.259  0.00  0.00    +0.092 C 
BRANCH  13   2
ATOM      2  N   UNL     1      10.838   2.608  -3.681  0.00  0.00    -0.304 NA
ATOM     20  C   UNL     1       9.516   3.096  -4.116  0.00  0.00    +0.104 C 
BRANCH   2  18
ATOM     18  C   UNL     1      11.888   3.395  -4.352  0.00  0.00    +0.099 C 
BRANCH  18  21
ATOM     21  C   UNL     1      11.366   3.948  -5.675  0.00  0.00    +0.099 C 
BRANCH  21   4
ATOM      4  N   UNL     1      12.073   3.332  -6.792  0.00  0.00    -0.307 NA
ATOM     23  C   UNL     1      11.199   2.396  -7.501  0.00  0.00    +0.104 C 
ATOM     24  C   UNL     1      13.278   2.646  -6.323  0.00  0.00    +0.104 C 
ENDBRANCH  21   4
ENDBRANCH  18  21
ENDBRANCH   2  18
ENDBRANCH  13   2
ENDBRANCH   7  13
BRANCH   9  14
ATOM     14  C   UNL     1      11.089   3.882   2.420  0.00  0.00    +0.105 C 
BRANCH  14  19
ATOM      1  O   UNL     1      10.443   4.462   4.701  0.00  0.00    -0.420 OA
ATOM      3  N   UNL     1      11.428   6.126   3.578  0.00  0.00    -0.112 NA
ATOM      5  N   UNL     1      11.118   6.589   4.843  0.00  0.00    -0.107 NA
ATOM     19  C   UNL     1      11.016   4.881   3.540  0.00  0.00    +0.218 A 
ATOM     22  C   UNL     1      10.545   5.585   5.463  0.00  0.00    +0.248 A 
BRANCH  22  25
ATOM     25  C   UNL     1      10.021   5.490   6.794  0.00  0.00    +0.038 A 
ATOM     26  C   UNL     1      10.087   4.279   7.485  0.00  0.00    +0.013 A 
ATOM     27  C   UNL     1       9.445   6.606   7.399  0.00  0.00    +0.013 A 
ATOM     28  C   UNL     1       9.578   4.185   8.780  0.00  0.00    +0.001 A 
ATOM     29  C   UNL     1       8.935   6.513   8.695  0.00  0.00    +0.001 A 
ATOM     30  C   UNL     1       9.002   5.303   9.384  0.00  0.00    +0.000 A 
ENDBRANCH  22  25
ENDBRANCH  14  19
ENDBRANCH   9  14
TORSDOF 9
ENDMDL
MODEL 5
REMARK VINA RESULT:      -6.2     25.950     29.957
REMARK  Name = 38030349
REMARK  15 active torsions:
REMARK  status: ('A' for Active; 'I' for Inactive)
REMARK    1  A    between atoms: N_2  and  C_13
REMARK    2  A    between atoms: N_2  and  C_18
REMARK    3  A    between atoms: N_2  and  C_20
REMARK    4  A    between atoms: N_4  and  C_21
REMARK    5  A    between atoms: N_4  and  C_23
REMARK    6  A    between atoms: N_4  and  C_24
REMARK    7  A    between atoms: C_6  and  C_10
REMARK    8  A    between atoms: C_7  and  C_13
REMARK    9  A    between atoms: C_9  and  C_14
REMARK   10  A    between atoms: C_10  and  C_15
REMARK   11  A    between atoms: C_10  and  C_16
REMARK   12  A    between atoms: C_11  and  C_17
REMARK   13  A    between atoms: C_14  and  C_19
REMARK   14  A    between atoms: C_18  and  C_21
REMARK   15  A    between atoms: C_22  and  C_25
REMARK                            x       y       z     vdW  Elec       q    Type
REMARK                         _______ _______ _______ _____ _____    ______ ____
ROOT
ATOM      6  C   UNL     1     -13.168   8.834  20.411  0.00  0.00    +0.000 C 
ATOM      7  C   UNL     1     -11.894   8.044  20.028  0.00  0.00    +0.029 C 
ATOM      8  C   UNL     1     -14.365   7.886  20.559  0.00  0.00    +0.012 C 
ATOM      9  C   UNL     1     -14.130   6.760  21.588  0.00  0.00    +0.024 C 
ATOM     11  C   UNL     1     -12.719   6.194  21.541  0.00  0.00    -0.073 C 
ATOM     12  C   UNL     1     -11.737   6.777  20.828  0.00  0.00    -0.023 C 
ATOM     17  C   UNL     1     -12.430   4.976  22.375  0.00  0.00    +0.039 C 
ENDROOT
BRANCH   6  10
ATOM     10  C   UNL     1     -12.951   9.659  21.687  0.00  0.00    -0.013 C 
ATOM     15  C   UNL     1     -11.959  10.787  21.431  0.00  0.00    +0.007 C 
ATOM     16  C   UNL     1     -14.280  10.212  22.194  0.00  0.00    +0.007 C 
ENDBRANCH   6  10
BRANCH   7  13
ATOM     13  C   UNL     1     -11.868   7.704  18.535  0.00  0.00    +0.092 C 
BRANCH  13   2
ATOM      2  N   UNL     1     -11.125   8.682  17.804  0.00  0.00    -0.304 NA
ATOM     20  C   UNL     1     -10.084   9.309  18.639  0.00  0.00    +0.104 C 
BRANCH   2  18
ATOM     18  C   UNL     1     -10.496   8.104  16.602  0.00  0.00    +0.099 C 
BRANCH  18  21
ATOM     21  C   UNL     1     -10.759   8.995  15.392  0.00  0.00    +0.099 C 
BRANCH  21   4
ATOM      4  N   UNL     1     -11.373   8.219  14.319  0.00  0.00    -0.307 NA
ATOM     23  C   UNL     1     -10.391   7.328  13.701  0.00  0.00    +0.104 C 
ATOM     24  C   UNL     1     -11.959   9.107  13.313  0.00  0.00    +0.104 C 
ENDBRANCH  21   4
ENDBRANCH  18  21
ENDBRANCH   2  18
ENDBRANCH  13   2
ENDBRANCH   7  13
BRANCH   9  14
ATOM     14  C   UNL     1     -15.209   5.687  21.396  0.00  0.00    +0.105 C 
BRANCH  14  19
ATOM      1  O   UNL     1     -15.752   4.295  23.326  0.00  0.00    -0.420 OA
ATOM      3  N   UNL     1     -16.880   6.224  23.243  0.00  0.00    -0.112 NA
ATOM      5  N   UNL     1     -17.282   5.542  24.376  0.00  0.00    -0.107 NA
ATOM     19  C   UNL     1     -15.987   5.459  22.661  0.00  0.00    +0.218 A 
ATOM     22  C   UNL     1     -16.598   4.423  24.384  0.00  0.00    +0.248 A 
BRANCH  22  25
ATOM     25  C   UNL     1     -16.605   3.334  25.317  0.00  0.00    +0.038 A 
ATOM     26  C   UNL     1     -16.391   3.577  26.674  0.00  0.00    +0.013 A 
ATOM     27  C   UNL     1     -16.825   2.032  24.869  0.00  0.00    +0.013 A 
ATOM     28  C   UNL     1     -16.398   2.519  27.583  0.00  0.00    +0.001 A 
ATOM     29  C   UNL     1     -16.831   0.973  25.777  0.00  0.00    +0.001 A 
ATOM     30  C   UNL     1     -16.618   1.217  27.133  0.00  0.00    +0.000 A 
ENDBRANCH  22  25
ENDBRANCH  14  19
ENDBRANCH   9  14
TORSDOF 9
ENDMDL
MODEL 6
REMARK VINA RESULT:      -6.2     26.454     29.743
REMARK  Name = 38030349
REMARK  15 active torsions:
REMARK  status: ('A' for Active; 'I' for Inactive)
REMARK    1  A    between atoms: N_2  and  C_13
REMARK    2  A    between atoms: N_2  and  C_18
REMARK    3  A    between atoms: N_2  and  C_20
REMARK    4  A    between atoms: N_4  and  C_21
REMARK    5  A    between atoms: N_4  and  C_23
REMARK    6  A    between atoms: N_4  and  C_24
REMARK    7  A    between atoms: C_6  and  C_10
REMARK    8  A    between atoms: C_7  and  C_13
REMARK    9  A    between atoms: C_9  and  C_14
REMARK   10  A    between atoms: C_10  and  C_15
REMARK   11  A    between atoms: C_10  and  C_16
REMARK   12  A    between atoms: C_11  and  C_17
REMARK   13  A    between atoms: C_14  and  C_19
REMARK   14  A    between atoms: C_18  and  C_21
REMARK   15  A    between atoms: C_22  and  C_25
REMARK                            x       y       z     vdW  Elec       q    Type
REMARK                         _______ _______ _______ _____ _____    ______ ____
ROOT
ATOM      6  C   UNL     1      -5.899 -10.345  10.138  0.00  0.00    +0.000 C 
ATOM      7  C   UNL     1      -5.034  -9.960   8.915  0.00  0.00    +0.029 C 
ATOM      8  C   UNL     1      -5.066 -11.130  11.160  0.00  0.00    +0.012 C 
ATOM      9  C   UNL     1      -3.810 -10.371  11.638  0.00  0.00    +0.024 C 
ATOM     11  C   UNL     1      -3.113  -9.608  10.521  0.00  0.00    -0.073 C 
ATOM     12  C   UNL     1      -3.673  -9.446   9.307  0.00  0.00    -0.023 C 
ATOM     17  C   UNL     1      -1.784  -8.978  10.833  0.00  0.00    +0.039 C 
ENDROOT
BRANCH   6  10
ATOM     10  C   UNL     1      -6.543  -9.108  10.779  0.00  0.00    -0.013 C 
ATOM     15  C   UNL     1      -7.411  -8.372   9.764  0.00  0.00    +0.007 C 
ATOM     16  C   UNL     1      -7.364  -9.509  12.001  0.00  0.00    +0.007 C 
ENDBRANCH   6  10
BRANCH   7  13
ATOM     13  C   UNL     1      -4.869 -11.135   7.946  0.00  0.00    +0.092 C 
BRANCH  13   2
ATOM      2  N   UNL     1      -6.005 -11.247   7.086  0.00  0.00    -0.304 NA
ATOM     20  C   UNL     1      -6.110 -10.096   6.171  0.00  0.00    +0.104 C 
BRANCH   2  18
ATOM     18  C   UNL     1      -5.968 -12.491   6.295  0.00  0.00    +0.099 C 
BRANCH  18  21
ATOM     21  C   UNL     1      -5.344 -12.226   4.928  0.00  0.00    +0.099 C 
BRANCH  21   4
ATOM      4  N   UNL     1      -4.283 -13.192   4.663  0.00  0.00    -0.307 NA
ATOM     23  C   UNL     1      -4.448 -14.379   5.502  0.00  0.00    +0.104 C 
ATOM     24  C   UNL     1      -2.970 -12.587   4.890  0.00  0.00    +0.104 C 
ENDBRANCH  21   4
ENDBRANCH  18  21
ENDBRANCH   2  18
ENDBRANCH  13   2
ENDBRANCH   7  13
BRANCH   9  14
ATOM     14  C   UNL     1      -2.881 -11.360  12.353  0.00  0.00    +0.105 C 
BRANCH  14  19
ATOM      1  O   UNL     1      -3.875 -11.142  14.572  0.00  0.00    -0.420 OA
ATOM      3  N   UNL     1      -1.695 -10.646  14.492  0.00  0.00    -0.112 NA
ATOM      5  N   UNL     1      -2.123 -10.480  15.795  0.00  0.00    -0.107 NA
ATOM     19  C   UNL     1      -2.750 -11.032  13.813  0.00  0.00    +0.218 A 
ATOM     22  C   UNL     1      -3.400 -10.781  15.796  0.00  0.00    +0.248 A 
BRANCH  22  25
ATOM     25  C   UNL     1      -4.355 -10.788  16.865  0.00  0.00    +0.038 A 
ATOM     26  C   UNL     1      -5.553 -10.084  16.735  0.00  0.00    +0.013 A 
ATOM     27  C   UNL     1      -4.088 -11.499  18.035  0.00  0.00    +0.013 A 
ATOM     28  C   UNL     1      -6.483 -10.090  17.774  0.00  0.00    +0.001 A 
ATOM     29  C   UNL     1      -5.019 -11.505  19.075  0.00  0.00    +0.001 A 
ATOM     30  C   UNL     1      -6.215 -10.802  18.944  0.00  0.00    +0.000 A 
ENDBRANCH  22  25
ENDBRANCH  14  19
ENDBRANCH   9  14
TORSDOF 9
ENDMDL
MODEL 7
REMARK VINA RESULT:      -6.1     14.149     18.438
REMARK  Name = 38030349
REMARK  15 active torsions:
REMARK  status: ('A' for Active; 'I' for Inactive)
REMARK    1  A    between atoms: N_2  and  C_13
REMARK    2  A    between atoms: N_2  and  C_18
REMARK    3  A    between atoms: N_2  and  C_20
REMARK    4  A    between atoms: N_4  and  C_21
REMARK    5  A    between atoms: N_4  and  C_23
REMARK    6  A    between atoms: N_4  and  C_24
REMARK    7  A    between atoms: C_6  and  C_10
REMARK    8  A    between atoms: C_7  and  C_13
REMARK    9  A    between atoms: C_9  and  C_14
REMARK   10  A    between atoms: C_10  and  C_15
REMARK   11  A    between atoms: C_10  and  C_16
REMARK   12  A    between atoms: C_11  and  C_17
REMARK   13  A    between atoms: C_14  and  C_19
REMARK   14  A    between atoms: C_18  and  C_21
REMARK   15  A    between atoms: C_22  and  C_25
REMARK                            x       y       z     vdW  Elec       q    Type
REMARK                         _______ _______ _______ _____ _____    ______ ____
ROOT
ATOM      6  C   UNL     1      13.993   5.704   1.421  0.00  0.00    +0.000 C 
ATOM      7  C   UNL     1      13.460   6.936   0.653  0.00  0.00    +0.029 C 
ATOM      8  C   UNL     1      12.838   4.943   2.085  0.00  0.00    +0.012 C 
ATOM      9  C   UNL     1      11.747   4.495   1.089  0.00  0.00    +0.024 C 
ATOM     11  C   UNL     1      11.451   5.537   0.021  0.00  0.00    -0.073 C 
ATOM     12  C   UNL     1      12.222   6.627  -0.149  0.00  0.00    -0.023 C 
ATOM     17  C   UNL     1      10.285   5.282  -0.894  0.00  0.00    +0.039 C 
ENDROOT
BRANCH   6  10
ATOM     10  C   UNL     1      14.810   4.784   0.504  0.00  0.00    -0.013 C 
ATOM     15  C   UNL     1      15.998   5.536  -0.086  0.00  0.00    +0.007 C 
ATOM     16  C   UNL     1      15.277   3.550   1.269  0.00  0.00    +0.007 C 
ENDBRANCH   6  10
BRANCH   7  13
ATOM     13  C   UNL     1      13.170   8.108   1.595  0.00  0.00    +0.092 C 
BRANCH  13   2
ATOM      2  N   UNL     1      14.216   8.258   2.557  0.00  0.00    -0.304 NA
ATOM     20  C   UNL     1      15.260   9.185   2.085  0.00  0.00    +0.104 C 
BRANCH   2  18
ATOM     18  C   UNL     1      13.700   8.732   3.855  0.00  0.00    +0.099 C 
BRANCH  18  21
ATOM     21  C   UNL     1      13.308   7.544   4.730  0.00  0.00    +0.099 C 
BRANCH  21   4
ATOM      4  N   UNL     1      13.711   7.783   6.112  0.00  0.00    -0.307 NA
ATOM     23  C   UNL     1      15.164   7.676   6.250  0.00  0.00    +0.104 C 
ATOM     24  C   UNL     1      13.043   6.842   7.012  0.00  0.00    +0.104 C 
ENDBRANCH  21   4
ENDBRANCH  18  21
ENDBRANCH   2  18
ENDBRANCH  13   2
ENDBRANCH   7  13
BRANCH   9  14
ATOM     14  C   UNL     1      10.501   4.081   1.881  0.00  0.00    +0.105 C 
BRANCH  14  19
ATOM      1  O   UNL     1      10.104   4.621   4.228  0.00  0.00    -0.420 OA
ATOM      3  N   UNL     1       9.934   6.371   2.845  0.00  0.00    -0.112 NA
ATOM      5  N   UNL     1       9.687   6.816   4.130  0.00  0.00    -0.107 NA
ATOM     19  C   UNL     1      10.172   5.084   2.950  0.00  0.00    +0.218 A 
ATOM     22  C   UNL     1       9.797   5.763   4.904  0.00  0.00    +0.248 A 
BRANCH  22  25
ATOM     25  C   UNL     1       9.648   5.630   6.323  0.00  0.00    +0.038 A 
ATOM     26  C   UNL     1       9.925   4.411   6.943  0.00  0.00    +0.013 A 
ATOM     27  C   UNL     1       9.227   6.719   7.085  0.00  0.00    +0.013 A 
ATOM     28  C   UNL     1       9.781   4.280   8.324  0.00  0.00    +0.001 A 
ATOM     29  C   UNL     1       9.082   6.589   8.467  0.00  0.00    +0.001 A 
ATOM     30  C   UNL     1       9.359   5.370   9.086  0.00  0.00    +0.000 A 
ENDBRANCH  22  25
ENDBRANCH  14  19
ENDBRANCH   9  14
TORSDOF 9
ENDMDL
MODEL 8
REMARK VINA RESULT:      -6.0     26.410     29.799
REMARK  Name = 38030349
REMARK  15 active torsions:
REMARK  status: ('A' for Active; 'I' for Inactive)
REMARK    1  A    between atoms: N_2  and  C_13
REMARK    2  A    between atoms: N_2  and  C_18
REMARK    3  A    between atoms: N_2  and  C_20
REMARK    4  A    between atoms: N_4  and  C_21
REMARK    5  A    between atoms: N_4  and  C_23
REMARK    6  A    between atoms: N_4  and  C_24
REMARK    7  A    between atoms: C_6  and  C_10
REMARK    8  A    between atoms: C_7  and  C_13
REMARK    9  A    between atoms: C_9  and  C_14
REMARK   10  A    between atoms: C_10  and  C_15
REMARK   11  A    between atoms: C_10  and  C_16
REMARK   12  A    between atoms: C_11  and  C_17
REMARK   13  A    between atoms: C_14  and  C_19
REMARK   14  A    between atoms: C_18  and  C_21
REMARK   15  A    between atoms: C_22  and  C_25
REMARK                            x       y       z     vdW  Elec       q    Type
REMARK                         _______ _______ _______ _____ _____    ______ ____
ROOT
ATOM      6  C   UNL     1      -3.828 -10.562  15.370  0.00  0.00    +0.000 C 
ATOM      7  C   UNL     1      -4.877 -10.847  14.269  0.00  0.00    +0.029 C 
ATOM      8  C   UNL     1      -4.237 -11.233  16.689  0.00  0.00    +0.012 C 
ATOM      9  C   UNL     1      -4.447 -12.756  16.561  0.00  0.00    +0.024 C 
ATOM     11  C   UNL     1      -5.135 -13.157  15.265  0.00  0.00    -0.073 C 
ATOM     12  C   UNL     1      -5.328 -12.285  14.257  0.00  0.00    -0.023 C 
ATOM     17  C   UNL     1      -5.549 -14.595  15.113  0.00  0.00    +0.039 C 
ENDROOT
BRANCH   6  10
ATOM     10  C   UNL     1      -2.425 -11.006  14.934  0.00  0.00    -0.013 C 
ATOM     15  C   UNL     1      -2.123 -10.507  13.525  0.00  0.00    +0.007 C 
ATOM     16  C   UNL     1      -1.377 -10.502  15.922  0.00  0.00    +0.007 C 
ENDBRANCH   6  10
BRANCH   7  13
ATOM     13  C   UNL     1      -6.101  -9.936  14.405  0.00  0.00    +0.092 C 
BRANCH  13   2
ATOM      2  N   UNL     1      -6.867  -9.931  13.199  0.00  0.00    -0.304 NA
ATOM     20  C   UNL     1      -8.299  -9.703  13.465  0.00  0.00    +0.104 C 
BRANCH   2  18
ATOM     18  C   UNL     1      -6.383  -8.912  12.250  0.00  0.00    +0.099 C 
BRANCH  18  21
ATOM     21  C   UNL     1      -6.775  -9.293  10.825  0.00  0.00    +0.099 C 
BRANCH  21   4
ATOM      4  N   UNL     1      -5.603  -9.752  10.087  0.00  0.00    -0.307 NA
ATOM     23  C   UNL     1      -4.394  -9.090  10.578  0.00  0.00    +0.104 C 
ATOM     24  C   UNL     1      -5.770  -9.507   8.653  0.00  0.00    +0.104 C 
ENDBRANCH  21   4
ENDBRANCH  18  21
ENDBRANCH   2  18
ENDBRANCH  13   2
ENDBRANCH   7  13
BRANCH   9  14
ATOM     14  C   UNL     1      -5.188 -13.254  17.808  0.00  0.00    +0.105 C 
BRANCH  14  19
ATOM      1  O   UNL     1      -7.025 -11.648  17.753  0.00  0.00    -0.420 OA
ATOM      3  N   UNL     1      -5.804 -11.578  19.626  0.00  0.00    -0.112 NA
ATOM      5  N   UNL     1      -6.799 -10.625  19.729  0.00  0.00    -0.107 NA
ATOM     19  C   UNL     1      -5.974 -12.150  18.457  0.00  0.00    +0.218 A 
ATOM     22  C   UNL     1      -7.488 -10.701  18.615  0.00  0.00    +0.248 A 
BRANCH  22  25
ATOM     25  C   UNL     1      -8.630  -9.956  18.173  0.00  0.00    +0.038 A 
ATOM     26  C   UNL     1      -9.897 -10.261  18.670  0.00  0.00    +0.013 A 
ATOM     27  C   UNL     1      -8.475  -8.924  17.247  0.00  0.00    +0.013 A 
ATOM     28  C   UNL     1     -11.009  -9.537  18.241  0.00  0.00    +0.001 A 
ATOM     29  C   UNL     1      -9.587  -8.199  16.818  0.00  0.00    +0.001 A 
ATOM     30  C   UNL     1     -10.853  -8.505  17.315  0.00  0.00    +0.000 A 
ENDBRANCH  22  25
ENDBRANCH  14  19
ENDBRANCH   9  14
TORSDOF 9
ENDMDL
MODEL 9
REMARK VINA RESULT:      -6.0     12.342     14.556
REMARK  Name = 38030349
REMARK  15 active torsions:
REMARK  status: ('A' for Active; 'I' for Inactive)
REMARK    1  A    between atoms: N_2  and  C_13
REMARK    2  A    between atoms: N_2  and  C_18
REMARK    3  A    between atoms: N_2  and  C_20
REMARK    4  A    between atoms: N_4  and  C_21
REMARK    5  A    between atoms: N_4  and  C_23
REMARK    6  A    between atoms: N_4  and  C_24
REMARK    7  A    between atoms: C_6  and  C_10
REMARK    8  A    between atoms: C_7  and  C_13
REMARK    9  A    between atoms: C_9  and  C_14
REMARK   10  A    between atoms: C_10  and  C_15
REMARK   11  A    between atoms: C_10  and  C_16
REMARK   12  A    between atoms: C_11  and  C_17
REMARK   13  A    between atoms: C_14  and  C_19
REMARK   14  A    between atoms: C_18  and  C_21
REMARK   15  A    between atoms: C_22  and  C_25
REMARK                            x       y       z     vdW  Elec       q    Type
REMARK                         _______ _______ _______ _____ _____    ______ ____
ROOT
ATOM      6  C   UNL     1      16.500  -1.774  31.744  0.00  0.00    +0.000 C 
ATOM      7  C   UNL     1      17.354  -0.942  32.730  0.00  0.00    +0.029 C 
ATOM      8  C   UNL     1      17.186  -1.853  30.373  0.00  0.00    +0.012 C 
ATOM      9  C   UNL     1      18.613  -2.438  30.436  0.00  0.00    +0.024 C 
ATOM     11  C   UNL     1      19.399  -1.962  31.648  0.00  0.00    -0.073 C 
ATOM     12  C   UNL     1      18.820  -1.284  32.657  0.00  0.00    -0.023 C 
ATOM     17  C   UNL     1      20.857  -2.326  31.717  0.00  0.00    +0.039 C 
ENDROOT
BRANCH   6  10
ATOM     10  C   UNL     1      16.208  -3.174  32.301  0.00  0.00    -0.013 C 
ATOM     15  C   UNL     1      16.078  -3.127  33.819  0.00  0.00    +0.007 C 
ATOM     16  C   UNL     1      14.943  -3.744  31.667  0.00  0.00    +0.007 C 
ENDBRANCH   6  10
BRANCH   7  13
ATOM     13  C   UNL     1      17.176   0.562  32.503  0.00  0.00    +0.092 C 
BRANCH  13   2
ATOM      2  N   UNL     1      16.645   1.192  33.670  0.00  0.00    -0.304 NA
ATOM     20  C   UNL     1      17.689   1.427  34.684  0.00  0.00    +0.104 C 
BRANCH   2  18
ATOM     18  C   UNL     1      15.988   2.473  33.347  0.00  0.00    +0.099 C 
BRANCH  18  21
ATOM     21  C   UNL     1      16.419   2.949  31.963  0.00  0.00    +0.099 C 
BRANCH  21   4
ATOM      4  N   UNL     1      17.243   4.148  32.078  0.00  0.00    -0.307 NA
ATOM     23  C   UNL     1      17.034   4.794  33.374  0.00  0.00    +0.104 C 
ATOM     24  C   UNL     1      16.947   5.082  30.990  0.00  0.00    +0.104 C 
ENDBRANCH  21   4
ENDBRANCH  18  21
ENDBRANCH   2  18
ENDBRANCH  13   2
ENDBRANCH   7  13
BRANCH   9  14
ATOM     14  C   UNL     1      19.323  -2.140  29.109  0.00  0.00    +0.105 C 
BRANCH  14  19
ATOM      1  O   UNL     1      18.301  -2.096  26.893  0.00  0.00    -0.420 OA
ATOM      3  N   UNL     1      18.381  -4.128  27.824  0.00  0.00    -0.112 NA
ATOM      5  N   UNL     1      17.783  -4.249  26.584  0.00  0.00    -0.107 NA
ATOM     19  C   UNL     1      18.666  -2.854  27.963  0.00  0.00    +0.218 A 
ATOM     22  C   UNL     1      17.758  -3.039  26.076  0.00  0.00    +0.248 A 
BRANCH  22  25
ATOM     25  C   UNL     1      17.257  -2.567  24.819  0.00  0.00    +0.038 A 
ATOM     26  C   UNL     1      16.123  -3.153  24.256  0.00  0.00    +0.013 A 
ATOM     27  C   UNL     1      17.901  -1.521  24.159  0.00  0.00    +0.013 A 
ATOM     28  C   UNL     1      15.633  -2.693  23.033  0.00  0.00    +0.001 A 
ATOM     29  C   UNL     1      17.412  -1.061  22.936  0.00  0.00    +0.001 A 
ATOM     30  C   UNL     1      16.279  -1.647  22.373  0.00  0.00    +0.000 A 
ENDBRANCH  22  25
ENDBRANCH  14  19
ENDBRANCH   9  14
TORSDOF 9
ENDMDL
MODEL 10
REMARK VINA RESULT:      -5.8     26.383     29.435
REMARK  Name = 38030349
REMARK  15 active torsions:
REMARK  status: ('A' for Active; 'I' for Inactive)
REMARK    1  A    between atoms: N_2  and  C_13
REMARK    2  A    between atoms: N_2  and  C_18
REMARK    3  A    between atoms: N_2  and  C_20
REMARK    4  A    between atoms: N_4  and  C_21
REMARK    5  A    between atoms: N_4  and  C_23
REMARK    6  A    between atoms: N_4  and  C_24
REMARK    7  A    between atoms: C_6  and  C_10
REMARK    8  A    between atoms: C_7  and  C_13
REMARK    9  A    between atoms: C_9  and  C_14
REMARK   10  A    between atoms: C_10  and  C_15
REMARK   11  A    between atoms: C_10  and  C_16
REMARK   12  A    between atoms: C_11  and  C_17
REMARK   13  A    between atoms: C_14  and  C_19
REMARK   14  A    between atoms: C_18  and  C_21
REMARK   15  A    between atoms: C_22  and  C_25
REMARK                            x       y       z     vdW  Elec       q    Type
REMARK                         _______ _______ _______ _____ _____    ______ ____
ROOT
ATOM      6  C   UNL     1      -5.143 -12.039  15.575  0.00  0.00    +0.000 C 
ATOM      7  C   UNL     1      -4.773 -11.052  16.706  0.00  0.00    +0.029 C 
ATOM      8  C   UNL     1      -4.589 -11.547  14.230  0.00  0.00    +0.012 C 
ATOM      9  C   UNL     1      -3.062 -11.326  14.240  0.00  0.00    +0.024 C 
ATOM     11  C   UNL     1      -2.558 -10.709  15.536  0.00  0.00    -0.073 C 
ATOM     12  C   UNL     1      -3.343 -10.585  16.624  0.00  0.00    -0.023 C 
ATOM     17  C   UNL     1      -1.115 -10.287  15.590  0.00  0.00    +0.039 C 
ENDROOT
BRANCH   6  10
ATOM     10  C   UNL     1      -4.653 -13.460  15.890  0.00  0.00    -0.013 C 
ATOM     15  C   UNL     1      -5.174 -13.913  17.250  0.00  0.00    +0.007 C 
ATOM     16  C   UNL     1      -5.090 -14.427  14.794  0.00  0.00    +0.007 C 
ENDBRANCH   6  10
BRANCH   7  13
ATOM     13  C   UNL     1      -5.701  -9.833  16.719  0.00  0.00    +0.092 C 
BRANCH  13   2
ATOM      2  N   UNL     1      -7.013 -10.199  17.149  0.00  0.00    -0.304 NA
ATOM     20  C   UNL     1      -7.049 -10.502  18.592  0.00  0.00    +0.104 C 
BRANCH   2  18
ATOM     18  C   UNL     1      -7.998  -9.141  16.854  0.00  0.00    +0.099 C 
BRANCH  18  21
ATOM     21  C   UNL     1      -9.415  -9.675  17.045  0.00  0.00    +0.099 C 
BRANCH  21   4
ATOM      4  N   UNL     1     -10.218  -8.713  17.792  0.00  0.00    -0.307 NA
ATOM     23  C   UNL     1     -11.446  -9.339  18.283  0.00  0.00    +0.104 C 
ATOM     24  C   UNL     1     -10.537  -7.553  16.959  0.00  0.00    +0.104 C 
ENDBRANCH  21   4
ENDBRANCH  18  21
ENDBRANCH   2  18
ENDBRANCH  13   2
ENDBRANCH   7  13
BRANCH   9  14
ATOM     14  C   UNL     1      -2.677 -10.509  13.001  0.00  0.00    +0.105 C 
BRANCH  14  19
ATOM      1  O   UNL     1      -3.824 -10.403  10.850  0.00  0.00    -0.420 OA
ATOM      3  N   UNL     1      -2.990 -12.419  11.343  0.00  0.00    -0.112 NA
ATOM      5  N   UNL     1      -3.607 -12.502  10.110  0.00  0.00    -0.107 NA
ATOM     19  C   UNL     1      -3.142 -11.176  11.738  0.00  0.00    +0.218 A 
ATOM     22  C   UNL     1      -4.079 -11.304   9.861  0.00  0.00    +0.248 A 
BRANCH  22  25
ATOM     25  C   UNL     1      -4.808 -10.805   8.732  0.00  0.00    +0.038 A 
ATOM     26  C   UNL     1      -5.709  -9.752   8.893  0.00  0.00    +0.013 A 
ATOM     27  C   UNL     1      -4.616 -11.371   7.472  0.00  0.00    +0.013 A 
ATOM     28  C   UNL     1      -6.419  -9.266   7.794  0.00  0.00    +0.001 A 
ATOM     29  C   UNL     1      -5.325 -10.885   6.373  0.00  0.00    +0.001 A 
ATOM     30  C   UNL     1      -6.226  -9.833   6.535  0.00  0.00    +0.000 A 
ENDBRANCH  22  25
ENDBRANCH  14  19
ENDBRANCH   9  14
TORSDOF 9
ENDMDL
