REMARK  Name = 86769018
REMARK  2 active torsions:
REMARK  status: ('A' for Active; 'I' for Inactive)
REMARK    1  A    between atoms: N_3  and  C_8
REMARK    2  A    between atoms: N_5  and  C_17
REMARK                            x       y       z     vdW  Elec       q    Type
REMARK                         _______ _______ _______ _____ _____    ______ ____
ROOT
ATOM      2  O   UNL     1       4.026   1.531   0.339  0.00  0.00    -0.252 OA
ATOM      3  N   UNL     1      -0.847   0.256  -0.286  0.00  0.00    -0.296 NA
ATOM      4  N   UNL     1       1.940   0.634  -0.264  0.00  0.00    -0.278 N 
ATOM      5  N   UNL     1       3.647  -0.783   0.085  0.00  0.00    -0.287 N 
ATOM      6  C   UNL     1       1.411  -0.666  -0.618  0.00  0.00    +0.109 C 
ATOM      7  C   UNL     1       0.043  -0.879   0.031  0.00  0.00    +0.108 C 
ATOM      9  C   UNL     1      -0.281   1.525   0.215  0.00  0.00    +0.104 C 
ATOM     10  C   UNL     1       1.095   1.803  -0.395  0.00  0.00    +0.125 C 
ATOM     11  C   UNL     1       2.497  -1.637  -0.161  0.00  0.00    +0.132 C 
ATOM     14  C   UNL     1       3.297   0.582   0.082  0.00  0.00    +0.305 C 
ATOM     17  C   UNL     1       4.941  -1.324   0.438  0.00  0.00    +0.133 C 
ENDROOT
BRANCH   3   8
ATOM      1  O   UNL     1      -4.996  -0.368  -0.134  0.00  0.00    -0.380 OA
ATOM      8  C   UNL     1      -2.175   0.034   0.280  0.00  0.00    +0.061 C 
ATOM     12  C   UNL     1      -2.755  -1.306  -0.184  0.00  0.00    +0.047 C 
ATOM     13  C   UNL     1      -3.119   1.175  -0.110  0.00  0.00    +0.047 C 
ATOM     15  C   UNL     1      -4.190  -1.461   0.306  0.00  0.00    +0.161 C 
ATOM     16  C   UNL     1      -4.534   0.883   0.376  0.00  0.00    +0.161 C 
ENDBRANCH   3   8
TORSDOF 1
