MODEL 1
REMARK VINA RESULT:      -6.4      0.000      0.000
REMARK  Name = 45783445
REMARK  11 active torsions:
REMARK  status: ('A' for Active; 'I' for Inactive)
REMARK    1  A    between atoms: O_2  and  C_20
REMARK    2  A    between atoms: O_2  and  C_23
REMARK    3  A    between atoms: O_3  and  C_24
REMARK    4  A    between atoms: O_3  and  C_25
REMARK    5  A    between atoms: N_4  and  C_12
REMARK    6  A    between atoms: C_8  and  C_14
REMARK    7  A    between atoms: C_12  and  C_13
REMARK    8  A    between atoms: C_13  and  C_15
REMARK    9  A    between atoms: C_13  and  C_16
REMARK   10  A    between atoms: C_17  and  C_18
REMARK   11  A    between atoms: C_23  and  C_24
REMARK                            x       y       z     vdW  Elec       q    Type
REMARK                         _______ _______ _______ _____ _____    ______ ____
ROOT
ATOM      1  O   UNL     1      18.061   5.617  19.406  0.00  0.00    -0.336 OA
ATOM      5  N   UNL     1      16.790   7.122  20.471  0.00  0.00    -0.189 NA
ATOM      6  N   UNL     1      16.847   5.665  18.709  0.00  0.00    -0.054 NA
ATOM     14  C   UNL     1      17.943   6.504  20.427  0.00  0.00    +0.245 A 
ATOM     17  C   UNL     1      16.151   6.575  19.396  0.00  0.00    +0.221 A 
ENDROOT
BRANCH  17  18
ATOM      7  N   UNL     1      14.667   7.467  17.794  0.00  0.00    -0.252 NA
ATOM     18  C   UNL     1      14.816   6.958  19.038  0.00  0.00    +0.115 A 
ATOM     19  C   UNL     1      13.777   6.797  19.940  0.00  0.00    +0.077 A 
ATOM     20  C   UNL     1      12.502   7.185  19.541  0.00  0.00    +0.124 A 
ATOM     21  C   UNL     1      13.413   7.833  17.442  0.00  0.00    +0.115 A 
ATOM     22  C   UNL     1      12.309   7.713  18.269  0.00  0.00    +0.065 A 
BRANCH  20   2
ATOM      2  O   UNL     1      11.449   7.047  20.390  0.00  0.00    -0.490 OA
BRANCH   2  23
ATOM     23  C   UNL     1      10.795   8.243  20.815  0.00  0.00    +0.257 C 
BRANCH  23  24
ATOM     24  C   UNL     1      11.706   8.994  21.767  0.00  0.00    +0.200 C 
BRANCH  24   3
ATOM      3  O   UNL     1      11.185  10.302  21.974  0.00  0.00    -0.380 OA
ATOM     25  C   UNL     1      10.930  10.549  23.350  0.00  0.00    +0.194 C 
ENDBRANCH  24   3
ENDBRANCH  23  24
ENDBRANCH   2  23
ENDBRANCH  20   2
ENDBRANCH  17  18
BRANCH  14   8
ATOM      4  N   UNL     1      20.421   6.432  20.639  0.00  0.00    -0.291 NA
ATOM      8  C   UNL     1      19.141   6.642  21.344  0.00  0.00    +0.146 C 
ATOM      9  C   UNL     1      19.259   8.048  21.960  0.00  0.00    +0.030 C 
ATOM     10  C   UNL     1      21.419   7.237  21.346  0.00  0.00    +0.085 C 
ATOM     11  C   UNL     1      20.660   8.523  21.601  0.00  0.00    +0.017 C 
BRANCH   4  12
ATOM     12  C   UNL     1      20.808   5.030  20.554  0.00  0.00    +0.088 C 
BRANCH  12  13
ATOM     13  C   UNL     1      22.125   4.738  21.294  0.00  0.00    -0.003 C 
ATOM     15  C   UNL     1      21.936   3.544  22.233  0.00  0.00    +0.008 C 
ATOM     16  C   UNL     1      23.287   4.460  20.336  0.00  0.00    +0.008 C 
ENDBRANCH  12  13
ENDBRANCH   4  12
ENDBRANCH  14   8
TORSDOF 8
ENDMDL
MODEL 2
REMARK VINA RESULT:      -6.3      2.279      8.931
REMARK  Name = 45783445
REMARK  11 active torsions:
REMARK  status: ('A' for Active; 'I' for Inactive)
REMARK    1  A    between atoms: O_2  and  C_20
REMARK    2  A    between atoms: O_2  and  C_23
REMARK    3  A    between atoms: O_3  and  C_24
REMARK    4  A    between atoms: O_3  and  C_25
REMARK    5  A    between atoms: N_4  and  C_12
REMARK    6  A    between atoms: C_8  and  C_14
REMARK    7  A    between atoms: C_12  and  C_13
REMARK    8  A    between atoms: C_13  and  C_15
REMARK    9  A    between atoms: C_13  and  C_16
REMARK   10  A    between atoms: C_17  and  C_18
REMARK   11  A    between atoms: C_23  and  C_24
REMARK                            x       y       z     vdW  Elec       q    Type
REMARK                         _______ _______ _______ _____ _____    ______ ____
ROOT
ATOM      1  O   UNL     1      16.152   5.912  18.573  0.00  0.00    -0.336 OA
ATOM      5  N   UNL     1      16.386   7.209  20.383  0.00  0.00    -0.189 NA
ATOM      6  N   UNL     1      17.469   5.733  19.013  0.00  0.00    -0.054 NA
ATOM     14  C   UNL     1      15.585   6.796  19.435  0.00  0.00    +0.245 A 
ATOM     17  C   UNL     1      17.531   6.530  20.084  0.00  0.00    +0.221 A 
ENDROOT
BRANCH  17  18
ATOM      7  N   UNL     1      18.728   7.708  21.740  0.00  0.00    -0.252 NA
ATOM     18  C   UNL     1      18.720   6.671  20.873  0.00  0.00    +0.115 A 
ATOM     19  C   UNL     1      19.768   5.777  20.723  0.00  0.00    +0.077 A 
ATOM     20  C   UNL     1      20.897   5.960  21.514  0.00  0.00    +0.124 A 
ATOM     21  C   UNL     1      19.843   7.854  22.491  0.00  0.00    +0.115 A 
ATOM     22  C   UNL     1      20.943   7.016  22.417  0.00  0.00    +0.065 A 
BRANCH  20   2
ATOM      2  O   UNL     1      21.953   5.109  21.404  0.00  0.00    -0.490 OA
BRANCH   2  23
ATOM     23  C   UNL     1      21.689   3.718  21.586  0.00  0.00    +0.257 C 
BRANCH  23  24
ATOM     24  C   UNL     1      22.942   3.041  22.108  0.00  0.00    +0.200 C 
BRANCH  24   3
ATOM      3  O   UNL     1      23.811   2.766  21.016  0.00  0.00    -0.380 OA
ATOM     25  C   UNL     1      24.376   1.466  21.114  0.00  0.00    +0.194 C 
ENDBRANCH  24   3
ENDBRANCH  23  24
ENDBRANCH   2  23
ENDBRANCH  20   2
ENDBRANCH  17  18
BRANCH  14   8
ATOM      4  N   UNL     1      13.636   8.194  20.101  0.00  0.00    -0.291 NA
ATOM      8  C   UNL     1      14.138   7.161  19.172  0.00  0.00    +0.146 C 
ATOM      9  C   UNL     1      13.921   7.757  17.769  0.00  0.00    +0.030 C 
ATOM     10  C   UNL     1      12.605   8.936  19.376  0.00  0.00    +0.085 C 
ATOM     11  C   UNL     1      13.237   9.097  18.008  0.00  0.00    +0.017 C 
BRANCH   4  12
ATOM     12  C   UNL     1      13.138   7.645  21.356  0.00  0.00    +0.088 C 
BRANCH  12  13
ATOM     13  C   UNL     1      11.611   7.454  21.347  0.00  0.00    -0.003 C 
ATOM     15  C   UNL     1      11.276   5.967  21.481  0.00  0.00    +0.008 C 
ATOM     16  C   UNL     1      10.915   8.241  22.462  0.00  0.00    +0.008 C 
ENDBRANCH  12  13
ENDBRANCH   4  12
ENDBRANCH  14   8
TORSDOF 8
ENDMDL
MODEL 3
REMARK VINA RESULT:      -6.1      4.478      7.871
REMARK  Name = 45783445
REMARK  11 active torsions:
REMARK  status: ('A' for Active; 'I' for Inactive)
REMARK    1  A    between atoms: O_2  and  C_20
REMARK    2  A    between atoms: O_2  and  C_23
REMARK    3  A    between atoms: O_3  and  C_24
REMARK    4  A    between atoms: O_3  and  C_25
REMARK    5  A    between atoms: N_4  and  C_12
REMARK    6  A    between atoms: C_8  and  C_14
REMARK    7  A    between atoms: C_12  and  C_13
REMARK    8  A    between atoms: C_13  and  C_15
REMARK    9  A    between atoms: C_13  and  C_16
REMARK   10  A    between atoms: C_17  and  C_18
REMARK   11  A    between atoms: C_23  and  C_24
REMARK                            x       y       z     vdW  Elec       q    Type
REMARK                         _______ _______ _______ _____ _____    ______ ____
ROOT
ATOM      1  O   UNL     1      13.151   7.453  17.102  0.00  0.00    -0.336 OA
ATOM      5  N   UNL     1      13.151   9.602  17.731  0.00  0.00    -0.189 NA
ATOM      6  N   UNL     1      13.670   8.175  16.021  0.00  0.00    -0.054 NA
ATOM     14  C   UNL     1      12.871   8.368  18.066  0.00  0.00    +0.245 A 
ATOM     17  C   UNL     1      13.640   9.434  16.468  0.00  0.00    +0.221 A 
ENDROOT
BRANCH  17  18
ATOM      7  N   UNL     1      13.249  10.938  14.693  0.00  0.00    -0.252 NA
ATOM     18  C   UNL     1      14.087  10.545  15.679  0.00  0.00    +0.115 A 
ATOM     19  C   UNL     1      15.307  11.145  15.946  0.00  0.00    +0.077 A 
ATOM     20  C   UNL     1      15.692  12.218  15.149  0.00  0.00    +0.124 A 
ATOM     21  C   UNL     1      13.658  11.984  13.940  0.00  0.00    +0.115 A 
ATOM     22  C   UNL     1      14.858  12.651  14.125  0.00  0.00    +0.065 A 
BRANCH  20   2
ATOM      2  O   UNL     1      16.881  12.841  15.371  0.00  0.00    -0.490 OA
BRANCH   2  23
ATOM     23  C   UNL     1      17.841  12.807  14.315  0.00  0.00    +0.257 C 
BRANCH  23  24
ATOM     24  C   UNL     1      19.181  12.377  14.878  0.00  0.00    +0.200 C 
BRANCH  24   3
ATOM      3  O   UNL     1      19.392  11.002  14.578  0.00  0.00    -0.380 OA
ATOM     25  C   UNL     1      20.572  10.812  13.809  0.00  0.00    +0.194 C 
ENDBRANCH  24   3
ENDBRANCH  23  24
ENDBRANCH   2  23
ENDBRANCH  20   2
ENDBRANCH  17  18
BRANCH  14   8
ATOM      4  N   UNL     1      13.243   7.903  20.482  0.00  0.00    -0.291 NA
ATOM      8  C   UNL     1      12.289   7.832  19.358  0.00  0.00    +0.146 C 
ATOM      9  C   UNL     1      11.062   8.632  19.834  0.00  0.00    +0.030 C 
ATOM     10  C   UNL     1      12.440   8.056  21.696  0.00  0.00    +0.085 C 
ATOM     11  C   UNL     1      11.394   9.060  21.257  0.00  0.00    +0.017 C 
BRANCH   4  12
ATOM     12  C   UNL     1      14.134   6.752  20.555  0.00  0.00    +0.088 C 
BRANCH  12  13
ATOM     13  C   UNL     1      15.608   7.136  20.344  0.00  0.00    -0.003 C 
ATOM     15  C   UNL     1      16.163   6.402  19.120  0.00  0.00    +0.008 C 
ATOM     16  C   UNL     1      15.802   8.645  20.170  0.00  0.00    +0.008 C 
ENDBRANCH  12  13
ENDBRANCH   4  12
ENDBRANCH  14   8
TORSDOF 8
ENDMDL
MODEL 4
REMARK VINA RESULT:      -6.0     30.029     33.288
REMARK  Name = 45783445
REMARK  11 active torsions:
REMARK  status: ('A' for Active; 'I' for Inactive)
REMARK    1  A    between atoms: O_2  and  C_20
REMARK    2  A    between atoms: O_2  and  C_23
REMARK    3  A    between atoms: O_3  and  C_24
REMARK    4  A    between atoms: O_3  and  C_25
REMARK    5  A    between atoms: N_4  and  C_12
REMARK    6  A    between atoms: C_8  and  C_14
REMARK    7  A    between atoms: C_12  and  C_13
REMARK    8  A    between atoms: C_13  and  C_15
REMARK    9  A    between atoms: C_13  and  C_16
REMARK   10  A    between atoms: C_17  and  C_18
REMARK   11  A    between atoms: C_23  and  C_24
REMARK                            x       y       z     vdW  Elec       q    Type
REMARK                         _______ _______ _______ _____ _____    ______ ____
ROOT
ATOM      1  O   UNL     1     -16.454   2.796  23.150  0.00  0.00    -0.336 OA
ATOM      5  N   UNL     1     -16.351   4.155  24.927  0.00  0.00    -0.189 NA
ATOM      6  N   UNL     1     -16.468   1.965  24.277  0.00  0.00    -0.054 NA
ATOM     14  C   UNL     1     -16.384   4.068  23.622  0.00  0.00    +0.245 A 
ATOM     17  C   UNL     1     -16.405   2.839  25.286  0.00  0.00    +0.221 A 
ENDROOT
BRANCH  17  18
ATOM      7  N   UNL     1     -17.058   1.288  26.938  0.00  0.00    -0.252 NA
ATOM     18  C   UNL     1     -16.393   2.431  26.661  0.00  0.00    +0.115 A 
ATOM     19  C   UNL     1     -15.729   3.193  27.609  0.00  0.00    +0.077 A 
ATOM     20  C   UNL     1     -15.749   2.751  28.928  0.00  0.00    +0.124 A 
ATOM     21  C   UNL     1     -17.055   0.891  28.231  0.00  0.00    +0.115 A 
ATOM     22  C   UNL     1     -16.423   1.579  29.253  0.00  0.00    +0.065 A 
BRANCH  20   2
ATOM      2  O   UNL     1     -15.112   3.463  29.896  0.00  0.00    -0.490 OA
BRANCH   2  23
ATOM     23  C   UNL     1     -13.871   2.944  30.376  0.00  0.00    +0.257 C 
BRANCH  23  24
ATOM     24  C   UNL     1     -13.904   2.905  31.892  0.00  0.00    +0.200 C 
BRANCH  24   3
ATOM      3  O   UNL     1     -14.297   1.605  32.315  0.00  0.00    -0.380 OA
ATOM     25  C   UNL     1     -14.619   1.583  33.698  0.00  0.00    +0.194 C 
ENDBRANCH  24   3
ENDBRANCH  23  24
ENDBRANCH   2  23
ENDBRANCH  20   2
ENDBRANCH  17  18
BRANCH  14   8
ATOM      4  N   UNL     1     -15.274   4.993  21.595  0.00  0.00    -0.291 NA
ATOM      8  C   UNL     1     -16.355   5.172  22.585  0.00  0.00    +0.146 C 
ATOM      9  C   UNL     1     -17.647   5.235  21.749  0.00  0.00    +0.030 C 
ATOM     10  C   UNL     1     -15.745   5.609  20.354  0.00  0.00    +0.085 C 
ATOM     11  C   UNL     1     -17.186   5.145  20.300  0.00  0.00    +0.017 C 
BRANCH   4  12
ATOM     12  C   UNL     1     -13.998   5.543  22.031  0.00  0.00    +0.088 C 
BRANCH  12  13
ATOM     13  C   UNL     1     -13.569   6.763  21.197  0.00  0.00    -0.003 C 
ATOM     15  C   UNL     1     -13.899   8.050  21.957  0.00  0.00    +0.008 C 
ATOM     16  C   UNL     1     -12.078   6.740  20.848  0.00  0.00    +0.008 C 
ENDBRANCH  12  13
ENDBRANCH   4  12
ENDBRANCH  14   8
TORSDOF 8
ENDMDL
MODEL 5
REMARK VINA RESULT:      -5.9      2.348      7.908
REMARK  Name = 45783445
REMARK  11 active torsions:
REMARK  status: ('A' for Active; 'I' for Inactive)
REMARK    1  A    between atoms: O_2  and  C_20
REMARK    2  A    between atoms: O_2  and  C_23
REMARK    3  A    between atoms: O_3  and  C_24
REMARK    4  A    between atoms: O_3  and  C_25
REMARK    5  A    between atoms: N_4  and  C_12
REMARK    6  A    between atoms: C_8  and  C_14
REMARK    7  A    between atoms: C_12  and  C_13
REMARK    8  A    between atoms: C_13  and  C_15
REMARK    9  A    between atoms: C_13  and  C_16
REMARK   10  A    between atoms: C_17  and  C_18
REMARK   11  A    between atoms: C_23  and  C_24
REMARK                            x       y       z     vdW  Elec       q    Type
REMARK                         _______ _______ _______ _____ _____    ______ ____
ROOT
ATOM      1  O   UNL     1      16.161   5.940  18.437  0.00  0.00    -0.336 OA
ATOM      5  N   UNL     1      16.506   7.037  20.359  0.00  0.00    -0.189 NA
ATOM      6  N   UNL     1      17.459   5.611  18.846  0.00  0.00    -0.054 NA
ATOM     14  C   UNL     1      15.672   6.784  19.383  0.00  0.00    +0.245 A 
ATOM     17  C   UNL     1      17.589   6.295  19.987  0.00  0.00    +0.221 A 
ENDROOT
BRANCH  17  18
ATOM      7  N   UNL     1      19.748   5.412  20.344  0.00  0.00    -0.252 NA
ATOM     18  C   UNL     1      18.787   6.259  20.776  0.00  0.00    +0.115 A 
ATOM     19  C   UNL     1      18.906   7.060  21.900  0.00  0.00    +0.077 A 
ATOM     20  C   UNL     1      20.089   6.987  22.629  0.00  0.00    +0.124 A 
ATOM     21  C   UNL     1      20.883   5.368  21.078  0.00  0.00    +0.115 A 
ATOM     22  C   UNL     1      21.101   6.127  22.216  0.00  0.00    +0.065 A 
BRANCH  20   2
ATOM      2  O   UNL     1      20.255   7.753  23.740  0.00  0.00    -0.490 OA
BRANCH   2  23
ATOM     23  C   UNL     1      20.234   9.170  23.563  0.00  0.00    +0.257 C 
BRANCH  23  24
ATOM     24  C   UNL     1      21.588   9.624  23.051  0.00  0.00    +0.200 C 
BRANCH  24   3
ATOM      3  O   UNL     1      21.399  10.668  22.102  0.00  0.00    -0.380 OA
ATOM     25  C   UNL     1      20.985  10.156  20.843  0.00  0.00    +0.194 C 
ENDBRANCH  24   3
ENDBRANCH  23  24
ENDBRANCH   2  23
ENDBRANCH  20   2
ENDBRANCH  17  18
BRANCH  14   8
ATOM      4  N   UNL     1      13.861   8.294  20.179  0.00  0.00    -0.291 NA
ATOM      8  C   UNL     1      14.261   7.293  19.170  0.00  0.00    +0.146 C 
ATOM      9  C   UNL     1      14.086   8.007  17.817  0.00  0.00    +0.030 C 
ATOM     10  C   UNL     1      12.893   9.175  19.524  0.00  0.00    +0.085 C 
ATOM     11  C   UNL     1      13.526   9.380  18.163  0.00  0.00    +0.017 C 
BRANCH   4  12
ATOM     12  C   UNL     1      13.326   7.700  21.397  0.00  0.00    +0.088 C 
BRANCH  12  13
ATOM     13  C   UNL     1      11.794   7.560  21.359  0.00  0.00    -0.003 C 
ATOM     15  C   UNL     1      11.408   6.081  21.442  0.00  0.00    +0.008 C 
ATOM     16  C   UNL     1      11.106   8.336  22.485  0.00  0.00    +0.008 C 
ENDBRANCH  12  13
ENDBRANCH   4  12
ENDBRANCH  14   8
TORSDOF 8
ENDMDL
MODEL 6
REMARK VINA RESULT:      -5.9      4.917      8.381
REMARK  Name = 45783445
REMARK  11 active torsions:
REMARK  status: ('A' for Active; 'I' for Inactive)
REMARK    1  A    between atoms: O_2  and  C_20
REMARK    2  A    between atoms: O_2  and  C_23
REMARK    3  A    between atoms: O_3  and  C_24
REMARK    4  A    between atoms: O_3  and  C_25
REMARK    5  A    between atoms: N_4  and  C_12
REMARK    6  A    between atoms: C_8  and  C_14
REMARK    7  A    between atoms: C_12  and  C_13
REMARK    8  A    between atoms: C_13  and  C_15
REMARK    9  A    between atoms: C_13  and  C_16
REMARK   10  A    between atoms: C_17  and  C_18
REMARK   11  A    between atoms: C_23  and  C_24
REMARK                            x       y       z     vdW  Elec       q    Type
REMARK                         _______ _______ _______ _____ _____    ______ ____
ROOT
ATOM      1  O   UNL     1      13.885   7.956  16.741  0.00  0.00    -0.336 OA
ATOM      5  N   UNL     1      14.456  10.088  17.120  0.00  0.00    -0.189 NA
ATOM      6  N   UNL     1      13.914   8.580  15.488  0.00  0.00    -0.054 NA
ATOM     14  C   UNL     1      14.216   8.914  17.646  0.00  0.00    +0.245 A 
ATOM     17  C   UNL     1      14.259   9.834  15.793  0.00  0.00    +0.221 A 
ENDROOT
BRANCH  17  18
ATOM      7  N   UNL     1      13.264  11.342  14.277  0.00  0.00    -0.252 NA
ATOM     18  C   UNL     1      14.412  10.856  14.799  0.00  0.00    +0.115 A 
ATOM     19  C   UNL     1      15.677  11.286  14.429  0.00  0.00    +0.077 A 
ATOM     20  C   UNL     1      15.768  12.280  13.459  0.00  0.00    +0.124 A 
ATOM     21  C   UNL     1      13.393  12.307  13.337  0.00  0.00    +0.115 A 
ATOM     22  C   UNL     1      14.609  12.805  12.899  0.00  0.00    +0.065 A 
BRANCH  20   2
ATOM      2  O   UNL     1      16.986  12.736  13.062  0.00  0.00    -0.490 OA
BRANCH   2  23
ATOM     23  C   UNL     1      17.955  12.976  14.082  0.00  0.00    +0.257 C 
BRANCH  23  24
ATOM     24  C   UNL     1      19.290  12.406  13.641  0.00  0.00    +0.200 C 
BRANCH  24   3
ATOM      3  O   UNL     1      19.575  11.244  14.411  0.00  0.00    -0.380 OA
ATOM     25  C   UNL     1      20.625  10.481  13.832  0.00  0.00    +0.194 C 
ENDBRANCH  24   3
ENDBRANCH  23  24
ENDBRANCH   2  23
ENDBRANCH  20   2
ENDBRANCH  17  18
BRANCH  14   8
ATOM      4  N   UNL     1      13.927   7.058  19.278  0.00  0.00    -0.291 NA
ATOM      8  C   UNL     1      14.257   8.486  19.098  0.00  0.00    +0.146 C 
ATOM      9  C   UNL     1      15.653   8.648  19.727  0.00  0.00    +0.030 C 
ATOM     10  C   UNL     1      14.647   6.616  20.473  0.00  0.00    +0.085 C 
ATOM     11  C   UNL     1      15.998   7.275  20.287  0.00  0.00    +0.017 C 
BRANCH   4  12
ATOM     12  C   UNL     1      12.495   6.806  19.377  0.00  0.00    +0.088 C 
BRANCH  12  13
ATOM     13  C   UNL     1      11.921   7.208  20.746  0.00  0.00    -0.003 C 
ATOM     15  C   UNL     1      10.902   8.336  20.568  0.00  0.00    +0.008 C 
ATOM     16  C   UNL     1      11.264   6.032  21.475  0.00  0.00    +0.008 C 
ENDBRANCH  12  13
ENDBRANCH   4  12
ENDBRANCH  14   8
TORSDOF 8
ENDMDL
MODEL 7
REMARK VINA RESULT:      -5.9     26.767     28.863
REMARK  Name = 45783445
REMARK  11 active torsions:
REMARK  status: ('A' for Active; 'I' for Inactive)
REMARK    1  A    between atoms: O_2  and  C_20
REMARK    2  A    between atoms: O_2  and  C_23
REMARK    3  A    between atoms: O_3  and  C_24
REMARK    4  A    between atoms: O_3  and  C_25
REMARK    5  A    between atoms: N_4  and  C_12
REMARK    6  A    between atoms: C_8  and  C_14
REMARK    7  A    between atoms: C_12  and  C_13
REMARK    8  A    between atoms: C_13  and  C_15
REMARK    9  A    between atoms: C_13  and  C_16
REMARK   10  A    between atoms: C_17  and  C_18
REMARK   11  A    between atoms: C_23  and  C_24
REMARK                            x       y       z     vdW  Elec       q    Type
REMARK                         _______ _______ _______ _____ _____    ______ ____
ROOT
ATOM      1  O   UNL     1      -2.071 -10.605  14.396  0.00  0.00    -0.336 OA
ATOM      5  N   UNL     1      -4.298 -10.820  14.485  0.00  0.00    -0.189 NA
ATOM      6  N   UNL     1      -2.405 -10.635  15.756  0.00  0.00    -0.054 NA
ATOM     14  C   UNL     1      -3.242 -10.719  13.719  0.00  0.00    +0.245 A 
ATOM     17  C   UNL     1      -3.735 -10.764  15.727  0.00  0.00    +0.221 A 
ENDROOT
BRANCH  17  18
ATOM      7  N   UNL     1      -3.984 -11.531  17.944  0.00  0.00    -0.252 NA
ATOM     18  C   UNL     1      -4.529 -10.838  16.919  0.00  0.00    +0.115 A 
ATOM     19  C   UNL     1      -5.769 -10.222  16.971  0.00  0.00    +0.077 A 
ATOM     20  C   UNL     1      -6.498 -10.325  18.152  0.00  0.00    +0.124 A 
ATOM     21  C   UNL     1      -4.722 -11.610  19.075  0.00  0.00    +0.115 A 
ATOM     22  C   UNL     1      -5.971 -11.031  19.228  0.00  0.00    +0.065 A 
BRANCH  20   2
ATOM      2  O   UNL     1      -7.721  -9.738  18.254  0.00  0.00    -0.490 OA
BRANCH   2  23
ATOM     23  C   UNL     1      -8.227  -9.085  17.090  0.00  0.00    +0.257 C 
BRANCH  23  24
ATOM     24  C   UNL     1      -9.634  -8.593  17.371  0.00  0.00    +0.200 C 
BRANCH  24   3
ATOM      3  O   UNL     1     -10.299  -9.539  18.200  0.00  0.00    -0.380 OA
ATOM     25  C   UNL     1     -11.704  -9.329  18.206  0.00  0.00    +0.194 C 
ENDBRANCH  24   3
ENDBRANCH  23  24
ENDBRANCH   2  23
ENDBRANCH  20   2
ENDBRANCH  17  18
BRANCH  14   8
ATOM      4  N   UNL     1      -4.059  -9.728  11.587  0.00  0.00    -0.291 NA
ATOM      8  C   UNL     1      -3.151 -10.714  12.206  0.00  0.00    +0.146 C 
ATOM      9  C   UNL     1      -1.749 -10.331  11.697  0.00  0.00    +0.030 C 
ATOM     10  C   UNL     1      -3.425  -9.313  10.334  0.00  0.00    +0.085 C 
ATOM     11  C   UNL     1      -1.977  -9.159  10.752  0.00  0.00    +0.017 C 
BRANCH   4  12
ATOM     12  C   UNL     1      -5.407 -10.240  11.377  0.00  0.00    +0.088 C 
BRANCH  12  13
ATOM     13  C   UNL     1      -6.489  -9.199  11.709  0.00  0.00    -0.003 C 
ATOM     15  C   UNL     1      -7.389  -8.981  10.490  0.00  0.00    +0.008 C 
ATOM     16  C   UNL     1      -7.344  -9.605  12.913  0.00  0.00    +0.008 C 
ENDBRANCH  12  13
ENDBRANCH   4  12
ENDBRANCH  14   8
TORSDOF 8
ENDMDL
MODEL 8
REMARK VINA RESULT:      -5.8     26.140     29.085
REMARK  Name = 45783445
REMARK  11 active torsions:
REMARK  status: ('A' for Active; 'I' for Inactive)
REMARK    1  A    between atoms: O_2  and  C_20
REMARK    2  A    between atoms: O_2  and  C_23
REMARK    3  A    between atoms: O_3  and  C_24
REMARK    4  A    between atoms: O_3  and  C_25
REMARK    5  A    between atoms: N_4  and  C_12
REMARK    6  A    between atoms: C_8  and  C_14
REMARK    7  A    between atoms: C_12  and  C_13
REMARK    8  A    between atoms: C_13  and  C_15
REMARK    9  A    between atoms: C_13  and  C_16
REMARK   10  A    between atoms: C_17  and  C_18
REMARK   11  A    between atoms: C_23  and  C_24
REMARK                            x       y       z     vdW  Elec       q    Type
REMARK                         _______ _______ _______ _____ _____    ______ ____
ROOT
ATOM      1  O   UNL     1      -4.375 -12.107  17.447  0.00  0.00    -0.336 OA
ATOM      5  N   UNL     1      -5.431 -10.621  16.146  0.00  0.00    -0.189 NA
ATOM      6  N   UNL     1      -5.612 -11.863  18.058  0.00  0.00    -0.054 NA
ATOM     14  C   UNL     1      -4.350 -11.337  16.329  0.00  0.00    +0.245 A 
ATOM     17  C   UNL     1      -6.176 -10.978  17.232  0.00  0.00    +0.221 A 
ENDROOT
BRANCH  17  18
ATOM      7  N   UNL     1      -8.306 -11.183  18.225  0.00  0.00    -0.252 NA
ATOM     18  C   UNL     1      -7.481 -10.429  17.464  0.00  0.00    +0.115 A 
ATOM     19  C   UNL     1      -7.830  -9.203  16.922  0.00  0.00    +0.077 A 
ATOM     20  C   UNL     1      -9.108  -8.718  17.178  0.00  0.00    +0.124 A 
ATOM     21  C   UNL     1      -9.541 -10.678  18.452  0.00  0.00    +0.115 A 
ATOM     22  C   UNL     1      -9.986  -9.464  17.956  0.00  0.00    +0.065 A 
BRANCH  20   2
ATOM      2  O   UNL     1      -9.498  -7.518  16.669  0.00  0.00    -0.490 OA
BRANCH   2  23
ATOM     23  C   UNL     1     -10.877  -7.373  16.330  0.00  0.00    +0.257 C 
BRANCH  23  24
ATOM     24  C   UNL     1     -11.078  -6.042  15.631  0.00  0.00    +0.200 C 
BRANCH  24   3
ATOM      3  O   UNL     1     -12.471  -5.822  15.442  0.00  0.00    -0.380 OA
ATOM     25  C   UNL     1     -12.761  -5.450  14.101  0.00  0.00    +0.194 C 
ENDBRANCH  24   3
ENDBRANCH  23  24
ENDBRANCH   2  23
ENDBRANCH  20   2
ENDBRANCH  17  18
BRANCH  14   8
ATOM      4  N   UNL     1      -3.178 -10.578  14.268  0.00  0.00    -0.291 NA
ATOM      8  C   UNL     1      -3.099 -11.421  15.478  0.00  0.00    +0.146 C 
ATOM      9  C   UNL     1      -1.843 -10.928  16.219  0.00  0.00    +0.030 C 
ATOM     10  C   UNL     1      -1.805 -10.183  13.951  0.00  0.00    +0.085 C 
ATOM     11  C   UNL     1      -1.250  -9.851  15.320  0.00  0.00    +0.017 C 
BRANCH   4  12
ATOM     12  C   UNL     1      -3.832 -11.241  13.147  0.00  0.00    +0.088 C 
BRANCH  12  13
ATOM     13  C   UNL     1      -3.517 -10.566  11.802  0.00  0.00    -0.003 C 
ATOM     15  C   UNL     1      -3.401 -11.628  10.705  0.00  0.00    +0.008 C 
ATOM     16  C   UNL     1      -4.574  -9.530  11.404  0.00  0.00    +0.008 C 
ENDBRANCH  12  13
ENDBRANCH   4  12
ENDBRANCH  14   8
TORSDOF 8
ENDMDL
MODEL 9
REMARK VINA RESULT:      -5.8      4.567      7.098
REMARK  Name = 45783445
REMARK  11 active torsions:
REMARK  status: ('A' for Active; 'I' for Inactive)
REMARK    1  A    between atoms: O_2  and  C_20
REMARK    2  A    between atoms: O_2  and  C_23
REMARK    3  A    between atoms: O_3  and  C_24
REMARK    4  A    between atoms: O_3  and  C_25
REMARK    5  A    between atoms: N_4  and  C_12
REMARK    6  A    between atoms: C_8  and  C_14
REMARK    7  A    between atoms: C_12  and  C_13
REMARK    8  A    between atoms: C_13  and  C_15
REMARK    9  A    between atoms: C_13  and  C_16
REMARK   10  A    between atoms: C_17  and  C_18
REMARK   11  A    between atoms: C_23  and  C_24
REMARK                            x       y       z     vdW  Elec       q    Type
REMARK                         _______ _______ _______ _____ _____    ______ ____
ROOT
ATOM      1  O   UNL     1      14.202   9.486  14.831  0.00  0.00    -0.336 OA
ATOM      5  N   UNL     1      14.296  10.285  16.921  0.00  0.00    -0.189 NA
ATOM      6  N   UNL     1      13.916   8.406  15.675  0.00  0.00    -0.054 NA
ATOM     14  C   UNL     1      14.413  10.553  15.645  0.00  0.00    +0.245 A 
ATOM     17  C   UNL     1      13.990   8.956  16.890  0.00  0.00    +0.221 A 
ENDROOT
BRANCH  17  18
ATOM      7  N   UNL     1      14.846   7.568  18.595  0.00  0.00    -0.252 NA
ATOM     18  C   UNL     1      13.765   8.206  18.092  0.00  0.00    +0.115 A 
ATOM     19  C   UNL     1      12.504   8.166  18.665  0.00  0.00    +0.077 A 
ATOM     20  C   UNL     1      12.342   7.424  19.830  0.00  0.00    +0.124 A 
ATOM     21  C   UNL     1      14.649   6.856  19.728  0.00  0.00    +0.115 A 
ATOM     22  C   UNL     1      13.431   6.753  20.378  0.00  0.00    +0.065 A 
BRANCH  20   2
ATOM      2  O   UNL     1      11.124   7.354  20.432  0.00  0.00    -0.490 OA
BRANCH   2  23
ATOM     23  C   UNL     1      11.094   7.470  21.854  0.00  0.00    +0.257 C 
BRANCH  23  24
ATOM     24  C   UNL     1      10.511   8.820  22.228  0.00  0.00    +0.200 C 
BRANCH  24   3
ATOM      3  O   UNL     1      11.528   9.616  22.825  0.00  0.00    -0.380 OA
ATOM     25  C   UNL     1      10.984  10.767  23.455  0.00  0.00    +0.194 C 
ENDBRANCH  24   3
ENDBRANCH  23  24
ENDBRANCH   2  23
ENDBRANCH  20   2
ENDBRANCH  17  18
BRANCH  14   8
ATOM      4  N   UNL     1      16.052  11.834  14.280  0.00  0.00    -0.291 NA
ATOM      8  C   UNL     1      14.745  11.865  14.966  0.00  0.00    +0.146 C 
ATOM      9  C   UNL     1      13.734  12.237  13.865  0.00  0.00    +0.030 C 
ATOM     10  C   UNL     1      15.952  12.767  13.157  0.00  0.00    +0.085 C 
ATOM     11  C   UNL     1      14.572  12.455  12.613  0.00  0.00    +0.017 C 
BRANCH   4  12
ATOM     12  C   UNL     1      17.170  12.153  15.159  0.00  0.00    +0.088 C 
BRANCH  12  13
ATOM     13  C   UNL     1      16.840  13.292  16.139  0.00  0.00    -0.003 C 
ATOM     15  C   UNL     1      17.150  12.847  17.571  0.00  0.00    +0.008 C 
ATOM     16  C   UNL     1      17.608  14.579  15.823  0.00  0.00    +0.008 C 
ENDBRANCH  12  13
ENDBRANCH   4  12
ENDBRANCH  14   8
TORSDOF 8
ENDMDL
MODEL 10
REMARK VINA RESULT:      -5.7     26.085     29.330
REMARK  Name = 45783445
REMARK  11 active torsions:
REMARK  status: ('A' for Active; 'I' for Inactive)
REMARK    1  A    between atoms: O_2  and  C_20
REMARK    2  A    between atoms: O_2  and  C_23
REMARK    3  A    between atoms: O_3  and  C_24
REMARK    4  A    between atoms: O_3  and  C_25
REMARK    5  A    between atoms: N_4  and  C_12
REMARK    6  A    between atoms: C_8  and  C_14
REMARK    7  A    between atoms: C_12  and  C_13
REMARK    8  A    between atoms: C_13  and  C_15
REMARK    9  A    between atoms: C_13  and  C_16
REMARK   10  A    between atoms: C_17  and  C_18
REMARK   11  A    between atoms: C_23  and  C_24
REMARK                            x       y       z     vdW  Elec       q    Type
REMARK                         _______ _______ _______ _____ _____    ______ ____
ROOT
ATOM      1  O   UNL     1      -3.158 -10.107  10.203  0.00  0.00    -0.336 OA
ATOM      5  N   UNL     1      -4.553 -10.621  11.878  0.00  0.00    -0.189 NA
ATOM      6  N   UNL     1      -2.385 -10.100  11.370  0.00  0.00    -0.054 NA
ATOM     14  C   UNL     1      -4.422 -10.422  10.591  0.00  0.00    +0.245 A 
ATOM     17  C   UNL     1      -3.278 -10.413  12.314  0.00  0.00    +0.221 A 
ENDROOT
BRANCH  17  18
ATOM      7  N   UNL     1      -1.664 -10.161  14.017  0.00  0.00    -0.252 NA
ATOM     18  C   UNL     1      -2.928 -10.524  13.701  0.00  0.00    +0.115 A 
ATOM     19  C   UNL     1      -3.858 -10.978  14.622  0.00  0.00    +0.077 A 
ATOM     20  C   UNL     1      -3.466 -11.066  15.953  0.00  0.00    +0.124 A 
ATOM     21  C   UNL     1      -1.320 -10.261  15.321  0.00  0.00    +0.115 A 
ATOM     22  C   UNL     1      -2.174 -10.702  16.317  0.00  0.00    +0.065 A 
BRANCH  20   2
ATOM      2  O   UNL     1      -4.342 -11.506  16.896  0.00  0.00    -0.490 OA
BRANCH   2  23
ATOM     23  C   UNL     1      -4.996 -10.515  17.689  0.00  0.00    +0.257 C 
BRANCH  23  24
ATOM     24  C   UNL     1      -6.489 -10.581  17.431  0.00  0.00    +0.200 C 
BRANCH  24   3
ATOM      3  O   UNL     1      -6.919  -9.343  16.876  0.00  0.00    -0.380 OA
ATOM     25  C   UNL     1      -8.272  -9.066  17.208  0.00  0.00    +0.194 C 
ENDBRANCH  24   3
ENDBRANCH  23  24
ENDBRANCH   2  23
ENDBRANCH  20   2
ENDBRANCH  17  18
BRANCH  14   8
ATOM      4  N   UNL     1      -5.491  -9.281   8.655  0.00  0.00    -0.291 NA
ATOM      8  C   UNL     1      -5.466 -10.494   9.496  0.00  0.00    +0.146 C 
ATOM      9  C   UNL     1      -5.214 -11.650   8.510  0.00  0.00    +0.030 C 
ATOM     10  C   UNL     1      -5.943  -9.707   7.329  0.00  0.00    +0.085 C 
ATOM     11  C   UNL     1      -5.173 -10.997   7.135  0.00  0.00    +0.017 C 
BRANCH   4  12
ATOM     12  C   UNL     1      -6.324  -8.218   9.203  0.00  0.00    +0.088 C 
BRANCH  12  13
ATOM     13  C   UNL     1      -7.700  -8.140   8.520  0.00  0.00    -0.003 C 
ATOM     15  C   UNL     1      -8.787  -8.604   9.494  0.00  0.00    +0.008 C 
ATOM     16  C   UNL     1      -8.027  -6.730   8.019  0.00  0.00    +0.008 C 
ENDBRANCH  12  13
ENDBRANCH   4  12
ENDBRANCH  14   8
TORSDOF 8
ENDMDL
