MODEL 1
REMARK VINA RESULT:      -7.0      0.000      0.000
REMARK  Name = 40780906
REMARK  13 active torsions:
REMARK  status: ('A' for Active; 'I' for Inactive)
REMARK    1  A    between atoms: O_4  and  C_24
REMARK    2  A    between atoms: N_6  and  C_13
REMARK    3  A    between atoms: N_7  and  C_14
REMARK    4  A    between atoms: N_10  and  C_33
REMARK    5  A    between atoms: N_10  and  C_34
REMARK    6  A    between atoms: N_10  and  C_35
REMARK    7  A    between atoms: C_17  and  C_18
REMARK    8  A    between atoms: C_18  and  C_19
REMARK    9  A    between atoms: C_19  and  C_21
REMARK   10  A    between atoms: C_19  and  C_22
REMARK   11  A    between atoms: C_19  and  C_23
REMARK   12  A    between atoms: C_21  and  C_24
REMARK   13  A    between atoms: C_25  and  C_28
REMARK                            x       y       z     vdW  Elec       q    Type
REMARK                         _______ _______ _______ _____ _____    ______ ____
ROOT
ATOM      1  O   UNL     1     -12.219  -7.904  14.384  0.00  0.00    -0.370 OA
ATOM      2  O   UNL     1     -10.971  -6.257  16.721  0.00  0.00    -0.370 OA
ATOM     11  C   UNL     1     -10.879  -6.161  15.291  0.00  0.00    +0.171 C 
ATOM     12  C   UNL     1     -10.867  -7.575  14.742  0.00  0.00    +0.171 C 
ATOM     13  C   UNL     1     -12.143  -5.557  14.722  0.00  0.00    +0.130 C 
ATOM     14  C   UNL     1     -10.413  -8.419  15.910  0.00  0.00    +0.130 C 
ATOM     15  C   UNL     1     -13.059  -6.763  14.612  0.00  0.00    +0.185 C 
ATOM     16  C   UNL     1     -10.930  -7.639  17.105  0.00  0.00    +0.185 C 
ENDROOT
BRANCH  14   7
ATOM      7  N   UNL     1      -8.968  -8.484  15.942  0.00  0.00    -0.306 N 
ATOM      8  N   UNL     1      -8.983 -10.122  17.589  0.00  0.00    -0.214 NA
ATOM      9  N   UNL     1      -6.916  -9.273  16.688  0.00  0.00    -0.223 NA
ATOM     20  C   UNL     1      -8.258  -9.329  16.777  0.00  0.00    +0.216 A 
ATOM     25  C   UNL     1      -8.260 -10.935  18.386  0.00  0.00    +0.076 A 
ATOM     26  C   UNL     1      -6.255 -10.112  17.514  0.00  0.00    +0.116 A 
ATOM     27  C   UNL     1      -6.880 -10.974  18.392  0.00  0.00    +0.048 A 
ATOM     37  H   UNL     1      -8.429  -7.925  15.291  0.00  0.00    +0.149 HD
BRANCH  25  28
ATOM     28  C   UNL     1      -9.033 -11.786  19.258  0.00  0.00    +0.001 A 
ATOM     29  C   UNL     1      -8.500 -12.994  19.707  0.00  0.00    +0.012 A 
ATOM     30  C   UNL     1     -10.315 -11.401  19.651  0.00  0.00    +0.012 A 
ATOM     31  C   UNL     1      -9.248 -13.816  20.549  0.00  0.00    +0.024 A 
ATOM     32  C   UNL     1     -11.063 -12.223  20.494  0.00  0.00    +0.024 A 
ATOM     33  C   UNL     1     -10.530 -13.431  20.943  0.00  0.00    +0.029 A 
BRANCH  33  10
ATOM     10  N   UNL     1     -11.286 -14.261  21.795  0.00  0.00    -0.336 N 
ATOM     34  C   UNL     1     -10.854 -15.618  22.071  0.00  0.00    +0.129 C 
ATOM     35  C   UNL     1     -12.501 -13.769  22.412  0.00  0.00    +0.129 C 
ENDBRANCH  33  10
ENDBRANCH  25  28
ENDBRANCH  14   7
BRANCH  13   6
ATOM      3  O   UNL     1     -13.732  -3.535  13.432  0.00  0.00    -0.276 OA
ATOM      6  N   UNL     1     -11.903  -4.963  13.429  0.00  0.00    -0.308 N 
ATOM     17  C   UNL     1     -12.727  -3.991  12.888  0.00  0.00    +0.214 C 
ATOM     36  H   UNL     1     -11.064  -5.237  12.926  0.00  0.00    +0.149 HD
BRANCH  17  18
ATOM     18  C   UNL     1     -12.270  -3.514  11.519  0.00  0.00    +0.102 C 
BRANCH  18  19
ATOM     19  C   UNL     1     -13.141  -4.009  10.335  0.00  0.00    -0.017 C 
ATOM     22  C   UNL     1     -13.701  -5.417  10.630  0.00  0.00    +0.012 C 
ATOM     23  C   UNL     1     -14.343  -3.052  10.198  0.00  0.00    +0.012 C 
BRANCH  19  21
ATOM     21  C   UNL     1     -12.359  -4.077   9.002  0.00  0.00    +0.127 C 
BRANCH  21  24
ATOM      5  O   UNL     1     -10.548  -5.651   9.326  0.00  0.00    -0.251 OA
ATOM     24  C   UNL     1     -10.912  -4.497   9.133  0.00  0.00    +0.305 C 
BRANCH  24   4
ATOM      4  O   UNL     1     -10.048  -3.458   9.025  0.00  0.00    -0.481 OA
ATOM     38  H   UNL     1      -9.437  -3.567   8.266  0.00  0.00    +0.295 HD
ENDBRANCH  24   4
ENDBRANCH  21  24
ENDBRANCH  19  21
ENDBRANCH  18  19
ENDBRANCH  17  18
ENDBRANCH  13   6
TORSDOF 9
ENDMDL
MODEL 2
REMARK VINA RESULT:      -6.9      8.301     12.989
REMARK  Name = 40780906
REMARK  13 active torsions:
REMARK  status: ('A' for Active; 'I' for Inactive)
REMARK    1  A    between atoms: O_4  and  C_24
REMARK    2  A    between atoms: N_6  and  C_13
REMARK    3  A    between atoms: N_7  and  C_14
REMARK    4  A    between atoms: N_10  and  C_33
REMARK    5  A    between atoms: N_10  and  C_34
REMARK    6  A    between atoms: N_10  and  C_35
REMARK    7  A    between atoms: C_17  and  C_18
REMARK    8  A    between atoms: C_18  and  C_19
REMARK    9  A    between atoms: C_19  and  C_21
REMARK   10  A    between atoms: C_19  and  C_22
REMARK   11  A    between atoms: C_19  and  C_23
REMARK   12  A    between atoms: C_21  and  C_24
REMARK   13  A    between atoms: C_25  and  C_28
REMARK                            x       y       z     vdW  Elec       q    Type
REMARK                         _______ _______ _______ _____ _____    ______ ____
ROOT
ATOM      1  O   UNL     1      -2.624 -12.873  12.662  0.00  0.00    -0.370 OA
ATOM      2  O   UNL     1      -1.801  -9.922  13.253  0.00  0.00    -0.370 OA
ATOM     11  C   UNL     1      -2.819 -10.786  13.785  0.00  0.00    +0.171 C 
ATOM     12  C   UNL     1      -3.342 -11.629  12.638  0.00  0.00    +0.171 C 
ATOM     13  C   UNL     1      -2.210 -11.793  14.734  0.00  0.00    +0.130 C 
ATOM     14  C   UNL     1      -2.979 -10.837  11.404  0.00  0.00    +0.130 C 
ATOM     15  C   UNL     1      -1.736 -12.884  13.790  0.00  0.00    +0.185 C 
ATOM     16  C   UNL     1      -1.716 -10.112  11.833  0.00  0.00    +0.185 C 
ENDROOT
BRANCH  14   7
ATOM      7  N   UNL     1      -4.025  -9.885  11.100  0.00  0.00    -0.306 N 
ATOM      8  N   UNL     1      -4.342 -10.766   8.975  0.00  0.00    -0.214 NA
ATOM      9  N   UNL     1      -5.650  -8.902   9.764  0.00  0.00    -0.223 NA
ATOM     20  C   UNL     1      -4.701  -9.849   9.893  0.00  0.00    +0.216 A 
ATOM     25  C   UNL     1      -5.023 -10.704   7.812  0.00  0.00    +0.076 A 
ATOM     26  C   UNL     1      -6.291  -8.898   8.577  0.00  0.00    +0.116 A 
ATOM     27  C   UNL     1      -6.018  -9.783   7.554  0.00  0.00    +0.048 A 
ATOM     37  H   UNL     1      -4.328  -9.233  11.814  0.00  0.00    +0.149 HD
BRANCH  25  28
ATOM     28  C   UNL     1      -4.642 -11.686   6.825  0.00  0.00    +0.001 A 
ATOM     29  C   UNL     1      -4.833 -11.422   5.469  0.00  0.00    +0.012 A 
ATOM     30  C   UNL     1      -4.082 -12.899   7.227  0.00  0.00    +0.012 A 
ATOM     31  C   UNL     1      -4.464 -12.370   4.515  0.00  0.00    +0.024 A 
ATOM     32  C   UNL     1      -3.712 -13.847   6.273  0.00  0.00    +0.024 A 
ATOM     33  C   UNL     1      -3.903 -13.583   4.917  0.00  0.00    +0.029 A 
BRANCH  33  10
ATOM     10  N   UNL     1      -3.530 -14.542   3.954  0.00  0.00    -0.336 N 
ATOM     34  C   UNL     1      -3.462 -14.185   2.550  0.00  0.00    +0.129 C 
ATOM     35  C   UNL     1      -3.202 -15.896   4.353  0.00  0.00    +0.129 C 
ENDBRANCH  33  10
ENDBRANCH  25  28
ENDBRANCH  14   7
BRANCH  13   6
ATOM      3  O   UNL     1      -3.569 -10.300  16.784  0.00  0.00    -0.276 OA
ATOM      6  N   UNL     1      -3.192 -12.297  15.662  0.00  0.00    -0.308 N 
ATOM     17  C   UNL     1      -3.795 -11.498  16.619  0.00  0.00    +0.214 C 
ATOM     36  H   UNL     1      -3.487 -13.265  15.569  0.00  0.00    +0.149 HD
BRANCH  17  18
ATOM     18  C   UNL     1      -4.800 -12.249  17.478  0.00  0.00    +0.102 C 
BRANCH  18  19
ATOM     19  C   UNL     1      -6.260 -11.741  17.364  0.00  0.00    -0.017 C 
ATOM     22  C   UNL     1      -6.608 -11.427  15.893  0.00  0.00    +0.012 C 
ATOM     23  C   UNL     1      -7.195 -12.877  17.827  0.00  0.00    +0.012 C 
BRANCH  19  21
ATOM     21  C   UNL     1      -6.520 -10.464  18.198  0.00  0.00    +0.127 C 
BRANCH  21  24
ATOM      5  O   UNL     1      -5.957 -11.045  20.480  0.00  0.00    -0.251 OA
ATOM     24  C   UNL     1      -6.805 -10.709  19.663  0.00  0.00    +0.305 C 
BRANCH  24   4
ATOM      4  O   UNL     1      -8.109 -10.525  19.984  0.00  0.00    -0.481 OA
ATOM     38  H   UNL     1      -8.656 -10.316  19.197  0.00  0.00    +0.295 HD
ENDBRANCH  24   4
ENDBRANCH  21  24
ENDBRANCH  19  21
ENDBRANCH  18  19
ENDBRANCH  17  18
ENDBRANCH  13   6
TORSDOF 9
ENDMDL
MODEL 3
REMARK VINA RESULT:      -6.8      5.118      8.999
REMARK  Name = 40780906
REMARK  13 active torsions:
REMARK  status: ('A' for Active; 'I' for Inactive)
REMARK    1  A    between atoms: O_4  and  C_24
REMARK    2  A    between atoms: N_6  and  C_13
REMARK    3  A    between atoms: N_7  and  C_14
REMARK    4  A    between atoms: N_10  and  C_33
REMARK    5  A    between atoms: N_10  and  C_34
REMARK    6  A    between atoms: N_10  and  C_35
REMARK    7  A    between atoms: C_17  and  C_18
REMARK    8  A    between atoms: C_18  and  C_19
REMARK    9  A    between atoms: C_19  and  C_21
REMARK   10  A    between atoms: C_19  and  C_22
REMARK   11  A    between atoms: C_19  and  C_23
REMARK   12  A    between atoms: C_21  and  C_24
REMARK   13  A    between atoms: C_25  and  C_28
REMARK                            x       y       z     vdW  Elec       q    Type
REMARK                         _______ _______ _______ _____ _____    ______ ____
ROOT
ATOM      1  O   UNL     1      -7.339 -11.857  15.668  0.00  0.00    -0.370 OA
ATOM      2  O   UNL     1      -6.296 -12.352  18.566  0.00  0.00    -0.370 OA
ATOM     11  C   UNL     1      -6.693 -11.170  17.851  0.00  0.00    +0.171 C 
ATOM     12  C   UNL     1      -6.230 -11.334  16.416  0.00  0.00    +0.171 C 
ATOM     13  C   UNL     1      -8.199 -11.100  17.746  0.00  0.00    +0.130 C 
ATOM     14  C   UNL     1      -5.124 -12.359  16.500  0.00  0.00    +0.130 C 
ATOM     15  C   UNL     1      -8.481 -11.967  16.531  0.00  0.00    +0.185 C 
ATOM     16  C   UNL     1      -5.541 -13.203  17.691  0.00  0.00    +0.185 C 
ENDROOT
BRANCH  14   7
ATOM      7  N   UNL     1      -3.861 -11.706  16.768  0.00  0.00    -0.306 N 
ATOM      8  N   UNL     1      -3.488 -11.290  14.513  0.00  0.00    -0.214 NA
ATOM      9  N   UNL     1      -1.904 -10.598  16.192  0.00  0.00    -0.223 NA
ATOM     20  C   UNL     1      -3.048 -11.176  15.781  0.00  0.00    +0.216 A 
ATOM     25  C   UNL     1      -2.674 -10.761  13.578  0.00  0.00    +0.076 A 
ATOM     26  C   UNL     1      -1.137 -10.090  15.204  0.00  0.00    +0.116 A 
ATOM     27  C   UNL     1      -1.474 -10.142  13.867  0.00  0.00    +0.048 A 
ATOM     37  H   UNL     1      -3.562 -11.574  17.727  0.00  0.00    +0.149 HD
BRANCH  25  28
ATOM     28  C   UNL     1      -3.141 -10.881  12.218  0.00  0.00    +0.001 A 
ATOM     29  C   UNL     1      -3.396  -9.736  11.463  0.00  0.00    +0.012 A 
ATOM     30  C   UNL     1      -3.341 -12.143  11.658  0.00  0.00    +0.012 A 
ATOM     31  C   UNL     1      -3.848  -9.853  10.149  0.00  0.00    +0.024 A 
ATOM     32  C   UNL     1      -3.792 -12.261  10.344  0.00  0.00    +0.024 A 
ATOM     33  C   UNL     1      -4.046 -11.115   9.589  0.00  0.00    +0.029 A 
BRANCH  33  10
ATOM     10  N   UNL     1      -4.503 -11.234   8.261  0.00  0.00    -0.336 N 
ATOM     34  C   UNL     1      -5.191 -10.131   7.619  0.00  0.00    +0.129 C 
ATOM     35  C   UNL     1      -4.286 -12.458   7.516  0.00  0.00    +0.129 C 
ENDBRANCH  33  10
ENDBRANCH  25  28
ENDBRANCH  14   7
BRANCH  13   6
ATOM      3  O   UNL     1     -10.804 -10.032  18.340  0.00  0.00    -0.276 OA
ATOM      6  N   UNL     1      -8.646  -9.744  17.536  0.00  0.00    -0.308 N 
ATOM     17  C   UNL     1      -9.925  -9.321  17.855  0.00  0.00    +0.214 C 
ATOM     36  H   UNL     1      -7.972  -9.067  17.189  0.00  0.00    +0.149 HD
BRANCH  17  18
ATOM     18  C   UNL     1     -10.162  -7.851  17.549  0.00  0.00    +0.102 C 
BRANCH  18  19
ATOM     19  C   UNL     1     -11.147  -7.580  16.383  0.00  0.00    -0.017 C 
ATOM     22  C   UNL     1     -10.601  -8.175  15.068  0.00  0.00    +0.012 C 
ATOM     23  C   UNL     1     -12.471  -8.304  16.704  0.00  0.00    +0.012 C 
BRANCH  19  21
ATOM     21  C   UNL     1     -11.406  -6.073  16.153  0.00  0.00    +0.127 C 
BRANCH  21  24
ATOM      5  O   UNL     1     -13.402  -6.114  14.783  0.00  0.00    -0.251 OA
ATOM     24  C   UNL     1     -12.242  -5.750  14.935  0.00  0.00    +0.305 C 
BRANCH  24   4
ATOM      4  O   UNL     1     -11.571  -5.017  14.013  0.00  0.00    -0.481 OA
ATOM     38  H   UNL     1     -12.179  -4.508  13.435  0.00  0.00    +0.295 HD
ENDBRANCH  24   4
ENDBRANCH  21  24
ENDBRANCH  19  21
ENDBRANCH  18  19
ENDBRANCH  17  18
ENDBRANCH  13   6
TORSDOF 9
ENDMDL
MODEL 4
REMARK VINA RESULT:      -6.8     27.078     31.093
REMARK  Name = 40780906
REMARK  13 active torsions:
REMARK  status: ('A' for Active; 'I' for Inactive)
REMARK    1  A    between atoms: O_4  and  C_24
REMARK    2  A    between atoms: N_6  and  C_13
REMARK    3  A    between atoms: N_7  and  C_14
REMARK    4  A    between atoms: N_10  and  C_33
REMARK    5  A    between atoms: N_10  and  C_34
REMARK    6  A    between atoms: N_10  and  C_35
REMARK    7  A    between atoms: C_17  and  C_18
REMARK    8  A    between atoms: C_18  and  C_19
REMARK    9  A    between atoms: C_19  and  C_21
REMARK   10  A    between atoms: C_19  and  C_22
REMARK   11  A    between atoms: C_19  and  C_23
REMARK   12  A    between atoms: C_21  and  C_24
REMARK   13  A    between atoms: C_25  and  C_28
REMARK                            x       y       z     vdW  Elec       q    Type
REMARK                         _______ _______ _______ _____ _____    ______ ____
ROOT
ATOM      1  O   UNL     1       9.079   2.854  -3.710  0.00  0.00    -0.370 OA
ATOM      2  O   UNL     1      10.625   5.278  -4.924  0.00  0.00    -0.370 OA
ATOM     11  C   UNL     1      10.457   4.789  -3.583  0.00  0.00    +0.171 C 
ATOM     12  C   UNL     1       9.037   4.270  -3.466  0.00  0.00    +0.171 C 
ATOM     13  C   UNL     1      11.316   3.565  -3.359  0.00  0.00    +0.130 C 
ATOM     14  C   UNL     1       8.295   4.972  -4.578  0.00  0.00    +0.130 C 
ATOM     15  C   UNL     1      10.443   2.450  -3.906  0.00  0.00    +0.185 C 
ATOM     16  C   UNL     1       9.376   5.176  -5.623  0.00  0.00    +0.185 C 
ENDROOT
BRANCH  14   7
ATOM      7  N   UNL     1       7.801   6.250  -4.113  0.00  0.00    -0.306 N 
ATOM      8  N   UNL     1       5.593   5.650  -4.512  0.00  0.00    -0.214 NA
ATOM      9  N   UNL     1       6.159   7.817  -3.622  0.00  0.00    -0.223 NA
ATOM     20  C   UNL     1       6.459   6.587  -4.082  0.00  0.00    +0.216 A 
ATOM     25  C   UNL     1       4.294   6.010  -4.465  0.00  0.00    +0.076 A 
ATOM     26  C   UNL     1       4.842   8.111  -3.602  0.00  0.00    +0.116 A 
ATOM     27  C   UNL     1       3.855   7.239  -4.014  0.00  0.00    +0.048 A 
ATOM     37  H   UNL     1       8.453   6.931  -3.740  0.00  0.00    +0.149 HD
BRANCH  25  28
ATOM     28  C   UNL     1       3.363   5.008  -4.925  0.00  0.00    +0.001 A 
ATOM     29  C   UNL     1       2.138   4.844  -4.277  0.00  0.00    +0.012 A 
ATOM     30  C   UNL     1       3.687   4.203  -6.016  0.00  0.00    +0.012 A 
ATOM     31  C   UNL     1       1.238   3.876  -4.722  0.00  0.00    +0.024 A 
ATOM     32  C   UNL     1       2.787   3.235  -6.462  0.00  0.00    +0.024 A 
ATOM     33  C   UNL     1       1.563   3.071  -5.814  0.00  0.00    +0.029 A 
BRANCH  33  10
ATOM     10  N   UNL     1       0.654   2.092  -6.264  0.00  0.00    -0.336 N 
ATOM     34  C   UNL     1       0.238   1.016  -5.385  0.00  0.00    +0.129 C 
ATOM     35  C   UNL     1       0.117   2.151  -7.609  0.00  0.00    +0.129 C 
ENDBRANCH  33  10
ENDBRANCH  25  28
ENDBRANCH  14   7
BRANCH  13   6
ATOM      3  O   UNL     1      13.855   3.880  -2.042  0.00  0.00    -0.276 OA
ATOM      6  N   UNL     1      11.593   3.371  -1.956  0.00  0.00    -0.308 N 
ATOM     17  C   UNL     1      12.853   3.547  -1.411  0.00  0.00    +0.214 C 
ATOM     36  H   UNL     1      10.814   3.147  -1.342  0.00  0.00    +0.149 HD
BRANCH  17  18
ATOM     18  C   UNL     1      12.898   3.291   0.087  0.00  0.00    +0.102 C 
BRANCH  18  19
ATOM     19  C   UNL     1      12.908   4.568   0.965  0.00  0.00    -0.017 C 
ATOM     22  C   UNL     1      12.234   5.739   0.219  0.00  0.00    +0.012 C 
ATOM     23  C   UNL     1      12.071   4.282   2.229  0.00  0.00    +0.012 C 
BRANCH  19  21
ATOM     21  C   UNL     1      14.335   5.014   1.361  0.00  0.00    +0.127 C 
BRANCH  21  24
ATOM      5  O   UNL     1      16.139   3.808   0.286  0.00  0.00    -0.251 OA
ATOM     24  C   UNL     1      15.392   3.938   1.249  0.00  0.00    +0.305 C 
BRANCH  24   4
ATOM      4  O   UNL     1      15.426   3.116   2.327  0.00  0.00    -0.481 OA
ATOM     38  H   UNL     1      15.203   3.590   3.156  0.00  0.00    +0.295 HD
ENDBRANCH  24   4
ENDBRANCH  21  24
ENDBRANCH  19  21
ENDBRANCH  18  19
ENDBRANCH  17  18
ENDBRANCH  13   6
TORSDOF 9
ENDMDL
MODEL 5
REMARK VINA RESULT:      -6.7     26.343     29.568
REMARK  Name = 40780906
REMARK  13 active torsions:
REMARK  status: ('A' for Active; 'I' for Inactive)
REMARK    1  A    between atoms: O_4  and  C_24
REMARK    2  A    between atoms: N_6  and  C_13
REMARK    3  A    between atoms: N_7  and  C_14
REMARK    4  A    between atoms: N_10  and  C_33
REMARK    5  A    between atoms: N_10  and  C_34
REMARK    6  A    between atoms: N_10  and  C_35
REMARK    7  A    between atoms: C_17  and  C_18
REMARK    8  A    between atoms: C_18  and  C_19
REMARK    9  A    between atoms: C_19  and  C_21
REMARK   10  A    between atoms: C_19  and  C_22
REMARK   11  A    between atoms: C_19  and  C_23
REMARK   12  A    between atoms: C_21  and  C_24
REMARK   13  A    between atoms: C_25  and  C_28
REMARK                            x       y       z     vdW  Elec       q    Type
REMARK                         _______ _______ _______ _____ _____    ______ ____
ROOT
ATOM      1  O   UNL     1       7.097   6.429  -3.204  0.00  0.00    -0.370 OA
ATOM      2  O   UNL     1       8.085   6.523  -6.162  0.00  0.00    -0.370 OA
ATOM     11  C   UNL     1       7.271   5.596  -5.425  0.00  0.00    +0.171 C 
ATOM     12  C   UNL     1       7.841   5.511  -4.022  0.00  0.00    +0.171 C 
ATOM     13  C   UNL     1       5.883   6.159  -5.225  0.00  0.00    +0.130 C 
ATOM     14  C   UNL     1       9.268   5.982  -4.174  0.00  0.00    +0.130 C 
ATOM     15  C   UNL     1       6.059   7.030  -3.994  0.00  0.00    +0.185 C 
ATOM     16  C   UNL     1       9.175   6.956  -5.335  0.00  0.00    +0.185 C 
ENDROOT
BRANCH  14   7
ATOM      7  N   UNL     1      10.123   4.869  -4.522  0.00  0.00    -0.306 N 
ATOM      8  N   UNL     1      10.736   4.523  -2.309  0.00  0.00    -0.214 NA
ATOM      9  N   UNL     1      11.602   3.135  -4.078  0.00  0.00    -0.223 NA
ATOM     20  C   UNL     1      10.853   4.145  -3.596  0.00  0.00    +0.216 A 
ATOM     25  C   UNL     1      11.458   3.795  -1.433  0.00  0.00    +0.076 A 
ATOM     26  C   UNL     1      12.298   2.449  -3.148  0.00  0.00    +0.116 A 
ATOM     27  C   UNL     1      12.265   2.736  -1.798  0.00  0.00    +0.048 A 
ATOM     37  H   UNL     1      10.164   4.555  -5.485  0.00  0.00    +0.149 HD
BRANCH  25  28
ATOM     28  C   UNL     1      11.335   4.197  -0.053  0.00  0.00    +0.001 A 
ATOM     29  C   UNL     1      12.205   3.677   0.906  0.00  0.00    +0.012 A 
ATOM     30  C   UNL     1      10.346   5.106   0.324  0.00  0.00    +0.012 A 
ATOM     31  C   UNL     1      12.086   4.066   2.239  0.00  0.00    +0.024 A 
ATOM     32  C   UNL     1      10.227   5.496   1.658  0.00  0.00    +0.024 A 
ATOM     33  C   UNL     1      11.097   4.976   2.616  0.00  0.00    +0.029 A 
BRANCH  33  10
ATOM     10  N   UNL     1      10.977   5.369   3.964  0.00  0.00    -0.336 N 
ATOM     34  C   UNL     1      10.126   4.626   4.873  0.00  0.00    +0.129 C 
ATOM     35  C   UNL     1      11.706   6.518   4.462  0.00  0.00    +0.129 C 
ENDBRANCH  33  10
ENDBRANCH  25  28
ENDBRANCH  14   7
BRANCH  13   6
ATOM      3  O   UNL     1       3.067   6.234  -5.814  0.00  0.00    -0.276 OA
ATOM      6  N   UNL     1       4.922   5.109  -4.989  0.00  0.00    -0.308 N 
ATOM     17  C   UNL     1       3.581   5.237  -5.308  0.00  0.00    +0.214 C 
ATOM     36  H   UNL     1       5.261   4.223  -4.623  0.00  0.00    +0.149 HD
BRANCH  17  18
ATOM     18  C   UNL     1       2.765   3.999  -4.972  0.00  0.00    +0.102 C 
BRANCH  18  19
ATOM     19  C   UNL     1       2.231   3.219  -6.201  0.00  0.00    -0.017 C 
ATOM     22  C   UNL     1       1.129   4.030  -6.916  0.00  0.00    +0.012 C 
ATOM     23  C   UNL     1       3.397   3.048  -7.197  0.00  0.00    +0.012 C 
BRANCH  19  21
ATOM     21  C   UNL     1       1.642   1.839  -5.828  0.00  0.00    +0.127 C 
BRANCH  21  24
ATOM      5  O   UNL     1       0.065   2.304  -4.051  0.00  0.00    -0.251 OA
ATOM     24  C   UNL     1       0.275   1.885  -5.183  0.00  0.00    +0.305 C 
BRANCH  24   4
ATOM      4  O   UNL     1      -0.705   1.402  -5.986  0.00  0.00    -0.481 OA
ATOM     38  H   UNL     1      -0.349   1.057  -6.833  0.00  0.00    +0.295 HD
ENDBRANCH  24   4
ENDBRANCH  21  24
ENDBRANCH  19  21
ENDBRANCH  18  19
ENDBRANCH  17  18
ENDBRANCH  13   6
TORSDOF 9
ENDMDL
MODEL 6
REMARK VINA RESULT:      -6.7     22.631     27.293
REMARK  Name = 40780906
REMARK  13 active torsions:
REMARK  status: ('A' for Active; 'I' for Inactive)
REMARK    1  A    between atoms: O_4  and  C_24
REMARK    2  A    between atoms: N_6  and  C_13
REMARK    3  A    between atoms: N_7  and  C_14
REMARK    4  A    between atoms: N_10  and  C_33
REMARK    5  A    between atoms: N_10  and  C_34
REMARK    6  A    between atoms: N_10  and  C_35
REMARK    7  A    between atoms: C_17  and  C_18
REMARK    8  A    between atoms: C_18  and  C_19
REMARK    9  A    between atoms: C_19  and  C_21
REMARK   10  A    between atoms: C_19  and  C_22
REMARK   11  A    between atoms: C_19  and  C_23
REMARK   12  A    between atoms: C_21  and  C_24
REMARK   13  A    between atoms: C_25  and  C_28
REMARK                            x       y       z     vdW  Elec       q    Type
REMARK                         _______ _______ _______ _____ _____    ______ ____
ROOT
ATOM      1  O   UNL     1       4.853  10.337   3.499  0.00  0.00    -0.370 OA
ATOM      2  O   UNL     1       7.134  12.400   4.026  0.00  0.00    -0.370 OA
ATOM     11  C   UNL     1       6.744  11.177   4.672  0.00  0.00    +0.171 C 
ATOM     12  C   UNL     1       5.229  11.116   4.647  0.00  0.00    +0.171 C 
ATOM     13  C   UNL     1       7.174   9.986   3.846  0.00  0.00    +0.130 C 
ATOM     14  C   UNL     1       4.804  12.554   4.467  0.00  0.00    +0.130 C 
ATOM     15  C   UNL     1       6.038   9.856   2.847  0.00  0.00    +0.185 C 
ATOM     16  C   UNL     1       5.957  13.145   3.677  0.00  0.00    +0.185 C 
ENDROOT
BRANCH  14   7
ATOM      7  N   UNL     1       4.696  13.203   5.755  0.00  0.00    -0.306 N 
ATOM      8  N   UNL     1       2.527  12.433   6.068  0.00  0.00    -0.214 NA
ATOM      9  N   UNL     1       3.619  13.802   7.724  0.00  0.00    -0.223 NA
ATOM     20  C   UNL     1       3.564  13.145   6.550  0.00  0.00    +0.216 A 
ATOM     25  C   UNL     1       1.442  12.395   6.869  0.00  0.00    +0.076 A 
ATOM     26  C   UNL     1       2.501  13.722   8.474  0.00  0.00    +0.116 A 
ATOM     27  C   UNL     1       1.371  13.025   8.095  0.00  0.00    +0.048 A 
ATOM     37  H   UNL     1       5.498  13.691   6.137  0.00  0.00    +0.149 HD
BRANCH  25  28
ATOM     28  C   UNL     1       0.329  11.633   6.357  0.00  0.00    +0.001 A 
ATOM     29  C   UNL     1      -0.481  10.907   7.230  0.00  0.00    +0.012 A 
ATOM     30  C   UNL     1       0.062  11.623   4.987  0.00  0.00    +0.012 A 
ATOM     31  C   UNL     1      -1.557  10.171   6.734  0.00  0.00    +0.024 A 
ATOM     32  C   UNL     1      -1.015  10.888   4.491  0.00  0.00    +0.024 A 
ATOM     33  C   UNL     1      -1.825  10.162   5.364  0.00  0.00    +0.029 A 
BRANCH  33  10
ATOM     10  N   UNL     1      -2.912   9.419   4.863  0.00  0.00    -0.336 N 
ATOM     34  C   UNL     1      -3.085   8.028   5.234  0.00  0.00    +0.129 C 
ATOM     35  C   UNL     1      -3.876  10.036   3.974  0.00  0.00    +0.129 C 
ENDBRANCH  33  10
ENDBRANCH  25  28
ENDBRANCH  14   7
BRANCH  13   6
ATOM      3  O   UNL     1       8.686   7.617   3.231  0.00  0.00    -0.276 OA
ATOM      6  N   UNL     1       7.293   8.801   4.660  0.00  0.00    -0.308 N 
ATOM     17  C   UNL     1       8.048   7.705   4.279  0.00  0.00    +0.214 C 
ATOM     36  H   UNL     1       6.844   8.800   5.572  0.00  0.00    +0.149 HD
BRANCH  17  18
ATOM     18  C   UNL     1       8.026   6.579   5.300  0.00  0.00    +0.102 C 
BRANCH  18  19
ATOM     19  C   UNL     1       9.215   6.581   6.295  0.00  0.00    -0.017 C 
ATOM     22  C   UNL     1      10.404   7.375   5.712  0.00  0.00    +0.012 C 
ATOM     23  C   UNL     1       8.759   7.308   7.577  0.00  0.00    +0.012 C 
BRANCH  19  21
ATOM     21  C   UNL     1       9.715   5.158   6.638  0.00  0.00    +0.127 C 
BRANCH  21  24
ATOM      5  O   UNL     1       9.360   4.428   8.919  0.00  0.00    -0.251 OA
ATOM     24  C   UNL     1      10.093   4.949   8.088  0.00  0.00    +0.305 C 
BRANCH  24   4
ATOM      4  O   UNL     1      11.334   5.408   8.381  0.00  0.00    -0.481 OA
ATOM     38  H   UNL     1      11.322   6.351   8.652  0.00  0.00    +0.295 HD
ENDBRANCH  24   4
ENDBRANCH  21  24
ENDBRANCH  19  21
ENDBRANCH  18  19
ENDBRANCH  17  18
ENDBRANCH  13   6
TORSDOF 9
ENDMDL
MODEL 7
REMARK VINA RESULT:      -6.6      8.038      9.829
REMARK  Name = 40780906
REMARK  13 active torsions:
REMARK  status: ('A' for Active; 'I' for Inactive)
REMARK    1  A    between atoms: O_4  and  C_24
REMARK    2  A    between atoms: N_6  and  C_13
REMARK    3  A    between atoms: N_7  and  C_14
REMARK    4  A    between atoms: N_10  and  C_33
REMARK    5  A    between atoms: N_10  and  C_34
REMARK    6  A    between atoms: N_10  and  C_35
REMARK    7  A    between atoms: C_17  and  C_18
REMARK    8  A    between atoms: C_18  and  C_19
REMARK    9  A    between atoms: C_19  and  C_21
REMARK   10  A    between atoms: C_19  and  C_22
REMARK   11  A    between atoms: C_19  and  C_23
REMARK   12  A    between atoms: C_21  and  C_24
REMARK   13  A    between atoms: C_25  and  C_28
REMARK                            x       y       z     vdW  Elec       q    Type
REMARK                         _______ _______ _______ _____ _____    ______ ____
ROOT
ATOM      1  O   UNL     1      -5.636 -12.006  10.530  0.00  0.00    -0.370 OA
ATOM      2  O   UNL     1      -4.196  -9.341   9.783  0.00  0.00    -0.370 OA
ATOM     11  C   UNL     1      -3.893 -10.724   9.542  0.00  0.00    +0.171 C 
ATOM     12  C   UNL     1      -4.312 -11.501  10.775  0.00  0.00    +0.171 C 
ATOM     13  C   UNL     1      -4.776 -11.272   8.444  0.00  0.00    +0.130 C 
ATOM     14  C   UNL     1      -4.342 -10.463  11.872  0.00  0.00    +0.130 C 
ATOM     15  C   UNL     1      -6.038 -11.649   9.199  0.00  0.00    +0.185 C 
ATOM     16  C   UNL     1      -4.698  -9.193  11.120  0.00  0.00    +0.185 C 
ENDROOT
BRANCH  14   7
ATOM      7  N   UNL     1      -3.031 -10.339  12.472  0.00  0.00    -0.306 N 
ATOM      8  N   UNL     1      -3.870 -10.690  14.609  0.00  0.00    -0.214 NA
ATOM      9  N   UNL     1      -1.520 -10.310  14.234  0.00  0.00    -0.223 NA
ATOM     20  C   UNL     1      -2.797 -10.450  13.831  0.00  0.00    +0.216 A 
ATOM     25  C   UNL     1      -3.605 -10.796  15.927  0.00  0.00    +0.076 A 
ATOM     26  C   UNL     1      -1.327 -10.428  15.565  0.00  0.00    +0.116 A 
ATOM     27  C   UNL     1      -2.341 -10.673  16.468  0.00  0.00    +0.048 A 
ATOM     37  H   UNL     1      -2.221 -10.213  11.876  0.00  0.00    +0.149 HD
BRANCH  25  28
ATOM     28  C   UNL     1      -4.753 -11.052  16.764  0.00  0.00    +0.001 A 
ATOM     29  C   UNL     1      -5.992 -11.323  16.185  0.00  0.00    +0.012 A 
ATOM     30  C   UNL     1      -4.623 -11.029  18.153  0.00  0.00    +0.012 A 
ATOM     31  C   UNL     1      -7.101 -11.571  16.993  0.00  0.00    +0.024 A 
ATOM     32  C   UNL     1      -5.731 -11.278  18.962  0.00  0.00    +0.024 A 
ATOM     33  C   UNL     1      -6.971 -11.549  18.383  0.00  0.00    +0.029 A 
BRANCH  33  10
ATOM     10  N   UNL     1      -8.091 -11.799  19.201  0.00  0.00    -0.336 N 
ATOM     34  C   UNL     1      -8.170 -13.017  19.984  0.00  0.00    +0.129 C 
ATOM     35  C   UNL     1      -9.175 -10.841  19.276  0.00  0.00    +0.129 C 
ENDBRANCH  33  10
ENDBRANCH  25  28
ENDBRANCH  14   7
BRANCH  13   6
ATOM      3  O   UNL     1      -5.610 -12.532   5.995  0.00  0.00    -0.276 OA
ATOM      6  N   UNL     1      -4.177 -12.426   7.818  0.00  0.00    -0.308 N 
ATOM     17  C   UNL     1      -4.651 -12.963   6.633  0.00  0.00    +0.214 C 
ATOM     36  H   UNL     1      -3.343 -12.821   8.243  0.00  0.00    +0.149 HD
BRANCH  17  18
ATOM     18  C   UNL     1      -3.856 -14.173   6.166  0.00  0.00    +0.102 C 
BRANCH  18  19
ATOM     19  C   UNL     1      -2.900 -13.901   4.976  0.00  0.00    -0.017 C 
ATOM     22  C   UNL     1      -1.429 -14.028   5.427  0.00  0.00    +0.012 C 
ATOM     23  C   UNL     1      -3.151 -14.988   3.909  0.00  0.00    +0.012 C 
BRANCH  19  21
ATOM     21  C   UNL     1      -3.091 -12.496   4.360  0.00  0.00    +0.127 C 
BRANCH  21  24
ATOM      5  O   UNL     1      -4.618 -12.507   2.481  0.00  0.00    -0.251 OA
ATOM     24  C   UNL     1      -3.465 -12.489   2.894  0.00  0.00    +0.305 C 
BRANCH  24   4
ATOM      4  O   UNL     1      -2.386 -12.469   2.074  0.00  0.00    -0.481 OA
ATOM     38  H   UNL     1      -2.631 -12.641   1.140  0.00  0.00    +0.295 HD
ENDBRANCH  24   4
ENDBRANCH  21  24
ENDBRANCH  19  21
ENDBRANCH  18  19
ENDBRANCH  17  18
ENDBRANCH  13   6
TORSDOF 9
ENDMDL
MODEL 8
REMARK VINA RESULT:      -6.5      8.151     13.316
REMARK  Name = 40780906
REMARK  13 active torsions:
REMARK  status: ('A' for Active; 'I' for Inactive)
REMARK    1  A    between atoms: O_4  and  C_24
REMARK    2  A    between atoms: N_6  and  C_13
REMARK    3  A    between atoms: N_7  and  C_14
REMARK    4  A    between atoms: N_10  and  C_33
REMARK    5  A    between atoms: N_10  and  C_34
REMARK    6  A    between atoms: N_10  and  C_35
REMARK    7  A    between atoms: C_17  and  C_18
REMARK    8  A    between atoms: C_18  and  C_19
REMARK    9  A    between atoms: C_19  and  C_21
REMARK   10  A    between atoms: C_19  and  C_22
REMARK   11  A    between atoms: C_19  and  C_23
REMARK   12  A    between atoms: C_21  and  C_24
REMARK   13  A    between atoms: C_25  and  C_28
REMARK                            x       y       z     vdW  Elec       q    Type
REMARK                         _______ _______ _______ _____ _____    ______ ____
ROOT
ATOM      1  O   UNL     1      -4.772 -12.570  12.547  0.00  0.00    -0.370 OA
ATOM      2  O   UNL     1      -3.292  -9.948  11.726  0.00  0.00    -0.370 OA
ATOM     11  C   UNL     1      -4.240 -10.261  12.760  0.00  0.00    +0.171 C 
ATOM     12  C   UNL     1      -5.228 -11.257  12.182  0.00  0.00    +0.171 C 
ATOM     13  C   UNL     1      -3.565 -11.020  13.879  0.00  0.00    +0.130 C 
ATOM     14  C   UNL     1      -5.117 -11.060  10.688  0.00  0.00    +0.130 C 
ATOM     15  C   UNL     1      -3.602 -12.451  13.371  0.00  0.00    +0.185 C 
ATOM     16  C   UNL     1      -3.675 -10.619  10.516  0.00  0.00    +0.185 C 
ENDROOT
BRANCH  14   7
ATOM      7  N   UNL     1      -6.017 -10.012  10.258  0.00  0.00    -0.306 N 
ATOM      8  N   UNL     1      -5.741 -10.562   8.019  0.00  0.00    -0.214 NA
ATOM      9  N   UNL     1      -7.181  -8.751   8.694  0.00  0.00    -0.223 NA
ATOM     20  C   UNL     1      -6.325  -9.763   8.933  0.00  0.00    +0.216 A 
ATOM     25  C   UNL     1      -6.067 -10.294   6.737  0.00  0.00    +0.076 A 
ATOM     26  C   UNL     1      -7.463  -8.539   7.392  0.00  0.00    +0.116 A 
ATOM     27  C   UNL     1      -6.931  -9.285   6.360  0.00  0.00    +0.048 A 
ATOM     37  H   UNL     1      -6.495  -9.450  10.953  0.00  0.00    +0.149 HD
BRANCH  25  28
ATOM     28  C   UNL     1      -5.443 -11.147   5.755  0.00  0.00    +0.001 A 
ATOM     29  C   UNL     1      -6.070 -11.376   4.530  0.00  0.00    +0.012 A 
ATOM     30  C   UNL     1      -4.212 -11.744   6.030  0.00  0.00    +0.012 A 
ATOM     31  C   UNL     1      -5.467 -12.201   3.581  0.00  0.00    +0.024 A 
ATOM     32  C   UNL     1      -3.608 -12.568   5.081  0.00  0.00    +0.024 A 
ATOM     33  C   UNL     1      -4.235 -12.797   3.856  0.00  0.00    +0.029 A 
BRANCH  33  10
ATOM     10  N   UNL     1      -3.625 -13.630   2.897  0.00  0.00    -0.336 N 
ATOM     34  C   UNL     1      -3.510 -15.057   3.131  0.00  0.00    +0.129 C 
ATOM     35  C   UNL     1      -3.110 -13.074   1.662  0.00  0.00    +0.129 C 
ENDBRANCH  33  10
ENDBRANCH  25  28
ENDBRANCH  14   7
BRANCH  13   6
ATOM      3  O   UNL     1      -2.457 -10.904  16.532  0.00  0.00    -0.276 OA
ATOM      6  N   UNL     1      -4.296 -10.886  15.116  0.00  0.00    -0.308 N 
ATOM     17  C   UNL     1      -3.672 -10.839  16.352  0.00  0.00    +0.214 C 
ATOM     36  H   UNL     1      -5.304 -10.770  15.066  0.00  0.00    +0.149 HD
BRANCH  17  18
ATOM     18  C   UNL     1      -4.647 -10.690  17.509  0.00  0.00    +0.102 C 
BRANCH  18  19
ATOM     19  C   UNL     1      -4.819 -11.959  18.381  0.00  0.00    -0.017 C 
ATOM     22  C   UNL     1      -3.649 -12.088  19.380  0.00  0.00    +0.012 C 
ATOM     23  C   UNL     1      -6.114 -11.797  19.204  0.00  0.00    +0.012 C 
BRANCH  19  21
ATOM     21  C   UNL     1      -4.878 -13.259  17.546  0.00  0.00    +0.127 C 
BRANCH  21  24
ATOM      5  O   UNL     1      -6.590 -12.904  15.870  0.00  0.00    -0.251 OA
ATOM     24  C   UNL     1      -6.201 -13.515  16.859  0.00  0.00    +0.305 C 
BRANCH  24   4
ATOM      4  O   UNL     1      -6.927 -14.491  17.457  0.00  0.00    -0.481 OA
ATOM     38  H   UNL     1      -7.310 -14.193  18.310  0.00  0.00    +0.295 HD
ENDBRANCH  24   4
ENDBRANCH  21  24
ENDBRANCH  19  21
ENDBRANCH  18  19
ENDBRANCH  17  18
ENDBRANCH  13   6
TORSDOF 9
ENDMDL
MODEL 9
REMARK VINA RESULT:      -6.4     29.001     33.003
REMARK  Name = 40780906
REMARK  13 active torsions:
REMARK  status: ('A' for Active; 'I' for Inactive)
REMARK    1  A    between atoms: O_4  and  C_24
REMARK    2  A    between atoms: N_6  and  C_13
REMARK    3  A    between atoms: N_7  and  C_14
REMARK    4  A    between atoms: N_10  and  C_33
REMARK    5  A    between atoms: N_10  and  C_34
REMARK    6  A    between atoms: N_10  and  C_35
REMARK    7  A    between atoms: C_17  and  C_18
REMARK    8  A    between atoms: C_18  and  C_19
REMARK    9  A    between atoms: C_19  and  C_21
REMARK   10  A    between atoms: C_19  and  C_22
REMARK   11  A    between atoms: C_19  and  C_23
REMARK   12  A    between atoms: C_21  and  C_24
REMARK   13  A    between atoms: C_25  and  C_28
REMARK                            x       y       z     vdW  Elec       q    Type
REMARK                         _______ _______ _______ _____ _____    ______ ____
ROOT
ATOM      1  O   UNL     1      14.856   9.125   3.862  0.00  0.00    -0.370 OA
ATOM      2  O   UNL     1      13.922  10.649   6.419  0.00  0.00    -0.370 OA
ATOM     11  C   UNL     1      14.836   9.563   6.200  0.00  0.00    +0.171 C 
ATOM     12  C   UNL     1      14.256   8.699   5.097  0.00  0.00    +0.171 C 
ATOM     13  C   UNL     1      16.134  10.078   5.620  0.00  0.00    +0.130 C 
ATOM     14  C   UNL     1      12.782   9.030   5.105  0.00  0.00    +0.130 C 
ATOM     15  C   UNL     1      15.820  10.152   4.137  0.00  0.00    +0.185 C 
ATOM     16  C   UNL     1      12.768  10.471   5.584  0.00  0.00    +0.185 C 
ENDROOT
BRANCH  14   7
ATOM      7  N   UNL     1      12.089   8.182   6.050  0.00  0.00    -0.306 N 
ATOM      8  N   UNL     1      11.501   6.659   4.398  0.00  0.00    -0.214 NA
ATOM      9  N   UNL     1      10.851   6.326   6.694  0.00  0.00    -0.223 NA
ATOM     20  C   UNL     1      11.452   7.006   5.698  0.00  0.00    +0.216 A 
ATOM     25  C   UNL     1      10.873   5.506   4.091  0.00  0.00    +0.076 A 
ATOM     26  C   UNL     1      10.242   5.183   6.317  0.00  0.00    +0.116 A 
ATOM     27  C   UNL     1      10.221   4.718   5.017  0.00  0.00    +0.048 A 
ATOM     37  H   UNL     1      12.102   8.419   7.035  0.00  0.00    +0.149 HD
BRANCH  25  28
ATOM     28  C   UNL     1      10.924   5.132   2.698  0.00  0.00    +0.001 A 
ATOM     29  C   UNL     1      10.052   5.724   1.784  0.00  0.00    +0.012 A 
ATOM     30  C   UNL     1      11.845   4.177   2.265  0.00  0.00    +0.012 A 
ATOM     31  C   UNL     1      10.101   5.362   0.438  0.00  0.00    +0.024 A 
ATOM     32  C   UNL     1      11.895   3.816   0.919  0.00  0.00    +0.024 A 
ATOM     33  C   UNL     1      11.023   4.408   0.005  0.00  0.00    +0.029 A 
BRANCH  33  10
ATOM     10  N   UNL     1      11.074   4.042  -1.356  0.00  0.00    -0.336 N 
ATOM     34  C   UNL     1      10.186   4.666  -2.317  0.00  0.00    +0.129 C 
ATOM     35  C   UNL     1      12.018   3.043  -1.813  0.00  0.00    +0.129 C 
ENDBRANCH  33  10
ENDBRANCH  25  28
ENDBRANCH  14   7
BRANCH  13   6
ATOM      3  O   UNL     1      18.732  10.740   6.664  0.00  0.00    -0.276 OA
ATOM      6  N   UNL     1      17.220   9.164   5.879  0.00  0.00    -0.308 N 
ATOM     17  C   UNL     1      18.441   9.578   6.385  0.00  0.00    +0.214 C 
ATOM     36  H   UNL     1      17.057   8.172   5.731  0.00  0.00    +0.149 HD
BRANCH  17  18
ATOM     18  C   UNL     1      19.427   8.437   6.579  0.00  0.00    +0.102 C 
BRANCH  18  19
ATOM     19  C   UNL     1      20.617   8.432   5.586  0.00  0.00    -0.017 C 
ATOM     22  C   UNL     1      21.792   9.260   6.150  0.00  0.00    +0.012 C 
ATOM     23  C   UNL     1      21.107   6.976   5.441  0.00  0.00    +0.012 C 
BRANCH  19  21
ATOM     21  C   UNL     1      20.248   9.011   4.201  0.00  0.00    +0.127 C 
BRANCH  21  24
ATOM      5  O   UNL     1      20.372   7.517   2.299  0.00  0.00    -0.251 OA
ATOM     24  C   UNL     1      19.712   8.000   3.211  0.00  0.00    +0.305 C 
BRANCH  24   4
ATOM      4  O   UNL     1      18.412   7.684   3.431  0.00  0.00    -0.481 OA
ATOM     38  H   UNL     1      18.003   8.264   4.108  0.00  0.00    +0.295 HD
ENDBRANCH  24   4
ENDBRANCH  21  24
ENDBRANCH  19  21
ENDBRANCH  18  19
ENDBRANCH  17  18
ENDBRANCH  13   6
TORSDOF 9
ENDMDL
MODEL 10
REMARK VINA RESULT:      -6.3     30.055     34.167
REMARK  Name = 40780906
REMARK  13 active torsions:
REMARK  status: ('A' for Active; 'I' for Inactive)
REMARK    1  A    between atoms: O_4  and  C_24
REMARK    2  A    between atoms: N_6  and  C_13
REMARK    3  A    between atoms: N_7  and  C_14
REMARK    4  A    between atoms: N_10  and  C_33
REMARK    5  A    between atoms: N_10  and  C_34
REMARK    6  A    between atoms: N_10  and  C_35
REMARK    7  A    between atoms: C_17  and  C_18
REMARK    8  A    between atoms: C_18  and  C_19
REMARK    9  A    between atoms: C_19  and  C_21
REMARK   10  A    between atoms: C_19  and  C_22
REMARK   11  A    between atoms: C_19  and  C_23
REMARK   12  A    between atoms: C_21  and  C_24
REMARK   13  A    between atoms: C_25  and  C_28
REMARK                            x       y       z     vdW  Elec       q    Type
REMARK                         _______ _______ _______ _____ _____    ______ ____
ROOT
ATOM      1  O   UNL     1      18.516  -9.053  -2.192  0.00  0.00    -0.370 OA
ATOM      2  O   UNL     1      21.079  -8.165  -0.650  0.00  0.00    -0.370 OA
ATOM     11  C   UNL     1      19.704  -8.321  -0.265  0.00  0.00    +0.171 C 
ATOM     12  C   UNL     1      18.852  -7.876  -1.439  0.00  0.00    +0.171 C 
ATOM     13  C   UNL     1      19.368  -9.786  -0.101  0.00  0.00    +0.130 C 
ATOM     14  C   UNL     1      19.769  -6.984  -2.242  0.00  0.00    +0.130 C 
ATOM     15  C   UNL     1      19.048 -10.208  -1.525  0.00  0.00    +0.185 C 
ATOM     16  C   UNL     1      21.139  -7.570  -1.956  0.00  0.00    +0.185 C 
ENDROOT
BRANCH  14   7
ATOM      7  N   UNL     1      19.693  -5.625  -1.751  0.00  0.00    -0.306 N 
ATOM      8  N   UNL     1      17.752  -5.198  -2.952  0.00  0.00    -0.214 NA
ATOM      9  N   UNL     1      18.761  -3.507  -1.562  0.00  0.00    -0.223 NA
ATOM     20  C   UNL     1      18.693  -4.738  -2.105  0.00  0.00    +0.216 A 
ATOM     25  C   UNL     1      16.790  -4.308  -3.273  0.00  0.00    +0.076 A 
ATOM     26  C   UNL     1      17.768  -2.669  -1.926  0.00  0.00    +0.116 A 
ATOM     27  C   UNL     1      16.746  -3.017  -2.786  0.00  0.00    +0.048 A 
ATOM     37  H   UNL     1      20.373  -5.303  -1.072  0.00  0.00    +0.149 HD
BRANCH  25  28
ATOM     28  C   UNL     1      15.781  -4.797  -4.181  0.00  0.00    +0.001 A 
ATOM     29  C   UNL     1      14.565  -5.266  -3.685  0.00  0.00    +0.012 A 
ATOM     30  C   UNL     1      16.022  -4.800  -5.555  0.00  0.00    +0.012 A 
ATOM     31  C   UNL     1      13.590  -5.739  -4.563  0.00  0.00    +0.024 A 
ATOM     32  C   UNL     1      15.046  -5.272  -6.434  0.00  0.00    +0.024 A 
ATOM     33  C   UNL     1      13.830  -5.742  -5.938  0.00  0.00    +0.029 A 
BRANCH  33  10
ATOM     10  N   UNL     1      12.844  -6.219  -6.825  0.00  0.00    -0.336 N 
ATOM     34  C   UNL     1      11.889  -5.306  -7.422  0.00  0.00    +0.129 C 
ATOM     35  C   UNL     1      12.777  -7.627  -7.160  0.00  0.00    +0.129 C 
ENDBRANCH  33  10
ENDBRANCH  25  28
ENDBRANCH  14   7
BRANCH  13   6
ATOM      3  O   UNL     1      19.368 -10.963   2.524  0.00  0.00    -0.276 OA
ATOM      6  N   UNL     1      18.228  -9.967   0.765  0.00  0.00    -0.308 N 
ATOM     17  C   UNL     1      18.327 -10.546   2.019  0.00  0.00    +0.214 C 
ATOM     36  H   UNL     1      17.330  -9.604   0.457  0.00  0.00    +0.149 HD
BRANCH  17  18
ATOM     18  C   UNL     1      16.995 -10.624   2.748  0.00  0.00    +0.102 C 
BRANCH  18  19
ATOM     19  C   UNL     1      16.262 -11.984   2.618  0.00  0.00    -0.017 C 
ATOM     22  C   UNL     1      15.416 -12.018   1.328  0.00  0.00    +0.012 C 
ATOM     23  C   UNL     1      17.332 -13.090   2.498  0.00  0.00    +0.012 C 
BRANCH  19  21
ATOM     21  C   UNL     1      15.324 -12.278   3.812  0.00  0.00    +0.127 C 
BRANCH  21  24
ATOM      5  O   UNL     1      16.733 -12.799   5.711  0.00  0.00    -0.251 OA
ATOM     24  C   UNL     1      15.914 -13.172   4.880  0.00  0.00    +0.305 C 
BRANCH  24   4
ATOM      4  O   UNL     1      15.449 -14.444   4.820  0.00  0.00    -0.481 OA
ATOM     38  H   UNL     1      15.952 -14.989   4.178  0.00  0.00    +0.295 HD
ENDBRANCH  24   4
ENDBRANCH  21  24
ENDBRANCH  19  21
ENDBRANCH  18  19
ENDBRANCH  17  18
ENDBRANCH  13   6
TORSDOF 9
ENDMDL
