MODEL 1
REMARK VINA RESULT:      -6.9      0.000      0.000
REMARK  Name = 75536067
REMARK  7 active torsions:
REMARK  status: ('A' for Active; 'I' for Inactive)
REMARK    1  A    between atoms: O_1  and  C_8
REMARK    2  A    between atoms: O_2  and  C_10
REMARK    3  A    between atoms: N_4  and  C_7
REMARK    4  A    between atoms: C_6  and  C_11
REMARK    5  A    between atoms: C_12  and  C_15
REMARK    6  A    between atoms: C_15  and  C_17
REMARK    7  A    between atoms: C_15  and  C_18
REMARK                            x       y       z     vdW  Elec       q    Type
REMARK                         _______ _______ _______ _____ _____    ______ ____
ROOT
ATOM      6  C   UNL     1      13.029   8.637  19.737  0.00  0.00    +0.046 C 
ATOM      7  C   UNL     1      13.031   7.118  20.021  0.00  0.00    +0.111 C 
ATOM      8  C   UNL     1      12.463   7.019  21.435  0.00  0.00    +0.164 C 
ATOM      9  C   UNL     1      11.963   9.242  20.687  0.00  0.00    +0.044 C 
ATOM     10  C   UNL     1      11.350   8.060  21.434  0.00  0.00    +0.145 C 
ENDROOT
BRANCH   6  11
ATOM      5  N   UNL     1      11.497   8.712  16.267  0.00  0.00    -0.263 NA
ATOM     11  C   UNL     1      12.820   8.967  18.274  0.00  0.00    -0.024 A 
ATOM     13  C   UNL     1      13.709   9.790  17.592  0.00  0.00    +0.007 A 
ATOM     14  C   UNL     1      11.739   8.457  17.573  0.00  0.00    +0.114 A 
ATOM     16  C   UNL     1      13.493  10.075  16.248  0.00  0.00    +0.020 A 
ATOM     19  C   UNL     1      12.383   9.516  15.638  0.00  0.00    +0.111 A 
ENDBRANCH   6  11
BRANCH   7   4
ATOM      3  O   UNL     1      15.334   7.863  21.577  0.00  0.00    -0.276 OA
ATOM      4  N   UNL     1      14.354   6.554  19.932  0.00  0.00    -0.309 N 
ATOM     12  C   UNL     1      15.411   6.978  20.728  0.00  0.00    +0.216 C 
ATOM     20  H   UNL     1      14.502   5.782  19.287  0.00  0.00    +0.149 HD
BRANCH  12  15
ATOM     15  C   UNL     1      16.707   6.223  20.435  0.00  0.00    +0.069 C 
ATOM     17  C   UNL     1      16.833   5.957  18.937  0.00  0.00    +0.017 C 
ATOM     18  C   UNL     1      17.921   6.998  20.944  0.00  0.00    +0.017 C 
ENDBRANCH  12  15
ENDBRANCH   7   4
BRANCH   8   1
ATOM      1  O   UNL     1      11.955   5.729  21.720  0.00  0.00    -0.387 OA
ATOM     21  H   UNL     1      12.336   5.447  22.570  0.00  0.00    +0.210 HD
ENDBRANCH   8   1
BRANCH  10   2
ATOM      2  O   UNL     1      10.218   7.596  20.704  0.00  0.00    -0.389 OA
ATOM     22  H   UNL     1       9.498   8.234  20.847  0.00  0.00    +0.210 HD
ENDBRANCH  10   2
TORSDOF 5
ENDMDL
MODEL 2
REMARK VINA RESULT:      -6.7      2.695      3.532
REMARK  Name = 75536067
REMARK  7 active torsions:
REMARK  status: ('A' for Active; 'I' for Inactive)
REMARK    1  A    between atoms: O_1  and  C_8
REMARK    2  A    between atoms: O_2  and  C_10
REMARK    3  A    between atoms: N_4  and  C_7
REMARK    4  A    between atoms: C_6  and  C_11
REMARK    5  A    between atoms: C_12  and  C_15
REMARK    6  A    between atoms: C_15  and  C_17
REMARK    7  A    between atoms: C_15  and  C_18
REMARK                            x       y       z     vdW  Elec       q    Type
REMARK                         _______ _______ _______ _____ _____    ______ ____
ROOT
ATOM      6  C   UNL     1      12.762   8.731  21.972  0.00  0.00    +0.046 C 
ATOM      7  C   UNL     1      13.125   7.927  20.703  0.00  0.00    +0.111 C 
ATOM      8  C   UNL     1      12.206   6.709  20.780  0.00  0.00    +0.164 C 
ATOM      9  C   UNL     1      11.328   8.285  22.359  0.00  0.00    +0.044 C 
ATOM     10  C   UNL     1      10.893   7.297  21.280  0.00  0.00    +0.145 C 
ENDROOT
BRANCH   6  11
ATOM      5  N   UNL     1      13.756  12.330  22.644  0.00  0.00    -0.263 NA
ATOM     11  C   UNL     1      12.924  10.226  21.793  0.00  0.00    -0.024 A 
ATOM     13  C   UNL     1      12.419  10.872  20.670  0.00  0.00    +0.007 A 
ATOM     14  C   UNL     1      13.579  10.994  22.743  0.00  0.00    +0.114 A 
ATOM     16  C   UNL     1      12.582  12.246  20.532  0.00  0.00    +0.020 A 
ATOM     19  C   UNL     1      13.251  12.923  21.539  0.00  0.00    +0.111 A 
ENDBRANCH   6  11
BRANCH   7   4
ATOM      3  O   UNL     1      14.710   7.320  18.380  0.00  0.00    -0.276 OA
ATOM      4  N   UNL     1      14.515   7.552  20.680  0.00  0.00    -0.309 N 
ATOM     12  C   UNL     1      15.203   7.276  19.504  0.00  0.00    +0.216 C 
ATOM     20  H   UNL     1      15.020   7.534  21.562  0.00  0.00    +0.149 HD
BRANCH  12  15
ATOM     15  C   UNL     1      16.663   6.899  19.753  0.00  0.00    +0.069 C 
ATOM     17  C   UNL     1      16.868   6.527  21.220  0.00  0.00    +0.017 C 
ATOM     18  C   UNL     1      17.097   5.750  18.845  0.00  0.00    +0.017 C 
ENDBRANCH  12  15
ENDBRANCH   7   4
BRANCH   8   1
ATOM      1  O   UNL     1      12.039   6.083  19.521  0.00  0.00    -0.387 OA
ATOM     21  H   UNL     1      11.345   6.569  19.043  0.00  0.00    +0.210 HD
ENDBRANCH   8   1
BRANCH  10   2
ATOM      2  O   UNL     1      10.228   8.015  20.245  0.00  0.00    -0.389 OA
ATOM     22  H   UNL     1      10.630   8.899  20.199  0.00  0.00    +0.210 HD
ENDBRANCH  10   2
TORSDOF 5
ENDMDL
MODEL 3
REMARK VINA RESULT:      -6.5      2.252      5.150
REMARK  Name = 75536067
REMARK  7 active torsions:
REMARK  status: ('A' for Active; 'I' for Inactive)
REMARK    1  A    between atoms: O_1  and  C_8
REMARK    2  A    between atoms: O_2  and  C_10
REMARK    3  A    between atoms: N_4  and  C_7
REMARK    4  A    between atoms: C_6  and  C_11
REMARK    5  A    between atoms: C_12  and  C_15
REMARK    6  A    between atoms: C_15  and  C_17
REMARK    7  A    between atoms: C_15  and  C_18
REMARK                            x       y       z     vdW  Elec       q    Type
REMARK                         _______ _______ _______ _____ _____    ______ ____
ROOT
ATOM      6  C   UNL     1      14.079   8.973  18.890  0.00  0.00    +0.046 C 
ATOM      7  C   UNL     1      12.817   8.833  19.771  0.00  0.00    +0.111 C 
ATOM      8  C   UNL     1      11.670   8.965  18.771  0.00  0.00    +0.164 C 
ATOM      9  C   UNL     1      13.638   8.586  17.454  0.00  0.00    +0.044 C 
ATOM     10  C   UNL     1      12.170   8.180  17.565  0.00  0.00    +0.145 C 
ENDROOT
BRANCH   6  11
ATOM      5  N   UNL     1      17.206   8.083  20.845  0.00  0.00    -0.263 NA
ATOM     11  C   UNL     1      15.260   8.184  19.415  0.00  0.00    -0.024 A 
ATOM     13  C   UNL     1      15.499   6.883  18.985  0.00  0.00    +0.007 A 
ATOM     14  C   UNL     1      16.135   8.733  20.338  0.00  0.00    +0.114 A 
ATOM     16  C   UNL     1      16.592   6.182  19.484  0.00  0.00    +0.020 A 
ATOM     19  C   UNL     1      17.407   6.822  20.403  0.00  0.00    +0.111 A 
ENDBRANCH   6  11
BRANCH   7   4
ATOM      3  O   UNL     1      11.587   8.596  22.361  0.00  0.00    -0.276 OA
ATOM      4  N   UNL     1      12.758   9.844  20.795  0.00  0.00    -0.309 N 
ATOM     12  C   UNL     1      12.139   9.640  22.023  0.00  0.00    +0.216 C 
ATOM     20  H   UNL     1      13.229  10.728  20.622  0.00  0.00    +0.149 HD
BRANCH  12  15
ATOM     15  C   UNL     1      12.211  10.869  22.928  0.00  0.00    +0.069 C 
ATOM     17  C   UNL     1      12.374  12.133  22.088  0.00  0.00    +0.017 C 
ATOM     18  C   UNL     1      10.971  10.972  23.813  0.00  0.00    +0.017 C 
ENDBRANCH  12  15
ENDBRANCH   7   4
BRANCH   8   1
ATOM      1  O   UNL     1      10.461   8.422  19.268  0.00  0.00    -0.387 OA
ATOM     21  H   UNL     1       9.790   8.517  18.571  0.00  0.00    +0.210 HD
ENDBRANCH   8   1
BRANCH  10   2
ATOM      2  O   UNL     1      12.100   6.778  17.803  0.00  0.00    -0.389 OA
ATOM     22  H   UNL     1      11.210   6.482  17.548  0.00  0.00    +0.210 HD
ENDBRANCH  10   2
TORSDOF 5
ENDMDL
MODEL 4
REMARK VINA RESULT:      -6.3      2.129      5.068
REMARK  Name = 75536067
REMARK  7 active torsions:
REMARK  status: ('A' for Active; 'I' for Inactive)
REMARK    1  A    between atoms: O_1  and  C_8
REMARK    2  A    between atoms: O_2  and  C_10
REMARK    3  A    between atoms: N_4  and  C_7
REMARK    4  A    between atoms: C_6  and  C_11
REMARK    5  A    between atoms: C_12  and  C_15
REMARK    6  A    between atoms: C_15  and  C_17
REMARK    7  A    between atoms: C_15  and  C_18
REMARK                            x       y       z     vdW  Elec       q    Type
REMARK                         _______ _______ _______ _____ _____    ______ ____
ROOT
ATOM      6  C   UNL     1      14.530   8.948  20.797  0.00  0.00    +0.046 C 
ATOM      7  C   UNL     1      14.540   7.844  19.715  0.00  0.00    +0.111 C 
ATOM      8  C   UNL     1      15.974   7.318  19.759  0.00  0.00    +0.164 C 
ATOM      9  C   UNL     1      15.693   8.605  21.763  0.00  0.00    +0.044 C 
ATOM     10  C   UNL     1      16.290   7.297  21.249  0.00  0.00    +0.145 C 
ENDROOT
BRANCH   6  11
ATOM      5  N   UNL     1      11.523  10.560  22.457  0.00  0.00    -0.263 NA
ATOM     11  C   UNL     1      13.183   9.105  21.471  0.00  0.00    -0.024 A 
ATOM     13  C   UNL     1      12.379   8.001  21.729  0.00  0.00    +0.007 A 
ATOM     14  C   UNL     1      12.713  10.352  21.851  0.00  0.00    +0.114 A 
ATOM     16  C   UNL     1      11.147   8.174  22.351  0.00  0.00    +0.020 A 
ATOM     19  C   UNL     1      10.769   9.463  22.692  0.00  0.00    +0.111 A 
ENDBRANCH   6  11
BRANCH   7   4
ATOM      3  O   UNL     1      12.147   7.284  18.220  0.00  0.00    -0.276 OA
ATOM      4  N   UNL     1      14.195   8.358  18.415  0.00  0.00    -0.309 N 
ATOM     12  C   UNL     1      13.010   8.031  17.765  0.00  0.00    +0.216 C 
ATOM     20  H   UNL     1      14.828   9.022  17.979  0.00  0.00    +0.149 HD
BRANCH  12  15
ATOM     15  C   UNL     1      12.885   8.703  16.398  0.00  0.00    +0.069 C 
ATOM     17  C   UNL     1      11.437   9.114  16.144  0.00  0.00    +0.017 C 
ATOM     18  C   UNL     1      13.810   9.914  16.296  0.00  0.00    +0.017 C 
ENDBRANCH  12  15
ENDBRANCH   7   4
BRANCH   8   1
ATOM      1  O   UNL     1      16.088   6.026  19.194  0.00  0.00    -0.387 OA
ATOM     21  H   UNL     1      15.774   6.080  18.275  0.00  0.00    +0.210 HD
ENDBRANCH   8   1
BRANCH  10   2
ATOM      2  O   UNL     1      15.632   6.211  21.895  0.00  0.00    -0.389 OA
ATOM     22  H   UNL     1      15.765   5.421  21.344  0.00  0.00    +0.210 HD
ENDBRANCH  10   2
TORSDOF 5
ENDMDL
MODEL 5
REMARK VINA RESULT:      -6.3      2.310      3.925
REMARK  Name = 75536067
REMARK  7 active torsions:
REMARK  status: ('A' for Active; 'I' for Inactive)
REMARK    1  A    between atoms: O_1  and  C_8
REMARK    2  A    between atoms: O_2  and  C_10
REMARK    3  A    between atoms: N_4  and  C_7
REMARK    4  A    between atoms: C_6  and  C_11
REMARK    5  A    between atoms: C_12  and  C_15
REMARK    6  A    between atoms: C_15  and  C_17
REMARK    7  A    between atoms: C_15  and  C_18
REMARK                            x       y       z     vdW  Elec       q    Type
REMARK                         _______ _______ _______ _____ _____    ______ ____
ROOT
ATOM      6  C   UNL     1      12.297   7.936  18.636  0.00  0.00    +0.046 C 
ATOM      7  C   UNL     1      13.752   8.293  18.257  0.00  0.00    +0.111 C 
ATOM      8  C   UNL     1      13.729   8.307  16.730  0.00  0.00    +0.164 C 
ATOM      9  C   UNL     1      11.431   8.342  17.415  0.00  0.00    +0.044 C 
ATOM     10  C   UNL     1      12.394   8.969  16.410  0.00  0.00    +0.145 C 
ENDROOT
BRANCH   6  11
ATOM      5  N   UNL     1      10.662   8.331  22.036  0.00  0.00    -0.263 NA
ATOM     11  C   UNL     1      11.858   8.553  19.947  0.00  0.00    -0.024 A 
ATOM     13  C   UNL     1      12.214   9.854  20.281  0.00  0.00    +0.007 A 
ATOM     14  C   UNL     1      11.088   7.839  20.851  0.00  0.00    +0.114 A 
ATOM     16  C   UNL     1      11.795  10.395  21.492  0.00  0.00    +0.020 A 
ATOM     19  C   UNL     1      11.027   9.599  22.326  0.00  0.00    +0.111 A 
ENDBRANCH   6  11
BRANCH   7   4
ATOM      3  O   UNL     1      15.674   8.719  20.356  0.00  0.00    -0.276 OA
ATOM      4  N   UNL     1      14.696   7.334  18.771  0.00  0.00    -0.309 N 
ATOM     12  C   UNL     1      15.591   7.630  19.793  0.00  0.00    +0.216 C 
ATOM     20  H   UNL     1      14.670   6.390  18.397  0.00  0.00    +0.149 HD
BRANCH  12  15
ATOM     15  C   UNL     1      16.485   6.443  20.152  0.00  0.00    +0.069 C 
ATOM     17  C   UNL     1      17.045   5.804  18.884  0.00  0.00    +0.017 C 
ATOM     18  C   UNL     1      17.619   6.871  21.080  0.00  0.00    +0.017 C 
ENDBRANCH  12  15
ENDBRANCH   7   4
BRANCH   8   1
ATOM      1  O   UNL     1      14.807   9.042  16.183  0.00  0.00    -0.387 OA
ATOM     21  H   UNL     1      14.445   9.873  15.830  0.00  0.00    +0.210 HD
ENDBRANCH   8   1
BRANCH  10   2
ATOM      2  O   UNL     1      12.451  10.373  16.647  0.00  0.00    -0.389 OA
ATOM     22  H   UNL     1      13.359  10.586  16.921  0.00  0.00    +0.210 HD
ENDBRANCH  10   2
TORSDOF 5
ENDMDL
MODEL 6
REMARK VINA RESULT:      -6.2      2.177      5.109
REMARK  Name = 75536067
REMARK  7 active torsions:
REMARK  status: ('A' for Active; 'I' for Inactive)
REMARK    1  A    between atoms: O_1  and  C_8
REMARK    2  A    between atoms: O_2  and  C_10
REMARK    3  A    between atoms: N_4  and  C_7
REMARK    4  A    between atoms: C_6  and  C_11
REMARK    5  A    between atoms: C_12  and  C_15
REMARK    6  A    between atoms: C_15  and  C_17
REMARK    7  A    between atoms: C_15  and  C_18
REMARK                            x       y       z     vdW  Elec       q    Type
REMARK                         _______ _______ _______ _____ _____    ______ ____
ROOT
ATOM      6  C   UNL     1      14.155   9.198  18.866  0.00  0.00    +0.046 C 
ATOM      7  C   UNL     1      12.849   8.372  18.828  0.00  0.00    +0.111 C 
ATOM      8  C   UNL     1      12.124   8.911  17.596  0.00  0.00    +0.164 C 
ATOM      9  C   UNL     1      14.383   9.696  17.415  0.00  0.00    +0.044 C 
ATOM     10  C   UNL     1      13.248   9.097  16.586  0.00  0.00    +0.145 C 
ENDROOT
BRANCH   6  11
ATOM      5  N   UNL     1      16.610   6.391  19.563  0.00  0.00    -0.263 NA
ATOM     11  C   UNL     1      15.322   8.434  19.454  0.00  0.00    -0.024 A 
ATOM     13  C   UNL     1      16.163   9.022  20.392  0.00  0.00    +0.007 A 
ATOM     14  C   UNL     1      15.587   7.128  19.076  0.00  0.00    +0.114 A 
ATOM     16  C   UNL     1      17.227   8.296  20.917  0.00  0.00    +0.020 A 
ATOM     19  C   UNL     1      17.405   6.996  20.473  0.00  0.00    +0.111 A 
ENDBRANCH   6  11
BRANCH   7   4
ATOM      3  O   UNL     1      12.878   6.677  21.152  0.00  0.00    -0.276 OA
ATOM      4  N   UNL     1      12.069   8.538  20.027  0.00  0.00    -0.309 N 
ATOM     12  C   UNL     1      12.149   7.665  21.106  0.00  0.00    +0.216 C 
ATOM     20  H   UNL     1      11.470   9.355  20.099  0.00  0.00    +0.149 HD
BRANCH  12  15
ATOM     15  C   UNL     1      11.218   8.060  22.252  0.00  0.00    +0.069 C 
ATOM     17  C   UNL     1      10.874   9.545  22.161  0.00  0.00    +0.017 C 
ATOM     18  C   UNL     1       9.946   7.216  22.242  0.00  0.00    +0.017 C 
ENDBRANCH  12  15
ENDBRANCH   7   4
BRANCH   8   1
ATOM      1  O   UNL     1      11.147   8.009  17.112  0.00  0.00    -0.387 OA
ATOM     21  H   UNL     1      10.750   8.407  16.318  0.00  0.00    +0.210 HD
ENDBRANCH   8   1
BRANCH  10   2
ATOM      2  O   UNL     1      13.678   7.844  16.063  0.00  0.00    -0.389 OA
ATOM     22  H   UNL     1      13.111   7.637  15.300  0.00  0.00    +0.210 HD
ENDBRANCH  10   2
TORSDOF 5
ENDMDL
MODEL 7
REMARK VINA RESULT:      -6.0      2.084      5.123
REMARK  Name = 75536067
REMARK  7 active torsions:
REMARK  status: ('A' for Active; 'I' for Inactive)
REMARK    1  A    between atoms: O_1  and  C_8
REMARK    2  A    between atoms: O_2  and  C_10
REMARK    3  A    between atoms: N_4  and  C_7
REMARK    4  A    between atoms: C_6  and  C_11
REMARK    5  A    between atoms: C_12  and  C_15
REMARK    6  A    between atoms: C_15  and  C_17
REMARK    7  A    between atoms: C_15  and  C_18
REMARK                            x       y       z     vdW  Elec       q    Type
REMARK                         _______ _______ _______ _____ _____    ______ ____
ROOT
ATOM      6  C   UNL     1      14.355   7.205  19.932  0.00  0.00    +0.046 C 
ATOM      7  C   UNL     1      14.170   8.706  19.615  0.00  0.00    +0.111 C 
ATOM      8  C   UNL     1      12.867   9.062  20.328  0.00  0.00    +0.164 C 
ATOM      9  C   UNL     1      13.541   6.943  21.227  0.00  0.00    +0.044 C 
ATOM     10  C   UNL     1      12.972   8.298  21.642  0.00  0.00    +0.145 C 
ENDROOT
BRANCH   6  11
ATOM      5  N   UNL     1      17.713   5.718  18.981  0.00  0.00    -0.263 NA
ATOM     11  C   UNL     1      15.809   6.791  20.015  0.00  0.00    -0.024 A 
ATOM     13  C   UNL     1      16.572   7.076  21.141  0.00  0.00    +0.007 A 
ATOM     14  C   UNL     1      16.421   6.116  18.971  0.00  0.00    +0.114 A 
ATOM     16  C   UNL     1      17.905   6.683  21.190  0.00  0.00    +0.020 A 
ATOM     19  C   UNL     1      18.423   6.012  20.093  0.00  0.00    +0.111 A 
ENDBRANCH   6  11
BRANCH   7   4
ATOM      3  O   UNL     1      14.746  11.178  18.260  0.00  0.00    -0.276 OA
ATOM      4  N   UNL     1      14.093   8.953  18.198  0.00  0.00    -0.309 N 
ATOM     12  C   UNL     1      14.391  10.186  17.629  0.00  0.00    +0.216 C 
ATOM     20  H   UNL     1      13.851   8.175  17.589  0.00  0.00    +0.149 HD
BRANCH  12  15
ATOM     15  C   UNL     1      14.228  10.186  16.109  0.00  0.00    +0.069 C 
ATOM     17  C   UNL     1      15.339  11.008  15.461  0.00  0.00    +0.017 C 
ATOM     18  C   UNL     1      14.224   8.763  15.557  0.00  0.00    +0.017 C 
ENDBRANCH  12  15
ENDBRANCH   7   4
BRANCH   8   1
ATOM      1  O   UNL     1      12.744  10.454  20.555  0.00  0.00    -0.387 OA
ATOM     21  H   UNL     1      11.857  10.721  20.256  0.00  0.00    +0.210 HD
ENDBRANCH   8   1
BRANCH  10   2
ATOM      2  O   UNL     1      13.893   8.928  22.527  0.00  0.00    -0.389 OA
ATOM     22  H   UNL     1      14.611   8.296  22.699  0.00  0.00    +0.210 HD
ENDBRANCH  10   2
TORSDOF 5
ENDMDL
MODEL 8
REMARK VINA RESULT:      -5.9     12.817     14.790
REMARK  Name = 75536067
REMARK  7 active torsions:
REMARK  status: ('A' for Active; 'I' for Inactive)
REMARK    1  A    between atoms: O_1  and  C_8
REMARK    2  A    between atoms: O_2  and  C_10
REMARK    3  A    between atoms: N_4  and  C_7
REMARK    4  A    between atoms: C_6  and  C_11
REMARK    5  A    between atoms: C_12  and  C_15
REMARK    6  A    between atoms: C_15  and  C_17
REMARK    7  A    between atoms: C_15  and  C_18
REMARK                            x       y       z     vdW  Elec       q    Type
REMARK                         _______ _______ _______ _____ _____    ______ ____
ROOT
ATOM      6  C   UNL     1      10.091   6.299   5.046  0.00  0.00    +0.046 C 
ATOM      7  C   UNL     1      11.374   6.267   5.907  0.00  0.00    +0.111 C 
ATOM      8  C   UNL     1      10.844   6.108   7.330  0.00  0.00    +0.164 C 
ATOM      9  C   UNL     1       9.000   5.588   5.888  0.00  0.00    +0.044 C 
ATOM     10  C   UNL     1       9.696   5.120   7.164  0.00  0.00    +0.145 C 
ENDROOT
BRANCH   6  11
ATOM      5  N   UNL     1      11.042   3.880   2.282  0.00  0.00    -0.263 NA
ATOM     11  C   UNL     1      10.290   5.717   3.662  0.00  0.00    -0.024 A 
ATOM     13  C   UNL     1       9.930   6.433   2.526  0.00  0.00    +0.007 A 
ATOM     14  C   UNL     1      10.837   4.456   3.488  0.00  0.00    +0.114 A 
ATOM     16  C   UNL     1      10.125   5.874   1.268  0.00  0.00    +0.020 A 
ATOM     19  C   UNL     1      10.680   4.606   1.201  0.00  0.00    +0.111 A 
ENDBRANCH   6  11
BRANCH   7   4
ATOM      3  O   UNL     1      14.091   6.673   6.762  0.00  0.00    -0.276 OA
ATOM      4  N   UNL     1      12.157   7.466   5.754  0.00  0.00    -0.309 N 
ATOM     12  C   UNL     1      13.470   7.572   6.201  0.00  0.00    +0.216 C 
ATOM     20  H   UNL     1      11.741   8.250   5.259  0.00  0.00    +0.149 HD
BRANCH  12  15
ATOM     15  C   UNL     1      14.075   8.948   5.922  0.00  0.00    +0.069 C 
ATOM     17  C   UNL     1      13.416  10.002   6.810  0.00  0.00    +0.017 C 
ATOM     18  C   UNL     1      15.586   8.937   6.138  0.00  0.00    +0.017 C 
ENDBRANCH  12  15
ENDBRANCH   7   4
BRANCH   8   1
ATOM      1  O   UNL     1      11.826   5.605   8.216  0.00  0.00    -0.387 OA
ATOM     21  H   UNL     1      12.087   6.333   8.807  0.00  0.00    +0.210 HD
ENDBRANCH   8   1
BRANCH  10   2
ATOM      2  O   UNL     1      10.186   3.798   6.958  0.00  0.00    -0.389 OA
ATOM     22  H   UNL     1       9.571   3.188   7.400  0.00  0.00    +0.210 HD
ENDBRANCH  10   2
TORSDOF 5
ENDMDL
MODEL 9
REMARK VINA RESULT:      -5.8     25.633     26.909
REMARK  Name = 75536067
REMARK  7 active torsions:
REMARK  status: ('A' for Active; 'I' for Inactive)
REMARK    1  A    between atoms: O_1  and  C_8
REMARK    2  A    between atoms: O_2  and  C_10
REMARK    3  A    between atoms: N_4  and  C_7
REMARK    4  A    between atoms: C_6  and  C_11
REMARK    5  A    between atoms: C_12  and  C_15
REMARK    6  A    between atoms: C_15  and  C_17
REMARK    7  A    between atoms: C_15  and  C_18
REMARK                            x       y       z     vdW  Elec       q    Type
REMARK                         _______ _______ _______ _____ _____    ______ ____
ROOT
ATOM      6  C   UNL     1      -6.116 -10.042  17.899  0.00  0.00    +0.046 C 
ATOM      7  C   UNL     1      -5.140 -11.116  17.367  0.00  0.00    +0.111 C 
ATOM      8  C   UNL     1      -4.638 -11.800  18.637  0.00  0.00    +0.164 C 
ATOM      9  C   UNL     1      -6.565 -10.536  19.299  0.00  0.00    +0.044 C 
ATOM     10  C   UNL     1      -5.890 -11.890  19.500  0.00  0.00    +0.145 C 
ENDROOT
BRANCH   6  11
ATOM      5  N   UNL     1      -8.258 -10.067  14.767  0.00  0.00    -0.263 NA
ATOM     11  C   UNL     1      -7.255  -9.751  16.944  0.00  0.00    -0.024 A 
ATOM     13  C   UNL     1      -8.317  -8.937  17.323  0.00  0.00    +0.007 A 
ATOM     14  C   UNL     1      -7.273 -10.288  15.667  0.00  0.00    +0.114 A 
ATOM     16  C   UNL     1      -9.348  -8.686  16.425  0.00  0.00    +0.020 A 
ATOM     19  C   UNL     1      -9.272  -9.270  15.171  0.00  0.00    +0.111 A 
ENDBRANCH   6  11
BRANCH   7   4
ATOM      3  O   UNL     1      -3.581 -12.410  15.324  0.00  0.00    -0.276 OA
ATOM      4  N   UNL     1      -4.063 -10.537  16.605  0.00  0.00    -0.309 N 
ATOM     12  C   UNL     1      -3.363 -11.241  15.632  0.00  0.00    +0.216 C 
ATOM     20  H   UNL     1      -3.840  -9.557  16.760  0.00  0.00    +0.149 HD
BRANCH  12  15
ATOM     15  C   UNL     1      -2.268 -10.403  14.974  0.00  0.00    +0.069 C 
ATOM     17  C   UNL     1      -0.967 -10.521  15.765  0.00  0.00    +0.017 C 
ATOM     18  C   UNL     1      -2.050 -10.825  13.523  0.00  0.00    +0.017 C 
ENDBRANCH  12  15
ENDBRANCH   7   4
BRANCH   8   1
ATOM      1  O   UNL     1      -4.102 -13.083  18.378  0.00  0.00    -0.387 OA
ATOM     21  H   UNL     1      -3.793 -13.091  17.456  0.00  0.00    +0.210 HD
ENDBRANCH   8   1
BRANCH  10   2
ATOM      2  O   UNL     1      -6.764 -12.911  19.026  0.00  0.00    -0.389 OA
ATOM     22  H   UNL     1      -6.336 -13.766  19.201  0.00  0.00    +0.210 HD
ENDBRANCH  10   2
TORSDOF 5
ENDMDL
MODEL 10
REMARK VINA RESULT:      -5.4     24.289     26.600
REMARK  Name = 75536067
REMARK  7 active torsions:
REMARK  status: ('A' for Active; 'I' for Inactive)
REMARK    1  A    between atoms: O_1  and  C_8
REMARK    2  A    between atoms: O_2  and  C_10
REMARK    3  A    between atoms: N_4  and  C_7
REMARK    4  A    between atoms: C_6  and  C_11
REMARK    5  A    between atoms: C_12  and  C_15
REMARK    6  A    between atoms: C_15  and  C_17
REMARK    7  A    between atoms: C_15  and  C_18
REMARK                            x       y       z     vdW  Elec       q    Type
REMARK                         _______ _______ _______ _____ _____    ______ ____
ROOT
ATOM      6  C   UNL     1     -12.316   9.533  18.277  0.00  0.00    +0.046 C 
ATOM      7  C   UNL     1     -12.004   8.988  16.865  0.00  0.00    +0.111 C 
ATOM      8  C   UNL     1     -11.129  10.078  16.250  0.00  0.00    +0.164 C 
ATOM      9  C   UNL     1     -11.183  10.540  18.602  0.00  0.00    +0.044 C 
ATOM     10  C   UNL     1     -10.232  10.497  17.408  0.00  0.00    +0.145 C 
ENDROOT
BRANCH   6  11
ATOM      5  N   UNL     1     -13.984   7.029  20.588  0.00  0.00    -0.263 NA
ATOM     11  C   UNL     1     -12.494   8.439  19.309  0.00  0.00    -0.024 A 
ATOM     13  C   UNL     1     -11.396   7.845  19.920  0.00  0.00    +0.007 A 
ATOM     14  C   UNL     1     -13.756   7.999  19.675  0.00  0.00    +0.114 A 
ATOM     16  C   UNL     1     -11.589   6.844  20.865  0.00  0.00    +0.020 A 
ATOM     19  C   UNL     1     -12.892   6.476  21.161  0.00  0.00    +0.111 A 
ENDBRANCH   6  11
BRANCH   7   4
ATOM      3  O   UNL     1     -12.190   7.680  14.309  0.00  0.00    -0.276 OA
ATOM      4  N   UNL     1     -13.201   8.761  16.097  0.00  0.00    -0.309 N 
ATOM     12  C   UNL     1     -13.196   8.116  14.865  0.00  0.00    +0.216 C 
ATOM     20  H   UNL     1     -14.089   9.047  16.499  0.00  0.00    +0.149 HD
BRANCH  12  15
ATOM     15  C   UNL     1     -14.593   8.005  14.255  0.00  0.00    +0.069 C 
ATOM     17  C   UNL     1     -14.563   7.085  13.037  0.00  0.00    +0.017 C 
ATOM     18  C   UNL     1     -15.602   7.499  15.282  0.00  0.00    +0.017 C 
ENDBRANCH  12  15
ENDBRANCH   7   4
BRANCH   8   1
ATOM      1  O   UNL     1     -10.364   9.599  15.159  0.00  0.00    -0.387 OA
ATOM     21  H   UNL     1     -10.981   9.398  14.435  0.00  0.00    +0.210 HD
ENDBRANCH   8   1
BRANCH  10   2
ATOM      2  O   UNL     1      -9.229   9.518  17.658  0.00  0.00    -0.389 OA
ATOM     22  H   UNL     1      -8.453   9.750  17.119  0.00  0.00    +0.210 HD
ENDBRANCH  10   2
TORSDOF 5
ENDMDL
