REMARK  Name = 26744558
REMARK  6 active torsions:
REMARK  status: ('A' for Active; 'I' for Inactive)
REMARK    1  A    between atoms: O_3  and  C_10
REMARK    2  A    between atoms: N_5  and  C_12
REMARK    3  A    between atoms: C_8  and  C_13
REMARK    4  A    between atoms: C_12  and  C_14
REMARK    5  A    between atoms: C_15  and  C_18
REMARK    6  A    between atoms: C_18  and  C_21
REMARK                            x       y       z     vdW  Elec       q    Type
REMARK                         _______ _______ _______ _____ _____    ______ ____
ROOT
ATOM      5  N   UNL     1       2.535   0.357   0.256  0.00  0.00    -0.285 NA
ATOM      8  C   UNL     1       2.245   1.744   0.676  0.00  0.00    +0.149 C 
ATOM      9  C   UNL     1       3.226   2.613  -0.134  0.00  0.00    +0.061 C 
ATOM     10  C   UNL     1       4.054   1.624  -0.944  0.00  0.00    +0.130 C 
ATOM     11  C   UNL     1       3.938   0.334  -0.154  0.00  0.00    +0.116 C 
ENDROOT
BRANCH   8  13
ATOM      4  O   UNL     1       0.292   3.084   1.276  0.00  0.00    -0.336 OA
ATOM      6  N   UNL     1      -0.056   1.674  -0.429  0.00  0.00    -0.194 NA
ATOM      7  N   UNL     1      -1.040   3.268   0.884  0.00  0.00    -0.061 NA
ATOM     13  C   UNL     1       0.798   2.130   0.452  0.00  0.00    +0.245 A 
ATOM     15  C   UNL     1      -1.169   2.402  -0.125  0.00  0.00    +0.176 A 
BRANCH  15  18
ATOM     18  C   UNL     1      -2.430   2.244  -0.858  0.00  0.00    +0.116 C 
BRANCH  18  21
ATOM      1 CL   UNL     1      -1.925  -0.401  -2.389  0.00  0.00    -0.083 Cl
ATOM      2  F   UNL     1      -5.508  -2.249   0.661  0.00  0.00    -0.205 F 
ATOM     21  C   UNL     1      -3.246   1.015  -0.471  0.00  0.00    -0.021 A 
ATOM     23  C   UNL     1      -3.074  -0.210  -1.116  0.00  0.00    +0.047 A 
ATOM     24  C   UNL     1      -4.181   1.137   0.557  0.00  0.00    +0.008 A 
ATOM     25  C   UNL     1      -3.838  -1.313  -0.734  0.00  0.00    +0.058 A 
ATOM     26  C   UNL     1      -4.945   0.034   0.939  0.00  0.00    +0.039 A 
ATOM     27  C   UNL     1      -4.774  -1.191   0.294  0.00  0.00    +0.125 A 
ENDBRANCH  18  21
ENDBRANCH  15  18
ENDBRANCH   8  13
BRANCH  10   3
ATOM      3  O   UNL     1       5.396   2.058  -1.045  0.00  0.00    -0.390 OA
ATOM     28  H   UNL     1       5.391   2.922  -1.492  0.00  0.00    +0.210 HD
ENDBRANCH  10   3
BRANCH   5  12
ATOM     12  C   UNL     1       2.249  -0.628   1.291  0.00  0.00    +0.120 C 
BRANCH  12  14
ATOM     14  C   UNL     1       2.073  -2.009   0.717  0.00  0.00    -0.033 A 
ATOM     16  C   UNL     1       0.807  -2.442   0.321  0.00  0.00    +0.005 A 
ATOM     17  C   UNL     1       3.174  -2.854   0.582  0.00  0.00    +0.005 A 
ATOM     19  C   UNL     1       0.644  -3.722  -0.211  0.00  0.00    +0.000 A 
ATOM     20  C   UNL     1       3.010  -4.133   0.050  0.00  0.00    +0.000 A 
ATOM     22  C   UNL     1       1.745  -4.567  -0.346  0.00  0.00    +0.000 A 
ENDBRANCH  12  14
ENDBRANCH   5  12
TORSDOF 6
