REMARK  Name = 23928013
REMARK  8 active torsions:
REMARK  status: ('A' for Active; 'I' for Inactive)
REMARK    1  A    between atoms: O_3  and  C_12
REMARK    2  A    between atoms: N_9  and  C_35
REMARK    3  A    between atoms: C_10  and  C_18
REMARK    4  A    between atoms: C_13  and  C_19
REMARK    5  A    between atoms: C_15  and  C_22
REMARK    6  A    between atoms: C_19  and  C_23
REMARK    7  A    between atoms: C_19  and  C_24
REMARK    8  A    between atoms: C_30  and  C_31
REMARK                            x       y       z     vdW  Elec       q    Type
REMARK                         _______ _______ _______ _____ _____    ______ ____
ROOT
ATOM      1  S   UNL     1       2.857  -2.128   0.719  0.00  0.00    -0.057 S 
ATOM      5  O   UNL     1       5.561   1.386  -0.779  0.00  0.00    -0.268 OA
ATOM      6  N   UNL     1       2.825   0.322  -0.106  0.00  0.00    -0.229 NA
ATOM      8  N   UNL     1       4.977  -0.757   0.008  0.00  0.00    -0.259 N 
ATOM     10  C   UNL     1      -1.010  -0.853   1.301  0.00  0.00    -0.022 C 
ATOM     11  C   UNL     1      -1.015   0.196   0.120  0.00  0.00    +0.033 C 
ATOM     12  C   UNL     1      -2.222   1.170   0.232  0.00  0.00    +0.123 C 
ATOM     13  C   UNL     1      -3.571   0.435   0.390  0.00  0.00    +0.029 C 
ATOM     14  C   UNL     1      -2.384  -1.559   1.375  0.00  0.00    +0.008 C 
ATOM     15  C   UNL     1       0.379   0.933  -0.022  0.00  0.00    +0.042 C 
ATOM     16  C   UNL     1      -3.548  -0.590   1.524  0.00  0.00    +0.007 C 
ATOM     17  C   UNL     1       0.065  -1.951   1.027  0.00  0.00    +0.051 C 
ATOM     18  C   UNL     1      -0.711  -0.188   2.669  0.00  0.00    +0.012 C 
ATOM     20  C   UNL     1       1.516  -0.045   0.153  0.00  0.00    +0.057 A 
ATOM     21  C   UNL     1       1.357  -1.328   0.633  0.00  0.00    +0.015 A 
ATOM     22  C   UNL     1       0.535   1.685  -1.353  0.00  0.00    +0.014 C 
ATOM     25  C   UNL     1       3.615  -0.699   0.145  0.00  0.00    +0.165 A 
ATOM     30  C   UNL     1       5.869   0.251  -0.433  0.00  0.00    +0.266 C 
ATOM     37  H   UNL     1       5.377  -1.652   0.277  0.00  0.00    +0.157 HD
ENDROOT
BRANCH  30  31
ATOM      9  N   UNL     1       8.338   0.778  -0.263  0.00  0.00    -0.346 N 
ATOM     31  C   UNL     1       7.311  -0.110  -0.449  0.00  0.00    +0.105 A 
ATOM     32  C   UNL     1       7.862  -1.357  -0.648  0.00  0.00    +0.032 A 
ATOM     33  C   UNL     1       9.536   0.117  -0.339  0.00  0.00    +0.086 A 
ATOM     34  C   UNL     1       9.270  -1.213  -0.578  0.00  0.00    +0.020 A 
ATOM     35  C   UNL     1       8.197   2.197  -0.023  0.00  0.00    +0.149 C 
ENDBRANCH  30  31
BRANCH  12   3
ATOM      3  O   UNL     1      -2.306   1.958  -0.955  0.00  0.00    -0.391 OA
ATOM     36  H   UNL     1      -2.444   1.356  -1.706  0.00  0.00    +0.210 HD
ENDBRANCH  12   3
BRANCH  13  19
ATOM     19  C   UNL     1      -4.731   1.414   0.606  0.00  0.00    +0.078 C 
ATOM     23  C   UNL     1      -4.518   2.239   1.863  0.00  0.00    +0.017 C 
BRANCH  19  24
ATOM      2  S   UNL     1      -7.217  -1.669  -2.814  0.00  0.00    -0.158 S 
ATOM      4  O   UNL     1      -6.435   0.287   1.806  0.00  0.00    -0.275 OA
ATOM      7  N   UNL     1      -6.689   0.390  -0.502  0.00  0.00    -0.300 N 
ATOM     24  C   UNL     1      -6.027   0.647   0.699  0.00  0.00    +0.219 C 
ATOM     26  C   UNL     1      -6.170   0.703  -1.839  0.00  0.00    +0.118 C 
ATOM     27  C   UNL     1      -7.952  -0.350  -0.491  0.00  0.00    +0.118 C 
ATOM     28  C   UNL     1      -5.783  -0.568  -2.589  0.00  0.00    +0.088 C 
ATOM     29  C   UNL     1      -7.782  -1.744  -1.083  0.00  0.00    +0.088 C 
ENDBRANCH  19  24
ENDBRANCH  13  19
TORSDOF 4
