REMARK  Name = 11886183
REMARK  5 active torsions:
REMARK  status: ('A' for Active; 'I' for Inactive)
REMARK    1  A    between atoms: O_3  and  C_17
REMARK    2  A    between atoms: O_3  and  C_20
REMARK    3  A    between atoms: N_5  and  C_13
REMARK    4  A    between atoms: N_6  and  C_14
REMARK    5  A    between atoms: N_10  and  C_19
REMARK                            x       y       z     vdW  Elec       q    Type
REMARK                         _______ _______ _______ _____ _____    ______ ____
ROOT
ATOM      1  O   UNL     1      -0.170  -2.453   1.098  0.00  0.00    -0.370 OA
ATOM      2  O   UNL     1       0.092  -1.483  -1.883  0.00  0.00    -0.370 OA
ATOM     11  C   UNL     1       0.310  -0.856  -0.606  0.00  0.00    +0.176 C 
ATOM     12  C   UNL     1      -0.753  -1.382   0.339  0.00  0.00    +0.172 C 
ATOM     13  C   UNL     1       1.622  -1.333  -0.014  0.00  0.00    +0.171 C 
ATOM     14  C   UNL     1      -1.834  -1.914  -0.574  0.00  0.00    +0.131 C 
ATOM     15  C   UNL     1       1.216  -2.586   0.755  0.00  0.00    +0.190 C 
ATOM     16  C   UNL     1      -1.042  -2.357  -1.790  0.00  0.00    +0.185 C 
ENDROOT
BRANCH  14   6
ATOM      4  O   UNL     1      -4.325  -1.377   0.736  0.00  0.00    -0.252 OA
ATOM      6  N   UNL     1      -2.784  -0.883  -0.916  0.00  0.00    -0.292 N 
ATOM     10  N   UNL     1      -4.697   0.380  -0.775  0.00  0.00    -0.269 N 
ATOM     18  C   UNL     1      -3.984  -0.686  -0.221  0.00  0.00    +0.304 C 
ATOM     31  H   UNL     1      -2.542  -0.228  -1.653  0.00  0.00    +0.151 HD
ATOM     32  H   UNL     1      -4.272   0.848  -1.571  0.00  0.00    +0.156 HD
BRANCH  10  19
ATOM     19  C   UNL     1      -5.949   0.894  -0.364  0.00  0.00    +0.035 A 
ATOM     21  C   UNL     1      -6.500   1.966  -1.047  0.00  0.00    +0.023 A 
ATOM     22  C   UNL     1      -6.600   0.314   0.713  0.00  0.00    +0.023 A 
ATOM     25  C   UNL     1      -7.735   2.473  -0.642  0.00  0.00    +0.002 A 
ATOM     26  C   UNL     1      -7.835   0.820   1.118  0.00  0.00    +0.002 A 
ATOM     29  C   UNL     1      -8.403   1.900   0.441  0.00  0.00    +0.000 A 
ENDBRANCH  10  19
ENDBRANCH  14   6
BRANCH  13   5
ATOM      5  N   UNL     1       2.285  -0.301   0.788  0.00  0.00    -0.187 N 
ATOM      7  N   UNL     1       1.669   0.256   1.835  0.00  0.00    -0.041 NA
ATOM      8  N   UNL     1       3.706   1.124   1.575  0.00  0.00    -0.071 NA
ATOM      9  N   UNL     1       2.545   1.129   2.315  0.00  0.00    -0.020 NA
ATOM     17  C   UNL     1       3.522   0.228   0.633  0.00  0.00    +0.342 A 
BRANCH  17   3
ATOM      3  O   UNL     1       4.379  -0.112  -0.311  0.00  0.00    -0.423 OA
BRANCH   3  20
ATOM     20  C   UNL     1       5.636   0.467  -0.423  0.00  0.00    +0.132 A 
ATOM     23  C   UNL     1       6.700  -0.107   0.245  0.00  0.00    +0.046 A 
ATOM     24  C   UNL     1       5.785   1.600  -1.199  0.00  0.00    +0.046 A 
ATOM     27  C   UNL     1       7.963   0.475   0.132  0.00  0.00    +0.004 A 
ATOM     28  C   UNL     1       7.047   2.182  -1.312  0.00  0.00    +0.004 A 
ATOM     30  C   UNL     1       8.136   1.620  -0.646  0.00  0.00    +0.000 A 
ENDBRANCH   3  20
ENDBRANCH  17   3
ENDBRANCH  13   5
TORSDOF 5
