MODEL 1
REMARK VINA RESULT:      -6.6      0.000      0.000
REMARK  Name = 11865720
REMARK  10 active torsions:
REMARK  status: ('A' for Active; 'I' for Inactive)
REMARK    1  A    between atoms: O_2  and  C_11
REMARK    2  A    between atoms: O_3  and  C_13
REMARK    3  A    between atoms: O_6  and  C_24
REMARK    4  A    between atoms: O_6  and  C_28
REMARK    5  A    between atoms: N_8  and  C_12
REMARK    6  A    between atoms: N_9  and  C_20
REMARK    7  A    between atoms: C_15  and  C_17
REMARK    8  A    between atoms: C_18  and  C_19
REMARK    9  A    between atoms: C_20  and  C_21
REMARK   10  A    between atoms: C_21  and  C_26
REMARK                            x       y       z     vdW  Elec       q    Type
REMARK                         _______ _______ _______ _____ _____    ______ ____
ROOT
ATOM     11  C   UNL     1      12.301   7.426  20.711  0.00  0.00    +0.167 C 
ATOM     12  C   UNL     1      13.255   8.632  20.604  0.00  0.00    +0.128 C 
ATOM     13  C   UNL     1      10.833   7.871  20.709  0.00  0.00    +0.149 C 
ATOM     14  C   UNL     1      10.534   8.888  21.824  0.00  0.00    +0.074 C 
ATOM     15  C   UNL     1      11.642   9.880  22.038  0.00  0.00    +0.015 C 
ATOM     16  C   UNL     1      12.863   9.782  21.490  0.00  0.00    +0.006 C 
ENDROOT
BRANCH  15  17
ATOM      4  O   UNL     1      10.956  12.098  22.396  0.00  0.00    -0.271 OA
ATOM      9  N   UNL     1      11.631  10.816  24.222  0.00  0.00    -0.311 N 
ATOM     17  C   UNL     1      11.371  11.046  22.883  0.00  0.00    +0.240 C 
ATOM     32  H   UNL     1      11.964   9.903  24.521  0.00  0.00    +0.149 HD
BRANCH   9  20
ATOM     20  C   UNL     1      11.443  11.816  25.248  0.00  0.00    +0.113 C 
BRANCH  20  21
ATOM     21  C   UNL     1      12.721  12.587  25.543  0.00  0.00    +0.114 C 
BRANCH  21  26
ATOM      7  O   UNL     1      14.565  11.720  24.221  0.00  0.00    -0.276 OA
ATOM     10  N   UNL     1      14.394  11.099  26.428  0.00  0.00    -0.329 N 
ATOM     26  C   UNL     1      13.983  11.777  25.300  0.00  0.00    +0.212 C 
ATOM     33  H   UNL     1      15.223  10.513  26.411  0.00  0.00    +0.145 HD
ATOM     34  H   UNL     1      13.894  11.157  27.309  0.00  0.00    +0.145 HD
ENDBRANCH  21  26
ENDBRANCH  20  21
ENDBRANCH   9  20
ENDBRANCH  15  17
BRANCH  12   8
ATOM      5  O   UNL     1      15.580   9.251  19.038  0.00  0.00    -0.270 OA
ATOM      8  N   UNL     1      14.618   8.259  20.898  0.00  0.00    -0.302 N 
ATOM     18  C   UNL     1      15.680   8.606  20.077  0.00  0.00    +0.246 C 
ATOM     29  H   UNL     1      14.794   7.679  21.715  0.00  0.00    +0.150 HD
BRANCH  18  19
ATOM      1 BR   UNL     1      17.361  10.613  21.923  0.00  0.00    -0.050 Br
ATOM     19  C   UNL     1      17.018   8.123  20.506  0.00  0.00    +0.054 A 
ATOM     22  C   UNL     1      17.421   6.858  20.077  0.00  0.00    +0.059 A 
ATOM     23  C   UNL     1      17.861   8.888  21.311  0.00  0.00    +0.030 A 
ATOM     24  C   UNL     1      18.667   6.359  20.454  0.00  0.00    +0.121 A 
ATOM     25  C   UNL     1      19.108   8.389  21.688  0.00  0.00    +0.019 A 
ATOM     27  C   UNL     1      19.512   7.124  21.259  0.00  0.00    +0.047 A 
BRANCH  24   6
ATOM      6  O   UNL     1      19.061   5.124  20.037  0.00  0.00    -0.495 OA
ATOM     28  C   UNL     1      20.390   4.722  20.363  0.00  0.00    +0.277 C 
ENDBRANCH  24   6
ENDBRANCH  18  19
ENDBRANCH  12   8
BRANCH  11   2
ATOM      2  O   UNL     1      12.564   6.713  21.921  0.00  0.00    -0.387 OA
ATOM     30  H   UNL     1      12.549   5.764  21.711  0.00  0.00    +0.210 HD
ENDBRANCH  11   2
BRANCH  13   3
ATOM      3  O   UNL     1      10.487   8.421  19.440  0.00  0.00    -0.389 OA
ATOM     31  H   UNL     1       9.697   7.952  19.122  0.00  0.00    +0.210 HD
ENDBRANCH  13   3
TORSDOF 9
ENDMDL
MODEL 2
REMARK VINA RESULT:      -6.5      3.085      5.075
REMARK  Name = 11865720
REMARK  10 active torsions:
REMARK  status: ('A' for Active; 'I' for Inactive)
REMARK    1  A    between atoms: O_2  and  C_11
REMARK    2  A    between atoms: O_3  and  C_13
REMARK    3  A    between atoms: O_6  and  C_24
REMARK    4  A    between atoms: O_6  and  C_28
REMARK    5  A    between atoms: N_8  and  C_12
REMARK    6  A    between atoms: N_9  and  C_20
REMARK    7  A    between atoms: C_15  and  C_17
REMARK    8  A    between atoms: C_18  and  C_19
REMARK    9  A    between atoms: C_20  and  C_21
REMARK   10  A    between atoms: C_21  and  C_26
REMARK                            x       y       z     vdW  Elec       q    Type
REMARK                         _______ _______ _______ _____ _____    ______ ____
ROOT
ATOM     11  C   UNL     1      12.510   7.512  21.925  0.00  0.00    +0.167 C 
ATOM     12  C   UNL     1      13.266   6.759  20.813  0.00  0.00    +0.128 C 
ATOM     13  C   UNL     1      11.043   7.750  21.546  0.00  0.00    +0.149 C 
ATOM     14  C   UNL     1      10.905   8.496  20.208  0.00  0.00    +0.074 C 
ATOM     15  C   UNL     1      11.909   8.065  19.178  0.00  0.00    +0.015 C 
ATOM     16  C   UNL     1      12.967   7.279  19.434  0.00  0.00    +0.006 C 
ENDROOT
BRANCH  15  17
ATOM      4  O   UNL     1      10.648   8.319  17.212  0.00  0.00    -0.271 OA
ATOM      9  N   UNL     1      12.832   9.134  17.267  0.00  0.00    -0.311 N 
ATOM     17  C   UNL     1      11.716   8.510  17.795  0.00  0.00    +0.240 C 
ATOM     32  H   UNL     1      13.663   9.249  17.840  0.00  0.00    +0.149 HD
BRANCH   9  20
ATOM     20  C   UNL     1      12.882   9.657  15.921  0.00  0.00    +0.113 C 
BRANCH  20  21
ATOM     21  C   UNL     1      14.305   9.736  15.387  0.00  0.00    +0.114 C 
BRANCH  21  26
ATOM      7  O   UNL     1      13.955  12.091  14.909  0.00  0.00    -0.276 OA
ATOM     10  N   UNL     1      16.086  11.238  14.778  0.00  0.00    -0.329 N 
ATOM     26  C   UNL     1      14.729  11.144  15.009  0.00  0.00    +0.212 C 
ATOM     33  H   UNL     1      16.510  12.121  14.513  0.00  0.00    +0.145 HD
ATOM     34  H   UNL     1      16.707  10.440  14.863  0.00  0.00    +0.145 HD
ENDBRANCH  21  26
ENDBRANCH  20  21
ENDBRANCH   9  20
ENDBRANCH  15  17
BRANCH  12   8
ATOM      5  O   UNL     1      15.254   7.714  18.975  0.00  0.00    -0.270 OA
ATOM      8  N   UNL     1      14.692   6.788  21.025  0.00  0.00    -0.302 N 
ATOM     18  C   UNL     1      15.578   7.272  20.073  0.00  0.00    +0.246 C 
ATOM     29  H   UNL     1      15.061   6.396  21.888  0.00  0.00    +0.150 HD
BRANCH  18  19
ATOM      1 BR   UNL     1      16.740   9.825  21.619  0.00  0.00    -0.050 Br
ATOM     19  C   UNL     1      17.018   7.209  20.435  0.00  0.00    +0.054 A 
ATOM     22  C   UNL     1      17.729   6.063  20.078  0.00  0.00    +0.059 A 
ATOM     23  C   UNL     1      17.660   8.247  21.109  0.00  0.00    +0.030 A 
ATOM     24  C   UNL     1      19.083   5.955  20.395  0.00  0.00    +0.121 A 
ATOM     25  C   UNL     1      19.015   8.139  21.427  0.00  0.00    +0.019 A 
ATOM     27  C   UNL     1      19.726   6.993  21.070  0.00  0.00    +0.047 A 
BRANCH  24   6
ATOM      6  O   UNL     1      19.777   4.837  20.048  0.00  0.00    -0.495 OA
ATOM     28  C   UNL     1      21.064   4.663  20.638  0.00  0.00    +0.277 C 
ENDBRANCH  24   6
ENDBRANCH  18  19
ENDBRANCH  12   8
BRANCH  11   2
ATOM      2  O   UNL     1      13.136   8.776  22.158  0.00  0.00    -0.387 OA
ATOM     30  H   UNL     1      12.456   9.379  22.504  0.00  0.00    +0.210 HD
ENDBRANCH  11   2
BRANCH  13   3
ATOM      3  O   UNL     1      10.343   6.509  21.489  0.00  0.00    -0.389 OA
ATOM     31  H   UNL     1      10.093   6.271  22.398  0.00  0.00    +0.210 HD
ENDBRANCH  13   3
TORSDOF 9
ENDMDL
MODEL 3
REMARK VINA RESULT:      -6.4      4.353      8.396
REMARK  Name = 11865720
REMARK  10 active torsions:
REMARK  status: ('A' for Active; 'I' for Inactive)
REMARK    1  A    between atoms: O_2  and  C_11
REMARK    2  A    between atoms: O_3  and  C_13
REMARK    3  A    between atoms: O_6  and  C_24
REMARK    4  A    between atoms: O_6  and  C_28
REMARK    5  A    between atoms: N_8  and  C_12
REMARK    6  A    between atoms: N_9  and  C_20
REMARK    7  A    between atoms: C_15  and  C_17
REMARK    8  A    between atoms: C_18  and  C_19
REMARK    9  A    between atoms: C_20  and  C_21
REMARK   10  A    between atoms: C_21  and  C_26
REMARK                            x       y       z     vdW  Elec       q    Type
REMARK                         _______ _______ _______ _____ _____    ______ ____
ROOT
ATOM     11  C   UNL     1      11.590   8.276  22.196  0.00  0.00    +0.167 C 
ATOM     12  C   UNL     1      12.100   9.554  21.502  0.00  0.00    +0.128 C 
ATOM     13  C   UNL     1      12.227   7.017  21.593  0.00  0.00    +0.149 C 
ATOM     14  C   UNL     1      12.002   6.925  20.074  0.00  0.00    +0.074 C 
ATOM     15  C   UNL     1      12.099   8.251  19.375  0.00  0.00    +0.015 C 
ATOM     16  C   UNL     1      12.153   9.436  20.003  0.00  0.00    +0.006 C 
ENDROOT
BRANCH  15  17
ATOM      4  O   UNL     1      11.730   7.311  17.254  0.00  0.00    -0.271 OA
ATOM      9  N   UNL     1      12.740   9.407  17.400  0.00  0.00    -0.311 N 
ATOM     17  C   UNL     1      12.162   8.258  17.911  0.00  0.00    +0.240 C 
ATOM     32  H   UNL     1      13.056  10.135  18.034  0.00  0.00    +0.149 HD
BRANCH   9  20
ATOM     20  C   UNL     1      12.915   9.642  15.985  0.00  0.00    +0.113 C 
BRANCH  20  21
ATOM     21  C   UNL     1      14.369   9.896  15.618  0.00  0.00    +0.114 C 
BRANCH  21  26
ATOM      7  O   UNL     1      14.357  11.879  17.020  0.00  0.00    -0.276 OA
ATOM     10  N   UNL     1      16.050  11.615  15.487  0.00  0.00    -0.329 N 
ATOM     26  C   UNL     1      14.898  11.223  16.135  0.00  0.00    +0.212 C 
ATOM     33  H   UNL     1      16.513  12.485  15.728  0.00  0.00    +0.145 HD
ATOM     34  H   UNL     1      16.478  11.057  14.755  0.00  0.00    +0.145 HD
ENDBRANCH  21  26
ENDBRANCH  20  21
ENDBRANCH   9  20
ENDBRANCH  15  17
BRANCH  12   8
ATOM      5  O   UNL     1      13.059  12.199  22.074  0.00  0.00    -0.270 OA
ATOM      8  N   UNL     1      11.302  10.703  21.852  0.00  0.00    -0.302 N 
ATOM     18  C   UNL     1      11.858  11.947  22.112  0.00  0.00    +0.246 C 
ATOM     29  H   UNL     1      10.298  10.580  21.957  0.00  0.00    +0.150 HD
BRANCH  18  19
ATOM      1 BR   UNL     1      11.384  12.361  25.253  0.00  0.00    -0.050 Br
ATOM     19  C   UNL     1      10.902  13.022  22.485  0.00  0.00    +0.054 A 
ATOM     22  C   UNL     1      10.304  13.747  21.455  0.00  0.00    +0.059 A 
ATOM     23  C   UNL     1      10.598  13.315  23.814  0.00  0.00    +0.030 A 
ATOM     24  C   UNL     1       9.401  14.767  21.753  0.00  0.00    +0.121 A 
ATOM     25  C   UNL     1       9.694  14.336  24.113  0.00  0.00    +0.019 A 
ATOM     27  C   UNL     1       9.095  15.061  23.082  0.00  0.00    +0.047 A 
BRANCH  24   6
ATOM      6  O   UNL     1       8.818  15.476  20.748  0.00  0.00    -0.495 OA
ATOM     28  C   UNL     1       7.407  15.341  20.593  0.00  0.00    +0.277 C 
ENDBRANCH  24   6
ENDBRANCH  18  19
ENDBRANCH  12   8
BRANCH  11   2
ATOM      2  O   UNL     1      10.171   8.186  22.053  0.00  0.00    -0.387 OA
ATOM     30  H   UNL     1       9.839   7.621  22.771  0.00  0.00    +0.210 HD
ENDBRANCH  11   2
BRANCH  13   3
ATOM      3  O   UNL     1      13.622   6.985  21.883  0.00  0.00    -0.389 OA
ATOM     31  H   UNL     1      14.019   6.283  21.341  0.00  0.00    +0.210 HD
ENDBRANCH  13   3
TORSDOF 9
ENDMDL
MODEL 4
REMARK VINA RESULT:      -6.2      3.655      5.239
REMARK  Name = 11865720
REMARK  10 active torsions:
REMARK  status: ('A' for Active; 'I' for Inactive)
REMARK    1  A    between atoms: O_2  and  C_11
REMARK    2  A    between atoms: O_3  and  C_13
REMARK    3  A    between atoms: O_6  and  C_24
REMARK    4  A    between atoms: O_6  and  C_28
REMARK    5  A    between atoms: N_8  and  C_12
REMARK    6  A    between atoms: N_9  and  C_20
REMARK    7  A    between atoms: C_15  and  C_17
REMARK    8  A    between atoms: C_18  and  C_19
REMARK    9  A    between atoms: C_20  and  C_21
REMARK   10  A    between atoms: C_21  and  C_26
REMARK                            x       y       z     vdW  Elec       q    Type
REMARK                         _______ _______ _______ _____ _____    ______ ____
ROOT
ATOM     11  C   UNL     1      14.052   6.589  20.705  0.00  0.00    +0.167 C 
ATOM     12  C   UNL     1      15.153   7.004  19.709  0.00  0.00    +0.128 C 
ATOM     13  C   UNL     1      12.662   7.015  20.214  0.00  0.00    +0.149 C 
ATOM     14  C   UNL     1      12.584   8.524  19.932  0.00  0.00    +0.074 C 
ATOM     15  C   UNL     1      13.830   9.078  19.300  0.00  0.00    +0.015 C 
ATOM     16  C   UNL     1      14.985   8.404  19.186  0.00  0.00    +0.006 C 
ENDROOT
BRANCH  15  17
ATOM      4  O   UNL     1      13.001  11.274  19.202  0.00  0.00    -0.271 OA
ATOM      9  N   UNL     1      14.678  10.632  17.716  0.00  0.00    -0.311 N 
ATOM     17  C   UNL     1      13.781  10.436  18.750  0.00  0.00    +0.240 C 
ATOM     32  H   UNL     1      15.287   9.872  17.426  0.00  0.00    +0.149 HD
BRANCH   9  20
ATOM     20  C   UNL     1      14.813  11.888  17.014  0.00  0.00    +0.113 C 
BRANCH  20  21
ATOM     21  C   UNL     1      14.503  11.755  15.530  0.00  0.00    +0.114 C 
BRANCH  21  26
ATOM      7  O   UNL     1      14.229   9.363  15.213  0.00  0.00    -0.276 OA
ATOM     10  N   UNL     1      15.958  10.434  14.139  0.00  0.00    -0.329 N 
ATOM     26  C   UNL     1      14.852  10.391  14.962  0.00  0.00    +0.212 C 
ATOM     33  H   UNL     1      16.307   9.593  13.692  0.00  0.00    +0.145 HD
ATOM     34  H   UNL     1      16.459  11.295  13.949  0.00  0.00    +0.145 HD
ENDBRANCH  21  26
ENDBRANCH  20  21
ENDBRANCH   9  20
ENDBRANCH  15  17
BRANCH  12   8
ATOM      5  O   UNL     1      17.444   5.764  18.504  0.00  0.00    -0.270 OA
ATOM      8  N   UNL     1      16.468   6.876  20.288  0.00  0.00    -0.302 N 
ATOM     18  C   UNL     1      17.518   6.258  19.625  0.00  0.00    +0.246 C 
ATOM     29  H   UNL     1      16.613   7.212  21.237  0.00  0.00    +0.150 HD
BRANCH  18  19
ATOM      1 BR   UNL     1      18.286   8.851  21.341  0.00  0.00    -0.050 Br
ATOM     19  C   UNL     1      18.802   6.184  20.369  0.00  0.00    +0.054 A 
ATOM     22  C   UNL     1      19.551   5.012  20.259  0.00  0.00    +0.059 A 
ATOM     23  C   UNL     1      19.265   7.237  21.157  0.00  0.00    +0.030 A 
ATOM     24  C   UNL     1      20.763   4.893  20.939  0.00  0.00    +0.121 A 
ATOM     25  C   UNL     1      20.478   7.118  21.837  0.00  0.00    +0.019 A 
ATOM     27  C   UNL     1      21.227   5.946  21.727  0.00  0.00    +0.047 A 
BRANCH  24   6
ATOM      6  O   UNL     1      21.493   3.749  20.833  0.00  0.00    -0.495 OA
ATOM     28  C   UNL     1      22.213   3.329  21.991  0.00  0.00    +0.277 C 
ENDBRANCH  24   6
ENDBRANCH  18  19
ENDBRANCH  12   8
BRANCH  11   2
ATOM      2  O   UNL     1      14.298   7.200  21.973  0.00  0.00    -0.387 OA
ATOM     30  H   UNL     1      15.126   6.828  22.321  0.00  0.00    +0.210 HD
ENDBRANCH  11   2
BRANCH  13   3
ATOM      3  O   UNL     1      12.307   6.279  19.045  0.00  0.00    -0.389 OA
ATOM     31  H   UNL     1      11.729   6.845  18.506  0.00  0.00    +0.210 HD
ENDBRANCH  13   3
TORSDOF 9
ENDMDL
MODEL 5
REMARK VINA RESULT:      -6.2     28.005     29.530
REMARK  Name = 11865720
REMARK  10 active torsions:
REMARK  status: ('A' for Active; 'I' for Inactive)
REMARK    1  A    between atoms: O_2  and  C_11
REMARK    2  A    between atoms: O_3  and  C_13
REMARK    3  A    between atoms: O_6  and  C_24
REMARK    4  A    between atoms: O_6  and  C_28
REMARK    5  A    between atoms: N_8  and  C_12
REMARK    6  A    between atoms: N_9  and  C_20
REMARK    7  A    between atoms: C_15  and  C_17
REMARK    8  A    between atoms: C_18  and  C_19
REMARK    9  A    between atoms: C_20  and  C_21
REMARK   10  A    between atoms: C_21  and  C_26
REMARK                            x       y       z     vdW  Elec       q    Type
REMARK                         _______ _______ _______ _____ _____    ______ ____
ROOT
ATOM     11  C   UNL     1      -3.906 -11.105  16.474  0.00  0.00    +0.167 C 
ATOM     12  C   UNL     1      -5.145 -11.307  15.579  0.00  0.00    +0.128 C 
ATOM     13  C   UNL     1      -4.155 -11.613  17.900  0.00  0.00    +0.149 C 
ATOM     14  C   UNL     1      -5.390 -10.958  18.541  0.00  0.00    +0.074 C 
ATOM     15  C   UNL     1      -6.528 -10.762  17.581  0.00  0.00    +0.015 C 
ATOM     16  C   UNL     1      -6.434 -10.924  16.252  0.00  0.00    +0.006 C 
ENDROOT
BRANCH  15  17
ATOM      4  O   UNL     1      -8.173 -10.741  19.258  0.00  0.00    -0.271 OA
ATOM      9  N   UNL     1      -8.596  -9.641  17.246  0.00  0.00    -0.311 N 
ATOM     17  C   UNL     1      -7.837 -10.391  18.126  0.00  0.00    +0.240 C 
ATOM     32  H   UNL     1      -8.218  -9.399  16.335  0.00  0.00    +0.149 HD
BRANCH   9  20
ATOM     20  C   UNL     1      -9.923  -9.160  17.558  0.00  0.00    +0.113 C 
BRANCH  20  21
ATOM     21  C   UNL     1     -10.067  -7.666  17.308  0.00  0.00    +0.114 C 
BRANCH  21  26
ATOM      7  O   UNL     1     -10.042  -8.121  14.923  0.00  0.00    -0.276 OA
ATOM     10  N   UNL     1     -10.367  -5.959  15.636  0.00  0.00    -0.329 N 
ATOM     26  C   UNL     1     -10.156  -7.307  15.835  0.00  0.00    +0.212 C 
ATOM     33  H   UNL     1     -10.444  -5.576  14.700  0.00  0.00    +0.145 HD
ATOM     34  H   UNL     1     -10.454  -5.304  16.407  0.00  0.00    +0.145 HD
ENDBRANCH  21  26
ENDBRANCH  20  21
ENDBRANCH   9  20
ENDBRANCH  15  17
BRANCH  12   8
ATOM      5  O   UNL     1      -5.162 -12.412  12.929  0.00  0.00    -0.270 OA
ATOM      8  N   UNL     1      -5.030 -10.577  14.340  0.00  0.00    -0.302 N 
ATOM     18  C   UNL     1      -5.049 -11.201  13.101  0.00  0.00    +0.246 C 
ATOM     29  H   UNL     1      -4.883  -9.572  14.383  0.00  0.00    +0.150 HD
BRANCH  18  19
ATOM      1 BR   UNL     1      -2.045 -10.744  12.087  0.00  0.00    -0.050 Br
ATOM     19  C   UNL     1      -4.893 -10.311  11.922  0.00  0.00    +0.054 A 
ATOM     22  C   UNL     1      -6.047  -9.761  11.365  0.00  0.00    +0.059 A 
ATOM     23  C   UNL     1      -3.646 -10.021  11.371  0.00  0.00    +0.030 A 
ATOM     24  C   UNL     1      -5.955  -8.920  10.257  0.00  0.00    +0.121 A 
ATOM     25  C   UNL     1      -3.552  -9.180  10.261  0.00  0.00    +0.019 A 
ATOM     27  C   UNL     1      -4.707  -8.629   9.704  0.00  0.00    +0.047 A 
BRANCH  24   6
ATOM      6  O   UNL     1      -7.081  -8.384   9.713  0.00  0.00    -0.495 OA
ATOM     28  C   UNL     1      -8.309  -9.069   9.953  0.00  0.00    +0.277 C 
ENDBRANCH  24   6
ENDBRANCH  18  19
ENDBRANCH  12   8
BRANCH  11   2
ATOM      2  O   UNL     1      -3.580  -9.714  16.532  0.00  0.00    -0.387 OA
ATOM     30  H   UNL     1      -2.720  -9.635  16.980  0.00  0.00    +0.210 HD
ENDBRANCH  11   2
BRANCH  13   3
ATOM      3  O   UNL     1      -4.300 -13.031  17.897  0.00  0.00    -0.389 OA
ATOM     31  H   UNL     1      -4.848 -13.270  17.131  0.00  0.00    +0.210 HD
ENDBRANCH  13   3
TORSDOF 9
ENDMDL
MODEL 6
REMARK VINA RESULT:      -6.1     16.844     18.814
REMARK  Name = 11865720
REMARK  10 active torsions:
REMARK  status: ('A' for Active; 'I' for Inactive)
REMARK    1  A    between atoms: O_2  and  C_11
REMARK    2  A    between atoms: O_3  and  C_13
REMARK    3  A    between atoms: O_6  and  C_24
REMARK    4  A    between atoms: O_6  and  C_28
REMARK    5  A    between atoms: N_8  and  C_12
REMARK    6  A    between atoms: N_9  and  C_20
REMARK    7  A    between atoms: C_15  and  C_17
REMARK    8  A    between atoms: C_18  and  C_19
REMARK    9  A    between atoms: C_20  and  C_21
REMARK   10  A    between atoms: C_21  and  C_26
REMARK                            x       y       z     vdW  Elec       q    Type
REMARK                         _______ _______ _______ _____ _____    ______ ____
ROOT
ATOM     11  C   UNL     1      15.062   4.275   1.333  0.00  0.00    +0.167 C 
ATOM     12  C   UNL     1      14.522   5.618   1.862  0.00  0.00    +0.128 C 
ATOM     13  C   UNL     1      13.996   3.518   0.530  0.00  0.00    +0.149 C 
ATOM     14  C   UNL     1      12.711   3.293   1.344  0.00  0.00    +0.074 C 
ATOM     15  C   UNL     1      12.340   4.463   2.210  0.00  0.00    +0.015 C 
ATOM     16  C   UNL     1      13.139   5.515   2.443  0.00  0.00    +0.006 C 
ENDROOT
BRANCH  15  17
ATOM      4  O   UNL     1       9.995   4.334   2.145  0.00  0.00    -0.271 OA
ATOM      9  N   UNL     1      11.053   4.648   4.199  0.00  0.00    -0.311 N 
ATOM     17  C   UNL     1      11.011   4.472   2.827  0.00  0.00    +0.240 C 
ATOM     32  H   UNL     1      11.950   4.743   4.667  0.00  0.00    +0.149 HD
BRANCH   9  20
ATOM     20  C   UNL     1       9.869   4.694   5.026  0.00  0.00    +0.113 C 
BRANCH  20  21
ATOM     21  C   UNL     1       9.984   5.727   6.138  0.00  0.00    +0.114 C 
BRANCH  21  26
ATOM      7  O   UNL     1       9.361   5.779   8.485  0.00  0.00    -0.276 OA
ATOM     10  N   UNL     1      10.152   3.814   7.591  0.00  0.00    -0.329 N 
ATOM     26  C   UNL     1       9.786   5.142   7.526  0.00  0.00    +0.212 C 
ATOM     33  H   UNL     1      10.076   3.295   8.459  0.00  0.00    +0.145 HD
ATOM     34  H   UNL     1      10.504   3.308   6.785  0.00  0.00    +0.145 HD
ENDBRANCH  21  26
ENDBRANCH  20  21
ENDBRANCH   9  20
ENDBRANCH  15  17
BRANCH  12   8
ATOM      5  O   UNL     1      15.194   8.394   2.153  0.00  0.00    -0.270 OA
ATOM      8  N   UNL     1      15.403   6.193   2.849  0.00  0.00    -0.302 N 
ATOM     18  C   UNL     1      15.667   7.553   2.912  0.00  0.00    +0.246 C 
ATOM     29  H   UNL     1      15.882   5.568   3.492  0.00  0.00    +0.150 HD
BRANCH  18  19
ATOM      1 BR   UNL     1      14.353   8.348   5.722  0.00  0.00    -0.050 Br
ATOM     19  C   UNL     1      16.617   7.983   3.971  0.00  0.00    +0.054 A 
ATOM     22  C   UNL     1      17.975   8.002   3.657  0.00  0.00    +0.059 A 
ATOM     23  C   UNL     1      16.189   8.358   5.243  0.00  0.00    +0.030 A 
ATOM     24  C   UNL     1      18.907   8.397   4.617  0.00  0.00    +0.121 A 
ATOM     25  C   UNL     1      17.121   8.753   6.204  0.00  0.00    +0.019 A 
ATOM     27  C   UNL     1      18.480   8.772   5.891  0.00  0.00    +0.047 A 
BRANCH  24   6
ATOM      6  O   UNL     1      20.233   8.415   4.312  0.00  0.00    -0.495 OA
ATOM     28  C   UNL     1      20.854   7.160   4.038  0.00  0.00    +0.277 C 
ENDBRANCH  24   6
ENDBRANCH  18  19
ENDBRANCH  12   8
BRANCH  11   2
ATOM      2  O   UNL     1      15.476   3.459   2.431  0.00  0.00    -0.387 OA
ATOM     30  H   UNL     1      14.686   3.265   2.964  0.00  0.00    +0.210 HD
ENDBRANCH  11   2
BRANCH  13   3
ATOM      3  O   UNL     1      13.697   4.221  -0.674  0.00  0.00    -0.389 OA
ATOM     31  H   UNL     1      13.675   5.169  -0.463  0.00  0.00    +0.210 HD
ENDBRANCH  13   3
TORSDOF 9
ENDMDL
MODEL 7
REMARK VINA RESULT:      -5.9      4.251      8.537
REMARK  Name = 11865720
REMARK  10 active torsions:
REMARK  status: ('A' for Active; 'I' for Inactive)
REMARK    1  A    between atoms: O_2  and  C_11
REMARK    2  A    between atoms: O_3  and  C_13
REMARK    3  A    between atoms: O_6  and  C_24
REMARK    4  A    between atoms: O_6  and  C_28
REMARK    5  A    between atoms: N_8  and  C_12
REMARK    6  A    between atoms: N_9  and  C_20
REMARK    7  A    between atoms: C_15  and  C_17
REMARK    8  A    between atoms: C_18  and  C_19
REMARK    9  A    between atoms: C_20  and  C_21
REMARK   10  A    between atoms: C_21  and  C_26
REMARK                            x       y       z     vdW  Elec       q    Type
REMARK                         _______ _______ _______ _____ _____    ______ ____
ROOT
ATOM     11  C   UNL     1      11.944   8.192  20.054  0.00  0.00    +0.167 C 
ATOM     12  C   UNL     1      12.780   9.480  19.919  0.00  0.00    +0.128 C 
ATOM     13  C   UNL     1      12.521   7.056  19.199  0.00  0.00    +0.149 C 
ATOM     14  C   UNL     1      12.652   7.454  17.720  0.00  0.00    +0.074 C 
ATOM     15  C   UNL     1      13.100   8.874  17.521  0.00  0.00    +0.015 C 
ATOM     16  C   UNL     1      13.170   9.790  18.500  0.00  0.00    +0.006 C 
ENDROOT
BRANCH  15  17
ATOM      4  O   UNL     1      13.708   8.457  15.290  0.00  0.00    -0.271 OA
ATOM      9  N   UNL     1      13.632  10.661  16.047  0.00  0.00    -0.311 N 
ATOM     17  C   UNL     1      13.509   9.289  16.176  0.00  0.00    +0.240 C 
ATOM     32  H   UNL     1      13.433  11.261  16.843  0.00  0.00    +0.149 HD
BRANCH   9  20
ATOM     20  C   UNL     1      14.026  11.307  14.816  0.00  0.00    +0.113 C 
BRANCH  20  21
ATOM     21  C   UNL     1      15.538  11.410  14.678  0.00  0.00    +0.114 C 
BRANCH  21  26
ATOM      7  O   UNL     1      16.385  13.270  13.366  0.00  0.00    -0.276 OA
ATOM     10  N   UNL     1      15.863  11.304  12.294  0.00  0.00    -0.329 N 
ATOM     26  C   UNL     1      15.980  12.112  13.406  0.00  0.00    +0.212 C 
ATOM     33  H   UNL     1      16.119  11.644  11.374  0.00  0.00    +0.145 HD
ATOM     34  H   UNL     1      15.522  10.350  12.351  0.00  0.00    +0.145 HD
ENDBRANCH  21  26
ENDBRANCH  20  21
ENDBRANCH   9  20
ENDBRANCH  15  17
BRANCH  12   8
ATOM      5  O   UNL     1      13.954  11.629  21.417  0.00  0.00    -0.270 OA
ATOM      8  N   UNL     1      12.092  10.620  20.474  0.00  0.00    -0.302 N 
ATOM     18  C   UNL     1      12.748  11.613  21.186  0.00  0.00    +0.246 C 
ATOM     29  H   UNL     1      11.081  10.669  20.377  0.00  0.00    +0.150 HD
BRANCH  18  19
ATOM      1 BR   UNL     1      12.533  14.227  19.347  0.00  0.00    -0.050 Br
ATOM     19  C   UNL     1      11.893  12.707  21.715  0.00  0.00    +0.054 A 
ATOM     22  C   UNL     1      11.266  12.506  22.945  0.00  0.00    +0.059 A 
ATOM     23  C   UNL     1      11.706  13.903  21.024  0.00  0.00    +0.030 A 
ATOM     24  C   UNL     1      10.452  13.502  23.483  0.00  0.00    +0.121 A 
ATOM     25  C   UNL     1      10.891  14.900  21.562  0.00  0.00    +0.019 A 
ATOM     27  C   UNL     1      10.264  14.699  22.793  0.00  0.00    +0.047 A 
BRANCH  24   6
ATOM      6  O   UNL     1       9.840  13.306  24.683  0.00  0.00    -0.495 OA
ATOM     28  C   UNL     1      10.568  13.678  25.852  0.00  0.00    +0.277 C 
ENDBRANCH  24   6
ENDBRANCH  18  19
ENDBRANCH  12   8
BRANCH  11   2
ATOM      2  O   UNL     1      10.602   8.446  19.635  0.00  0.00    -0.387 OA
ATOM     30  H   UNL     1      10.309   9.265  20.070  0.00  0.00    +0.210 HD
ENDBRANCH  11   2
BRANCH  13   3
ATOM      3  O   UNL     1      13.789   6.651  19.711  0.00  0.00    -0.389 OA
ATOM     31  H   UNL     1      14.469   6.954  19.086  0.00  0.00    +0.210 HD
ENDBRANCH  13   3
TORSDOF 9
ENDMDL
MODEL 8
REMARK VINA RESULT:      -5.9     19.170     21.012
REMARK  Name = 11865720
REMARK  10 active torsions:
REMARK  status: ('A' for Active; 'I' for Inactive)
REMARK    1  A    between atoms: O_2  and  C_11
REMARK    2  A    between atoms: O_3  and  C_13
REMARK    3  A    between atoms: O_6  and  C_24
REMARK    4  A    between atoms: O_6  and  C_28
REMARK    5  A    between atoms: N_8  and  C_12
REMARK    6  A    between atoms: N_9  and  C_20
REMARK    7  A    between atoms: C_15  and  C_17
REMARK    8  A    between atoms: C_18  and  C_19
REMARK    9  A    between atoms: C_20  and  C_21
REMARK   10  A    between atoms: C_21  and  C_26
REMARK                            x       y       z     vdW  Elec       q    Type
REMARK                         _______ _______ _______ _____ _____    ______ ____
ROOT
ATOM     11  C   UNL     1      13.432   6.929   2.098  0.00  0.00    +0.167 C 
ATOM     12  C   UNL     1      12.995   5.451   2.102  0.00  0.00    +0.128 C 
ATOM     13  C   UNL     1      13.471   7.507   3.519  0.00  0.00    +0.149 C 
ATOM     14  C   UNL     1      12.124   7.350   4.245  0.00  0.00    +0.074 C 
ATOM     15  C   UNL     1      11.442   6.042   3.961  0.00  0.00    +0.015 C 
ATOM     16  C   UNL     1      11.827   5.178   3.009  0.00  0.00    +0.006 C 
ENDROOT
BRANCH  15  17
ATOM      4  O   UNL     1       9.732   4.581   4.641  0.00  0.00    -0.271 OA
ATOM      9  N   UNL     1       9.942   6.647   5.701  0.00  0.00    -0.311 N 
ATOM     17  C   UNL     1      10.291   5.668   4.788  0.00  0.00    +0.240 C 
ATOM     32  H   UNL     1      10.479   7.508   5.747  0.00  0.00    +0.149 HD
BRANCH   9  20
ATOM     20  C   UNL     1       8.839   6.508   6.625  0.00  0.00    +0.113 C 
BRANCH  20  21
ATOM     21  C   UNL     1       9.309   6.302   8.057  0.00  0.00    +0.114 C 
BRANCH  21  26
ATOM      7  O   UNL     1      11.687   5.824   8.162  0.00  0.00    -0.276 OA
ATOM     10  N   UNL     1      10.199   4.074   8.260  0.00  0.00    -0.329 N 
ATOM     26  C   UNL     1      10.533   5.409   8.167  0.00  0.00    +0.212 C 
ATOM     33  H   UNL     1      10.917   3.362   8.335  0.00  0.00    +0.145 HD
ATOM     34  H   UNL     1       9.236   3.754   8.258  0.00  0.00    +0.145 HD
ENDBRANCH  21  26
ENDBRANCH  20  21
ENDBRANCH   9  20
ENDBRANCH  15  17
BRANCH  12   8
ATOM      5  O   UNL     1      14.377   3.427   0.607  0.00  0.00    -0.270 OA
ATOM      8  N   UNL     1      12.673   4.989   0.774  0.00  0.00    -0.302 N 
ATOM     18  C   UNL     1      13.403   4.001   0.130  0.00  0.00    +0.246 C 
ATOM     29  H   UNL     1      11.910   5.441   0.277  0.00  0.00    +0.150 HD
BRANCH  18  19
ATOM      1 BR   UNL     1      15.304   5.009  -2.242  0.00  0.00    -0.050 Br
ATOM     19  C   UNL     1      12.959   3.656  -1.246  0.00  0.00    +0.054 A 
ATOM     22  C   UNL     1      11.773   2.935  -1.385  0.00  0.00    +0.059 A 
ATOM     23  C   UNL     1      13.685   4.029  -2.375  0.00  0.00    +0.030 A 
ATOM     24  C   UNL     1      11.314   2.586  -2.655  0.00  0.00    +0.121 A 
ATOM     25  C   UNL     1      13.227   3.681  -3.647  0.00  0.00    +0.019 A 
ATOM     27  C   UNL     1      12.041   2.959  -3.786  0.00  0.00    +0.047 A 
BRANCH  24   6
ATOM      6  O   UNL     1      10.158   1.881  -2.791  0.00  0.00    -0.495 OA
ATOM     28  C   UNL     1       9.342   2.185  -3.921  0.00  0.00    +0.277 C 
ENDBRANCH  24   6
ENDBRANCH  18  19
ENDBRANCH  12   8
BRANCH  11   2
ATOM      2  O   UNL     1      12.515   7.698   1.316  0.00  0.00    -0.387 OA
ATOM     30  H   UNL     1      12.357   8.534   1.787  0.00  0.00    +0.210 HD
ENDBRANCH  11   2
BRANCH  13   3
ATOM      3  O   UNL     1      14.509   6.885   4.273  0.00  0.00    -0.389 OA
ATOM     31  H   UNL     1      14.267   5.951   4.391  0.00  0.00    +0.210 HD
ENDBRANCH  13   3
TORSDOF 9
ENDMDL
MODEL 9
REMARK VINA RESULT:      -5.9     27.955     29.686
REMARK  Name = 11865720
REMARK  10 active torsions:
REMARK  status: ('A' for Active; 'I' for Inactive)
REMARK    1  A    between atoms: O_2  and  C_11
REMARK    2  A    between atoms: O_3  and  C_13
REMARK    3  A    between atoms: O_6  and  C_24
REMARK    4  A    between atoms: O_6  and  C_28
REMARK    5  A    between atoms: N_8  and  C_12
REMARK    6  A    between atoms: N_9  and  C_20
REMARK    7  A    between atoms: C_15  and  C_17
REMARK    8  A    between atoms: C_18  and  C_19
REMARK    9  A    between atoms: C_20  and  C_21
REMARK   10  A    between atoms: C_21  and  C_26
REMARK                            x       y       z     vdW  Elec       q    Type
REMARK                         _______ _______ _______ _____ _____    ______ ____
ROOT
ATOM     11  C   UNL     1      -3.351 -13.387  13.900  0.00  0.00    +0.167 C 
ATOM     12  C   UNL     1      -3.236 -11.969  14.492  0.00  0.00    +0.128 C 
ATOM     13  C   UNL     1      -2.502 -13.536  12.631  0.00  0.00    +0.149 C 
ATOM     14  C   UNL     1      -2.859 -12.484  11.568  0.00  0.00    +0.074 C 
ATOM     15  C   UNL     1      -3.154 -11.129  12.145  0.00  0.00    +0.015 C 
ATOM     16  C   UNL     1      -3.316 -10.882  13.454  0.00  0.00    +0.006 C 
ENDROOT
BRANCH  15  17
ATOM      4  O   UNL     1      -2.251  -9.550  10.658  0.00  0.00    -0.271 OA
ATOM      9  N   UNL     1      -4.542  -9.512  11.093  0.00  0.00    -0.311 N 
ATOM     17  C   UNL     1      -3.251  -9.991  11.226  0.00  0.00    +0.240 C 
ATOM     32  H   UNL     1      -5.299  -9.958  11.603  0.00  0.00    +0.149 HD
BRANCH   9  20
ATOM     20  C   UNL     1      -4.887  -8.395  10.244  0.00  0.00    +0.113 C 
BRANCH  20  21
ATOM     21  C   UNL     1      -5.977  -8.748   9.243  0.00  0.00    +0.114 C 
BRANCH  21  26
ATOM      7  O   UNL     1      -4.641 -10.472   8.178  0.00  0.00    -0.276 OA
ATOM     10  N   UNL     1      -6.063  -9.213   6.882  0.00  0.00    -0.329 N 
ATOM     26  C   UNL     1      -5.478  -9.581   8.076  0.00  0.00    +0.212 C 
ATOM     33  H   UNL     1      -5.821  -9.683   6.017  0.00  0.00    +0.145 HD
ATOM     34  H   UNL     1      -6.751  -8.470   6.822  0.00  0.00    +0.145 HD
ENDBRANCH  21  26
ENDBRANCH  20  21
ENDBRANCH   9  20
ENDBRANCH  15  17
BRANCH  12   8
ATOM      5  O   UNL     1      -3.015 -10.219  16.757  0.00  0.00    -0.270 OA
ATOM      8  N   UNL     1      -4.242 -11.729  15.498  0.00  0.00    -0.302 N 
ATOM     18  C   UNL     1      -4.043 -10.861  16.561  0.00  0.00    +0.246 C 
ATOM     29  H   UNL     1      -5.111 -12.255  15.447  0.00  0.00    +0.150 HD
BRANCH  18  19
ATOM      1 BR   UNL     1      -3.592 -12.271  19.402  0.00  0.00    -0.050 Br
ATOM     19  C   UNL     1      -5.167 -10.746  17.525  0.00  0.00    +0.054 A 
ATOM     22  C   UNL     1      -6.302 -10.044  17.120  0.00  0.00    +0.059 A 
ATOM     23  C   UNL     1      -5.113 -11.309  18.799  0.00  0.00    +0.030 A 
ATOM     24  C   UNL     1      -7.384  -9.906  17.989  0.00  0.00    +0.121 A 
ATOM     25  C   UNL     1      -6.195 -11.172  19.670  0.00  0.00    +0.019 A 
ATOM     27  C   UNL     1      -7.331 -10.470  19.264  0.00  0.00    +0.047 A 
BRANCH  24   6
ATOM      6  O   UNL     1      -8.492  -9.221  17.594  0.00  0.00    -0.495 OA
ATOM     28  C   UNL     1      -8.843  -9.295  16.213  0.00  0.00    +0.277 C 
ENDBRANCH  24   6
ENDBRANCH  18  19
ENDBRANCH  12   8
BRANCH  11   2
ATOM      2  O   UNL     1      -4.716 -13.661  13.574  0.00  0.00    -0.387 OA
ATOM     30  H   UNL     1      -5.036 -14.333  14.200  0.00  0.00    +0.210 HD
ENDBRANCH  11   2
BRANCH  13   3
ATOM      3  O   UNL     1      -1.116 -13.454  12.955  0.00  0.00    -0.389 OA
ATOM     31  H   UNL     1      -0.800 -12.578  12.674  0.00  0.00    +0.210 HD
ENDBRANCH  13   3
TORSDOF 9
ENDMDL
MODEL 10
REMARK VINA RESULT:      -5.8     28.150     29.635
REMARK  Name = 11865720
REMARK  10 active torsions:
REMARK  status: ('A' for Active; 'I' for Inactive)
REMARK    1  A    between atoms: O_2  and  C_11
REMARK    2  A    between atoms: O_3  and  C_13
REMARK    3  A    between atoms: O_6  and  C_24
REMARK    4  A    between atoms: O_6  and  C_28
REMARK    5  A    between atoms: N_8  and  C_12
REMARK    6  A    between atoms: N_9  and  C_20
REMARK    7  A    between atoms: C_15  and  C_17
REMARK    8  A    between atoms: C_18  and  C_19
REMARK    9  A    between atoms: C_20  and  C_21
REMARK   10  A    between atoms: C_21  and  C_26
REMARK                            x       y       z     vdW  Elec       q    Type
REMARK                         _______ _______ _______ _____ _____    ______ ____
ROOT
ATOM     11  C   UNL     1      -4.975 -10.740  16.403  0.00  0.00    +0.167 C 
ATOM     12  C   UNL     1      -6.063 -10.794  15.313  0.00  0.00    +0.128 C 
ATOM     13  C   UNL     1      -5.551 -11.065  17.788  0.00  0.00    +0.149 C 
ATOM     14  C   UNL     1      -6.725 -10.143  18.158  0.00  0.00    +0.074 C 
ATOM     15  C   UNL     1      -7.628  -9.832  16.999  0.00  0.00    +0.015 C 
ATOM     16  C   UNL     1      -7.348 -10.126  15.720  0.00  0.00    +0.006 C 
ENDROOT
BRANCH  15  17
ATOM      4  O   UNL     1      -9.666  -9.619  18.148  0.00  0.00    -0.271 OA
ATOM      9  N   UNL     1      -9.146  -8.080  16.477  0.00  0.00    -0.311 N 
ATOM     17  C   UNL     1      -8.912  -9.183  17.278  0.00  0.00    +0.240 C 
ATOM     32  H   UNL     1      -8.450  -7.798  15.793  0.00  0.00    +0.149 HD
BRANCH   9  20
ATOM     20  C   UNL     1     -10.346  -7.279  16.565  0.00  0.00    +0.113 C 
BRANCH  20  21
ATOM     21  C   UNL     1     -10.436  -6.252  15.446  0.00  0.00    +0.114 C 
BRANCH  21  26
ATOM      7  O   UNL     1     -12.163  -5.131  14.158  0.00  0.00    -0.276 OA
ATOM     10  N   UNL     1     -12.786  -6.472  15.918  0.00  0.00    -0.329 N 
ATOM     26  C   UNL     1     -11.863  -5.880  15.082  0.00  0.00    +0.212 C 
ATOM     33  H   UNL     1     -13.780  -6.310  15.795  0.00  0.00    +0.145 HD
ATOM     34  H   UNL     1     -12.514  -7.086  16.679  0.00  0.00    +0.145 HD
ENDBRANCH  21  26
ENDBRANCH  20  21
ENDBRANCH   9  20
ENDBRANCH  15  17
BRANCH  12   8
ATOM      5  O   UNL     1      -5.460 -12.190  12.877  0.00  0.00    -0.270 OA
ATOM      8  N   UNL     1      -5.605 -10.211  14.075  0.00  0.00    -0.302 N 
ATOM     18  C   UNL     1      -5.339 -10.970  12.946  0.00  0.00    +0.246 C 
ATOM     29  H   UNL     1      -5.427  -9.210  14.050  0.00  0.00    +0.150 HD
BRANCH  18  19
ATOM      1 BR   UNL     1      -2.161 -10.914  12.549  0.00  0.00    -0.050 Br
ATOM     19  C   UNL     1      -4.849 -10.221  11.760  0.00  0.00    +0.054 A 
ATOM     22  C   UNL     1      -5.797  -9.618  10.934  0.00  0.00    +0.059 A 
ATOM     23  C   UNL     1      -3.491 -10.112  11.460  0.00  0.00    +0.030 A 
ATOM     24  C   UNL     1      -5.388  -8.905   9.807  0.00  0.00    +0.121 A 
ATOM     25  C   UNL     1      -3.081  -9.398  10.333  0.00  0.00    +0.019 A 
ATOM     27  C   UNL     1      -4.030  -8.795   9.507  0.00  0.00    +0.047 A 
BRANCH  24   6
ATOM      6  O   UNL     1      -6.313  -8.317   9.001  0.00  0.00    -0.495 OA
ATOM     28  C   UNL     1      -7.682  -8.445   9.382  0.00  0.00    +0.277 C 
ENDBRANCH  24   6
ENDBRANCH  18  19
ENDBRANCH  12   8
BRANCH  11   2
ATOM      2  O   UNL     1      -4.400  -9.432  16.441  0.00  0.00    -0.387 OA
ATOM     30  H   UNL     1      -3.690  -9.444  17.106  0.00  0.00    +0.210 HD
ENDBRANCH  11   2
BRANCH  13   3
ATOM      3  O   UNL     1      -5.966 -12.429  17.839  0.00  0.00    -0.389 OA
ATOM     31  H   UNL     1      -6.912 -12.440  18.059  0.00  0.00    +0.210 HD
ENDBRANCH  13   3
TORSDOF 9
ENDMDL
