REMARK  Name = 56775604
REMARK  7 active torsions:
REMARK  status: ('A' for Active; 'I' for Inactive)
REMARK    1  A    between atoms: O_3  and  C_20
REMARK    2  A    between atoms: N_4  and  C_7
REMARK    3  A    between atoms: N_4  and  C_8
REMARK    4  A    between atoms: N_5  and  C_17
REMARK    5  A    between atoms: C_7  and  C_11
REMARK    6  A    between atoms: C_11  and  C_16
REMARK    7  A    between atoms: C_19  and  C_20
REMARK                            x       y       z     vdW  Elec       q    Type
REMARK                         _______ _______ _______ _____ _____    ______ ____
ROOT
ATOM      1  O   UNL     1      -0.838   2.577   1.029  0.00  0.00    -0.376 OA
ATOM      7  C   UNL     1      -0.021   1.002  -0.156  0.00  0.00    +0.072 C 
ATOM      9  C   UNL     1      -0.986   2.166  -0.349  0.00  0.00    +0.184 C 
ATOM     10  C   UNL     1       0.009   1.438   1.304  0.00  0.00    +0.184 C 
ENDROOT
BRANCH   7   4
ATOM      4  N   UNL     1       1.262   1.344  -0.778  0.00  0.00    -0.304 NA
ATOM     21  H   UNL     1       1.177   1.517  -1.780  0.00  0.00    +0.123 HD
BRANCH   4   8
ATOM      5  N   UNL     1       4.903  -0.643   0.149  0.00  0.00    -0.305 NA
ATOM      8  C   UNL     1       2.210   0.253  -0.565  0.00  0.00    +0.057 C 
ATOM     12  C   UNL     1       3.389   0.352  -1.537  0.00  0.00    +0.034 C 
ATOM     13  C   UNL     1       2.721   0.270   0.878  0.00  0.00    +0.034 C 
ATOM     14  C   UNL     1       4.436  -0.725  -1.242  0.00  0.00    +0.085 C 
ATOM     15  C   UNL     1       3.790  -0.805   1.095  0.00  0.00    +0.085 C 
ATOM     17  C   UNL     1       5.938  -1.645   0.401  0.00  0.00    +0.104 C 
ENDBRANCH   4   8
ENDBRANCH   7   4
BRANCH   7  11
ATOM     11  C   UNL     1      -0.480  -0.384  -0.491  0.00  0.00    +0.085 C 
BRANCH  11  16
ATOM      2  O   UNL     1      -3.555  -1.137   1.250  0.00  0.00    -0.357 OA
ATOM      6  N   UNL     1      -2.169  -1.065   1.175  0.00  0.00    -0.083 NA
ATOM     16  C   UNL     1      -1.913  -0.598  -0.050  0.00  0.00    +0.086 A 
ATOM     18  C   UNL     1      -3.086  -0.360  -0.786  0.00  0.00    +0.073 A 
ATOM     19  C   UNL     1      -4.090  -0.715   0.076  0.00  0.00    +0.163 A 
BRANCH  19  20
ATOM     20  C   UNL     1      -5.554  -0.727  -0.019  0.00  0.00    +0.232 C 
BRANCH  20   3
ATOM      3  O   UNL     1      -5.965  -0.597  -1.383  0.00  0.00    -0.387 OA
ATOM     22  H   UNL     1      -6.937  -0.607  -1.388  0.00  0.00    +0.210 HD
ENDBRANCH  20   3
ENDBRANCH  19  20
ENDBRANCH  11  16
ENDBRANCH   7  11
TORSDOF 6
