MODEL 1
REMARK VINA RESULT:      -7.1      0.000      0.000
REMARK  Name = 71693199
REMARK  15 active torsions:
REMARK  status: ('A' for Active; 'I' for Inactive)
REMARK    1  A    between atoms: O_2  and  C_28
REMARK    2  A    between atoms: O_4  and  C_34
REMARK    3  A    between atoms: O_4  and  C_36
REMARK    4  A    between atoms: N_5  and  C_20
REMARK    5  A    between atoms: C_8  and  C_17
REMARK    6  A    between atoms: C_8  and  C_19
REMARK    7  A    between atoms: C_9  and  C_18
REMARK    8  A    between atoms: C_10  and  C_20
REMARK    9  A    between atoms: C_14  and  C_23
REMARK   10  A    between atoms: C_17  and  C_24
REMARK   11  A    between atoms: C_18  and  C_25
REMARK   12  A    between atoms: C_18  and  C_26
REMARK   13  A    between atoms: C_19  and  C_28
REMARK   14  A    between atoms: C_21  and  C_27
REMARK   15  A    between atoms: C_23  and  C_29
REMARK                            x       y       z     vdW  Elec       q    Type
REMARK                         _______ _______ _______ _____ _____    ______ ____
ROOT
ATOM      9  C   UNL     1     -12.008  -9.687  18.512  0.00  0.00    +0.000 C 
ATOM     10  C   UNL     1     -10.756 -10.577  18.316  0.00  0.00    +0.032 C 
ATOM     13  C   UNL     1     -12.681  -9.401  17.161  0.00  0.00    +0.012 C 
ATOM     14  C   UNL     1     -11.731  -8.694  16.177  0.00  0.00    +0.022 C 
ATOM     21  C   UNL     1     -10.371  -9.362  16.128  0.00  0.00    -0.073 C 
ATOM     22  C   UNL     1      -9.958 -10.211  17.085  0.00  0.00    -0.022 C 
ATOM     27  C   UNL     1      -9.515  -9.068  14.928  0.00  0.00    +0.039 C 
ENDROOT
BRANCH   9  18
ATOM     18  C   UNL     1     -13.018 -10.330  19.469  0.00  0.00    -0.013 C 
ATOM     25  C   UNL     1     -14.415 -10.312  18.856  0.00  0.00    +0.007 C 
ATOM     26  C   UNL     1     -13.008  -9.612  20.814  0.00  0.00    +0.007 C 
ENDBRANCH   9  18
BRANCH  10  20
ATOM     20  C   UNL     1      -9.844 -10.530  19.547  0.00  0.00    +0.112 C 
BRANCH  20   5
ATOM      1  O   UNL     1      -7.503 -12.121  20.151  0.00  0.00    -0.276 OA
ATOM      5  N   UNL     1      -8.493 -10.259  19.169  0.00  0.00    -0.315 N 
ATOM     24  C   UNL     1      -7.416 -11.082  19.502  0.00  0.00    +0.214 C 
ATOM     37  H   UNL     1      -8.315  -9.451  18.578  0.00  0.00    +0.149 HD
BRANCH  24  17
ATOM     17  C   UNL     1      -6.101 -10.547  18.965  0.00  0.00    +0.103 C 
BRANCH  17   8
ATOM      8  C   UNL     1      -5.636 -11.286  17.703  0.00  0.00    -0.011 C 
ATOM     11  C   UNL     1      -4.804 -10.348  16.796  0.00  0.00    +0.008 C 
ATOM     12  C   UNL     1      -6.853 -11.704  16.844  0.00  0.00    +0.008 C 
ATOM     15  C   UNL     1      -5.746  -9.945  15.671  0.00  0.00    +0.001 C 
ATOM     16  C   UNL     1      -6.554 -11.206  15.435  0.00  0.00    +0.001 C 
BRANCH   8  19
ATOM     19  C   UNL     1      -4.807 -12.508  18.114  0.00  0.00    +0.127 C 
BRANCH  19  28
ATOM      3  O   UNL     1      -3.593 -12.237  20.211  0.00  0.00    -0.251 OA
ATOM     28  C   UNL     1      -3.658 -12.118  18.996  0.00  0.00    +0.305 C 
BRANCH  28   2
ATOM      2  O   UNL     1      -2.662 -11.594  18.235  0.00  0.00    -0.481 OA
ATOM     39  H   UNL     1      -2.823 -10.651  18.020  0.00  0.00    +0.295 HD
ENDBRANCH  28   2
ENDBRANCH  19  28
ENDBRANCH   8  19
ENDBRANCH  17   8
ENDBRANCH  24  17
ENDBRANCH  20   5
ENDBRANCH  10  20
BRANCH  14  23
ATOM     23  C   UNL     1     -11.598  -7.204  16.509  0.00  0.00    +0.082 C 
BRANCH  23  29
ATOM      6  N   UNL     1     -13.502  -6.361  15.123  0.00  0.00    -0.342 N 
ATOM      7  N   UNL     1     -11.505  -5.517  14.641  0.00  0.00    -0.232 NA
ATOM     29  C   UNL     1     -12.168  -6.345  15.416  0.00  0.00    +0.109 A 
ATOM     30  C   UNL     1     -13.715  -5.484  14.091  0.00  0.00    +0.070 A 
ATOM     31  C   UNL     1     -12.454  -4.970  13.807  0.00  0.00    +0.089 A 
ATOM     32  C   UNL     1     -14.869  -5.108  13.402  0.00  0.00    +0.073 A 
ATOM     33  C   UNL     1     -12.314  -4.023  12.779  0.00  0.00    +0.033 A 
ATOM     34  C   UNL     1     -14.712  -4.164  12.380  0.00  0.00    +0.122 A 
ATOM     35  C   UNL     1     -13.458  -3.631  12.073  0.00  0.00    +0.048 A 
ATOM     38  H   UNL     1     -14.209  -6.918  15.585  0.00  0.00    +0.167 HD
BRANCH  34   4
ATOM      4  O   UNL     1     -15.805  -3.759  11.673  0.00  0.00    -0.495 OA
ATOM     36  C   UNL     1     -15.567  -2.952  10.523  0.00  0.00    +0.277 C 
ENDBRANCH  34   4
ENDBRANCH  23  29
ENDBRANCH  14  23
TORSDOF 11
ENDMDL
MODEL 2
REMARK VINA RESULT:      -6.9      3.533      5.906
REMARK  Name = 71693199
REMARK  15 active torsions:
REMARK  status: ('A' for Active; 'I' for Inactive)
REMARK    1  A    between atoms: O_2  and  C_28
REMARK    2  A    between atoms: O_4  and  C_34
REMARK    3  A    between atoms: O_4  and  C_36
REMARK    4  A    between atoms: N_5  and  C_20
REMARK    5  A    between atoms: C_8  and  C_17
REMARK    6  A    between atoms: C_8  and  C_19
REMARK    7  A    between atoms: C_9  and  C_18
REMARK    8  A    between atoms: C_10  and  C_20
REMARK    9  A    between atoms: C_14  and  C_23
REMARK   10  A    between atoms: C_17  and  C_24
REMARK   11  A    between atoms: C_18  and  C_25
REMARK   12  A    between atoms: C_18  and  C_26
REMARK   13  A    between atoms: C_19  and  C_28
REMARK   14  A    between atoms: C_21  and  C_27
REMARK   15  A    between atoms: C_23  and  C_29
REMARK                            x       y       z     vdW  Elec       q    Type
REMARK                         _______ _______ _______ _____ _____    ______ ____
ROOT
ATOM      9  C   UNL     1      -5.674 -10.708  17.805  0.00  0.00    +0.000 C 
ATOM     10  C   UNL     1      -5.026 -11.081  16.448  0.00  0.00    +0.032 C 
ATOM     13  C   UNL     1      -7.184 -10.988  17.775  0.00  0.00    +0.012 C 
ATOM     14  C   UNL     1      -7.900 -10.202  16.661  0.00  0.00    +0.022 C 
ATOM     21  C   UNL     1      -7.166 -10.304  15.339  0.00  0.00    -0.073 C 
ATOM     22  C   UNL     1      -5.887 -10.712  15.262  0.00  0.00    -0.022 C 
ATOM     27  C   UNL     1      -7.951  -9.970  14.102  0.00  0.00    +0.039 C 
ENDROOT
BRANCH   9  18
ATOM     18  C   UNL     1      -5.028 -11.465  18.970  0.00  0.00    -0.013 C 
ATOM     25  C   UNL     1      -4.737 -12.908  18.569  0.00  0.00    +0.007 C 
ATOM     26  C   UNL     1      -5.928 -11.417  20.200  0.00  0.00    +0.007 C 
ENDBRANCH   9  18
BRANCH  10  20
ATOM     20  C   UNL     1      -3.645 -10.436  16.297  0.00  0.00    +0.112 C 
BRANCH  20   5
ATOM      1  O   UNL     1      -1.875 -11.976  14.602  0.00  0.00    -0.276 OA
ATOM      5  N   UNL     1      -3.343 -10.199  14.920  0.00  0.00    -0.315 N 
ATOM     24  C   UNL     1      -2.474 -10.994  14.171  0.00  0.00    +0.214 C 
ATOM     37  H   UNL     1      -3.830  -9.443  14.447  0.00  0.00    +0.149 HD
BRANCH  24  17
ATOM     17  C   UNL     1      -2.346 -10.507  12.739  0.00  0.00    +0.103 C 
BRANCH  17   8
ATOM      8  C   UNL     1      -3.565 -10.873  11.881  0.00  0.00    -0.011 C 
ATOM     11  C   UNL     1      -3.207 -10.835  10.377  0.00  0.00    +0.008 C 
ATOM     12  C   UNL     1      -4.684  -9.819  12.058  0.00  0.00    +0.008 C 
ATOM     15  C   UNL     1      -3.797  -9.531   9.861  0.00  0.00    +0.001 C 
ATOM     16  C   UNL     1      -5.088  -9.406  10.647  0.00  0.00    +0.001 C 
BRANCH   8  19
ATOM     19  C   UNL     1      -4.058 -12.270  12.280  0.00  0.00    +0.127 C 
BRANCH  19  28
ATOM      3  O   UNL     1      -3.765 -13.807  10.410  0.00  0.00    -0.251 OA
ATOM     28  C   UNL     1      -3.382 -13.338  11.472  0.00  0.00    +0.305 C 
BRANCH  28   2
ATOM      2  O   UNL     1      -2.245 -13.730  12.103  0.00  0.00    -0.481 OA
ATOM     39  H   UNL     1      -1.826 -12.992  12.595  0.00  0.00    +0.295 HD
ENDBRANCH  28   2
ENDBRANCH  19  28
ENDBRANCH   8  19
ENDBRANCH  17   8
ENDBRANCH  24  17
ENDBRANCH  20   5
ENDBRANCH  10  20
BRANCH  14  23
ATOM     23  C   UNL     1      -8.106  -8.737  17.062  0.00  0.00    +0.082 C 
BRANCH  23  29
ATOM      6  N   UNL     1      -9.592  -7.167  15.805  0.00  0.00    -0.342 N 
ATOM      7  N   UNL     1     -10.624  -8.733  16.996  0.00  0.00    -0.232 NA
ATOM     29  C   UNL     1      -9.459  -8.239  16.641  0.00  0.00    +0.109 A 
ATOM     30  C   UNL     1     -10.932  -6.954  15.607  0.00  0.00    +0.070 A 
ATOM     31  C   UNL     1     -11.555  -7.943  16.360  0.00  0.00    +0.089 A 
ATOM     32  C   UNL     1     -11.631  -6.009  14.855  0.00  0.00    +0.073 A 
ATOM     33  C   UNL     1     -12.958  -8.011  16.378  0.00  0.00    +0.033 A 
ATOM     34  C   UNL     1     -13.028  -6.089  14.884  0.00  0.00    +0.122 A 
ATOM     35  C   UNL     1     -13.681  -7.072  15.632  0.00  0.00    +0.048 A 
ATOM     38  H   UNL     1      -8.838  -6.625  15.402  0.00  0.00    +0.167 HD
BRANCH  34   4
ATOM      4  O   UNL     1     -13.763  -5.192  14.168  0.00  0.00    -0.495 OA
ATOM     36  C   UNL     1     -13.063  -4.401  13.210  0.00  0.00    +0.277 C 
ENDBRANCH  34   4
ENDBRANCH  23  29
ENDBRANCH  14  23
TORSDOF 11
ENDMDL
MODEL 3
REMARK VINA RESULT:      -6.9      5.189      8.087
REMARK  Name = 71693199
REMARK  15 active torsions:
REMARK  status: ('A' for Active; 'I' for Inactive)
REMARK    1  A    between atoms: O_2  and  C_28
REMARK    2  A    between atoms: O_4  and  C_34
REMARK    3  A    between atoms: O_4  and  C_36
REMARK    4  A    between atoms: N_5  and  C_20
REMARK    5  A    between atoms: C_8  and  C_17
REMARK    6  A    between atoms: C_8  and  C_19
REMARK    7  A    between atoms: C_9  and  C_18
REMARK    8  A    between atoms: C_10  and  C_20
REMARK    9  A    between atoms: C_14  and  C_23
REMARK   10  A    between atoms: C_17  and  C_24
REMARK   11  A    between atoms: C_18  and  C_25
REMARK   12  A    between atoms: C_18  and  C_26
REMARK   13  A    between atoms: C_19  and  C_28
REMARK   14  A    between atoms: C_21  and  C_27
REMARK   15  A    between atoms: C_23  and  C_29
REMARK                            x       y       z     vdW  Elec       q    Type
REMARK                         _______ _______ _______ _____ _____    ______ ____
ROOT
ATOM      9  C   UNL     1      -3.377 -12.262  13.608  0.00  0.00    +0.000 C 
ATOM     10  C   UNL     1      -1.995 -11.571  13.724  0.00  0.00    +0.032 C 
ATOM     13  C   UNL     1      -3.749 -12.473  12.133  0.00  0.00    +0.012 C 
ATOM     14  C   UNL     1      -3.800 -11.149  11.350  0.00  0.00    +0.022 C 
ATOM     21  C   UNL     1      -2.585 -10.285  11.624  0.00  0.00    -0.073 C 
ATOM     22  C   UNL     1      -1.783 -10.497  12.682  0.00  0.00    -0.022 C 
ATOM     27  C   UNL     1      -2.287  -9.200  10.628  0.00  0.00    +0.039 C 
ENDROOT
BRANCH   9  18
ATOM     18  C   UNL     1      -3.405 -13.603  14.348  0.00  0.00    -0.013 C 
ATOM     25  C   UNL     1      -2.212 -14.461  13.939  0.00  0.00    +0.007 C 
ATOM     26  C   UNL     1      -4.716 -14.334  14.075  0.00  0.00    +0.007 C 
ENDBRANCH   9  18
BRANCH  10  20
ATOM     20  C   UNL     1      -1.789 -10.975  15.121  0.00  0.00    +0.112 C 
BRANCH  20   5
ATOM      1  O   UNL     1      -3.447 -11.572  17.417  0.00  0.00    -0.276 OA
ATOM      5  N   UNL     1      -2.958 -10.272  15.550  0.00  0.00    -0.315 N 
ATOM     24  C   UNL     1      -3.704 -10.628  16.675  0.00  0.00    +0.214 C 
ATOM     37  H   UNL     1      -3.227  -9.436  15.039  0.00  0.00    +0.149 HD
BRANCH  24  17
ATOM     17  C   UNL     1      -4.889  -9.702  16.889  0.00  0.00    +0.103 C 
BRANCH  17   8
ATOM      8  C   UNL     1      -6.231 -10.445  16.849  0.00  0.00    -0.011 C 
ATOM     11  C   UNL     1      -6.348 -11.294  15.562  0.00  0.00    +0.008 C 
ATOM     12  C   UNL     1      -7.403  -9.436  16.776  0.00  0.00    +0.008 C 
ATOM     15  C   UNL     1      -7.269 -10.503  14.645  0.00  0.00    +0.001 C 
ATOM     16  C   UNL     1      -8.269  -9.895  15.609  0.00  0.00    +0.001 C 
BRANCH   8  19
ATOM     19  C   UNL     1      -6.349 -11.335  18.092  0.00  0.00    +0.127 C 
BRANCH  19  28
ATOM      3  O   UNL     1      -8.510 -10.901  19.134  0.00  0.00    -0.251 OA
ATOM     28  C   UNL     1      -7.298 -10.749  19.095  0.00  0.00    +0.305 C 
BRANCH  28   2
ATOM      2  O   UNL     1      -6.603  -9.999  19.989  0.00  0.00    -0.481 OA
ATOM     39  H   UNL     1      -5.723  -9.738  19.643  0.00  0.00    +0.295 HD
ENDBRANCH  28   2
ENDBRANCH  19  28
ENDBRANCH   8  19
ENDBRANCH  17   8
ENDBRANCH  24  17
ENDBRANCH  20   5
ENDBRANCH  10  20
BRANCH  14  23
ATOM     23  C   UNL     1      -5.095 -10.382  11.643  0.00  0.00    +0.082 C 
BRANCH  23  29
ATOM      6  N   UNL     1      -6.598  -8.820  10.394  0.00  0.00    -0.342 N 
ATOM      7  N   UNL     1      -5.547 -10.344   9.166  0.00  0.00    -0.232 NA
ATOM     29  C   UNL     1      -5.729  -9.874  10.379  0.00  0.00    +0.109 A 
ATOM     30  C   UNL     1      -7.005  -8.594   9.105  0.00  0.00    +0.070 A 
ATOM     31  C   UNL     1      -6.336  -9.558   8.357  0.00  0.00    +0.089 A 
ATOM     32  C   UNL     1      -7.875  -7.657   8.546  0.00  0.00    +0.073 A 
ATOM     33  C   UNL     1      -6.533  -9.606   6.966  0.00  0.00    +0.033 A 
ATOM     34  C   UNL     1      -8.060  -7.718   7.160  0.00  0.00    +0.122 A 
ATOM     35  C   UNL     1      -7.402  -8.675   6.383  0.00  0.00    +0.048 A 
ATOM     38  H   UNL     1      -6.890  -8.297  11.210  0.00  0.00    +0.167 HD
BRANCH  34   4
ATOM      4  O   UNL     1      -8.899  -6.827   6.559  0.00  0.00    -0.495 OA
ATOM     36  C   UNL     1     -10.071  -6.455   7.280  0.00  0.00    +0.277 C 
ENDBRANCH  34   4
ENDBRANCH  23  29
ENDBRANCH  14  23
TORSDOF 11
ENDMDL
MODEL 4
REMARK VINA RESULT:      -6.7      6.452      9.674
REMARK  Name = 71693199
REMARK  15 active torsions:
REMARK  status: ('A' for Active; 'I' for Inactive)
REMARK    1  A    between atoms: O_2  and  C_28
REMARK    2  A    between atoms: O_4  and  C_34
REMARK    3  A    between atoms: O_4  and  C_36
REMARK    4  A    between atoms: N_5  and  C_20
REMARK    5  A    between atoms: C_8  and  C_17
REMARK    6  A    between atoms: C_8  and  C_19
REMARK    7  A    between atoms: C_9  and  C_18
REMARK    8  A    between atoms: C_10  and  C_20
REMARK    9  A    between atoms: C_14  and  C_23
REMARK   10  A    between atoms: C_17  and  C_24
REMARK   11  A    between atoms: C_18  and  C_25
REMARK   12  A    between atoms: C_18  and  C_26
REMARK   13  A    between atoms: C_19  and  C_28
REMARK   14  A    between atoms: C_21  and  C_27
REMARK   15  A    between atoms: C_23  and  C_29
REMARK                            x       y       z     vdW  Elec       q    Type
REMARK                         _______ _______ _______ _____ _____    ______ ____
ROOT
ATOM      9  C   UNL     1      -3.157 -12.380  13.471  0.00  0.00    +0.000 C 
ATOM     10  C   UNL     1      -2.007 -11.505  14.031  0.00  0.00    +0.032 C 
ATOM     13  C   UNL     1      -2.971 -12.610  11.963  0.00  0.00    +0.012 C 
ATOM     14  C   UNL     1      -2.935 -11.289  11.173  0.00  0.00    +0.022 C 
ATOM     21  C   UNL     1      -2.018 -10.270  11.820  0.00  0.00    -0.073 C 
ATOM     22  C   UNL     1      -1.604 -10.390  13.093  0.00  0.00    -0.022 C 
ATOM     27  C   UNL     1      -1.553  -9.133  10.956  0.00  0.00    +0.039 C 
ENDROOT
BRANCH   9  18
ATOM     18  C   UNL     1      -3.248 -13.728  14.194  0.00  0.00    -0.013 C 
ATOM     25  C   UNL     1      -1.932 -14.489  14.069  0.00  0.00    +0.007 C 
ATOM     26  C   UNL     1      -4.404 -14.553  13.637  0.00  0.00    +0.007 C 
ENDBRANCH   9  18
BRANCH  10  20
ATOM     20  C   UNL     1      -2.375 -10.916  15.397  0.00  0.00    +0.112 C 
BRANCH  20   5
ATOM      1  O   UNL     1      -4.418 -11.001  17.445  0.00  0.00    -0.276 OA
ATOM      5  N   UNL     1      -3.667 -10.306  15.355  0.00  0.00    -0.315 N 
ATOM     24  C   UNL     1      -4.598 -10.396  16.391  0.00  0.00    +0.214 C 
ATOM     37  H   UNL     1      -3.898  -9.730  14.550  0.00  0.00    +0.149 HD
BRANCH  24  17
ATOM     17  C   UNL     1      -5.881  -9.649  16.072  0.00  0.00    +0.103 C 
BRANCH  17   8
ATOM      8  C   UNL     1      -7.041 -10.592  15.725  0.00  0.00    -0.011 C 
ATOM     11  C   UNL     1      -6.515 -11.879  15.046  0.00  0.00    +0.008 C 
ATOM     12  C   UNL     1      -7.974  -9.936  14.679  0.00  0.00    +0.008 C 
ATOM     15  C   UNL     1      -6.810 -11.696  13.565  0.00  0.00    +0.001 C 
ATOM     16  C   UNL     1      -8.140 -10.967  13.569  0.00  0.00    +0.001 C 
BRANCH   8  19
ATOM     19  C   UNL     1      -7.808 -10.937  17.006  0.00  0.00    +0.127 C 
BRANCH  19  28
ATOM      3  O   UNL     1      -8.901  -8.813  17.494  0.00  0.00    -0.251 OA
ATOM     28  C   UNL     1      -8.125  -9.705  17.802  0.00  0.00    +0.305 C 
BRANCH  28   2
ATOM      2  O   UNL     1      -7.405  -9.715  18.954  0.00  0.00    -0.481 OA
ATOM     39  H   UNL     1      -6.795 -10.481  18.998  0.00  0.00    +0.295 HD
ENDBRANCH  28   2
ENDBRANCH  19  28
ENDBRANCH   8  19
ENDBRANCH  17   8
ENDBRANCH  24  17
ENDBRANCH  20   5
ENDBRANCH  10  20
BRANCH  14  23
ATOM     23  C   UNL     1      -4.345 -10.718  10.986  0.00  0.00    +0.082 C 
BRANCH  23  29
ATOM      6  N   UNL     1      -4.260 -11.635   8.661  0.00  0.00    -0.342 N 
ATOM      7  N   UNL     1      -5.563  -9.860   8.955  0.00  0.00    -0.232 NA
ATOM     29  C   UNL     1      -4.745 -10.708   9.539  0.00  0.00    +0.109 A 
ATOM     30  C   UNL     1      -4.800 -11.370   7.429  0.00  0.00    +0.070 A 
ATOM     31  C   UNL     1      -5.609 -10.258   7.638  0.00  0.00    +0.089 A 
ATOM     32  C   UNL     1      -4.654 -11.989   6.187  0.00  0.00    +0.073 A 
ATOM     33  C   UNL     1      -6.323  -9.716   6.556  0.00  0.00    +0.033 A 
ATOM     34  C   UNL     1      -5.371 -11.437   5.120  0.00  0.00    +0.122 A 
ATOM     35  C   UNL     1      -6.191 -10.320   5.300  0.00  0.00    +0.048 A 
ATOM     38  H   UNL     1      -3.618 -12.387   8.879  0.00  0.00    +0.167 HD
BRANCH  34   4
ATOM      4  O   UNL     1      -5.268 -12.001   3.883  0.00  0.00    -0.495 OA
ATOM     36  C   UNL     1      -3.970 -12.430   3.475  0.00  0.00    +0.277 C 
ENDBRANCH  34   4
ENDBRANCH  23  29
ENDBRANCH  14  23
TORSDOF 11
ENDMDL
MODEL 5
REMARK VINA RESULT:      -6.7     29.655     34.399
REMARK  Name = 71693199
REMARK  15 active torsions:
REMARK  status: ('A' for Active; 'I' for Inactive)
REMARK    1  A    between atoms: O_2  and  C_28
REMARK    2  A    between atoms: O_4  and  C_34
REMARK    3  A    between atoms: O_4  and  C_36
REMARK    4  A    between atoms: N_5  and  C_20
REMARK    5  A    between atoms: C_8  and  C_17
REMARK    6  A    between atoms: C_8  and  C_19
REMARK    7  A    between atoms: C_9  and  C_18
REMARK    8  A    between atoms: C_10  and  C_20
REMARK    9  A    between atoms: C_14  and  C_23
REMARK   10  A    between atoms: C_17  and  C_24
REMARK   11  A    between atoms: C_18  and  C_25
REMARK   12  A    between atoms: C_18  and  C_26
REMARK   13  A    between atoms: C_19  and  C_28
REMARK   14  A    between atoms: C_21  and  C_27
REMARK   15  A    between atoms: C_23  and  C_29
REMARK                            x       y       z     vdW  Elec       q    Type
REMARK                         _______ _______ _______ _____ _____    ______ ____
ROOT
ATOM      9  C   UNL     1      19.739   8.894  21.857  0.00  0.00    +0.000 C 
ATOM     10  C   UNL     1      18.425   8.771  21.044  0.00  0.00    +0.032 C 
ATOM     13  C   UNL     1      20.868   8.109  21.172  0.00  0.00    +0.012 C 
ATOM     14  C   UNL     1      20.529   6.615  21.019  0.00  0.00    +0.022 C 
ATOM     21  C   UNL     1      19.132   6.408  20.469  0.00  0.00    -0.073 C 
ATOM     22  C   UNL     1      18.210   7.386  20.476  0.00  0.00    -0.022 C 
ATOM     27  C   UNL     1      18.834   5.064  19.868  0.00  0.00    +0.039 C 
ENDROOT
BRANCH   9  18
ATOM     18  C   UNL     1      20.158  10.356  22.039  0.00  0.00    -0.013 C 
ATOM     25  C   UNL     1      20.226  11.062  20.688  0.00  0.00    +0.007 C 
ATOM     26  C   UNL     1      21.500  10.438  22.759  0.00  0.00    +0.007 C 
ENDBRANCH   9  18
BRANCH  10  20
ATOM     20  C   UNL     1      17.211   9.169  21.891  0.00  0.00    +0.112 C 
BRANCH  20   5
ATOM      1  O   UNL     1      14.402   8.744  22.443  0.00  0.00    -0.276 OA
ATOM      5  N   UNL     1      16.104   9.518  21.058  0.00  0.00    -0.315 N 
ATOM     24  C   UNL     1      14.772   9.277  21.400  0.00  0.00    +0.214 C 
ATOM     37  H   UNL     1      16.294  10.019  20.194  0.00  0.00    +0.149 HD
BRANCH  24  17
ATOM     17  C   UNL     1      13.811   9.756  20.326  0.00  0.00    +0.103 C 
BRANCH  17   8
ATOM      8  C   UNL     1      13.262   8.605  19.472  0.00  0.00    -0.011 C 
ATOM     11  C   UNL     1      14.046   7.300  19.743  0.00  0.00    +0.008 C 
ATOM     12  C   UNL     1      13.476   8.902  17.968  0.00  0.00    +0.008 C 
ATOM     15  C   UNL     1      14.981   7.143  18.553  0.00  0.00    +0.001 C 
ATOM     16  C   UNL     1      14.148   7.659  17.395  0.00  0.00    +0.001 C 
BRANCH   8  19
ATOM     19  C   UNL     1      11.774   8.413  19.786  0.00  0.00    +0.127 C 
BRANCH  19  28
ATOM      3  O   UNL     1      11.393   6.169  20.660  0.00  0.00    -0.251 OA
ATOM     28  C   UNL     1      11.569   7.364  20.840  0.00  0.00    +0.305 C 
BRANCH  28   2
ATOM      2  O   UNL     1      11.609   7.944  22.067  0.00  0.00    -0.481 OA
ATOM     39  H   UNL     1      12.362   7.617  22.603  0.00  0.00    +0.295 HD
ENDBRANCH  28   2
ENDBRANCH  19  28
ENDBRANCH   8  19
ENDBRANCH  17   8
ENDBRANCH  24  17
ENDBRANCH  20   5
ENDBRANCH  10  20
BRANCH  14  23
ATOM     23  C   UNL     1      20.713   5.867  22.344  0.00  0.00    +0.082 C 
BRANCH  23  29
ATOM      6  N   UNL     1      22.170   4.062  23.282  0.00  0.00    -0.342 N 
ATOM      7  N   UNL     1      22.087   4.188  21.065  0.00  0.00    -0.232 NA
ATOM     29  C   UNL     1      21.655   4.707  22.193  0.00  0.00    +0.109 A 
ATOM     30  C   UNL     1      22.988   3.060  22.828  0.00  0.00    +0.070 A 
ATOM     31  C   UNL     1      22.921   3.159  21.442  0.00  0.00    +0.089 A 
ATOM     32  C   UNL     1      23.759   2.105  23.492  0.00  0.00    +0.073 A 
ATOM     33  C   UNL     1      23.658   2.260  20.653  0.00  0.00    +0.033 A 
ATOM     34  C   UNL     1      24.487   1.217  22.692  0.00  0.00    +0.122 A 
ATOM     35  C   UNL     1      24.439   1.293  21.298  0.00  0.00    +0.048 A 
ATOM     38  H   UNL     1      21.981   4.283  24.251  0.00  0.00    +0.167 HD
BRANCH  34   4
ATOM      4  O   UNL     1      25.257   0.262  23.286  0.00  0.00    -0.495 OA
ATOM     36  C   UNL     1      26.179  -0.436  22.452  0.00  0.00    +0.277 C 
ENDBRANCH  34   4
ENDBRANCH  23  29
ENDBRANCH  14  23
TORSDOF 11
ENDMDL
MODEL 6
REMARK VINA RESULT:      -6.6      5.600      8.482
REMARK  Name = 71693199
REMARK  15 active torsions:
REMARK  status: ('A' for Active; 'I' for Inactive)
REMARK    1  A    between atoms: O_2  and  C_28
REMARK    2  A    between atoms: O_4  and  C_34
REMARK    3  A    between atoms: O_4  and  C_36
REMARK    4  A    between atoms: N_5  and  C_20
REMARK    5  A    between atoms: C_8  and  C_17
REMARK    6  A    between atoms: C_8  and  C_19
REMARK    7  A    between atoms: C_9  and  C_18
REMARK    8  A    between atoms: C_10  and  C_20
REMARK    9  A    between atoms: C_14  and  C_23
REMARK   10  A    between atoms: C_17  and  C_24
REMARK   11  A    between atoms: C_18  and  C_25
REMARK   12  A    between atoms: C_18  and  C_26
REMARK   13  A    between atoms: C_19  and  C_28
REMARK   14  A    between atoms: C_21  and  C_27
REMARK   15  A    between atoms: C_23  and  C_29
REMARK                            x       y       z     vdW  Elec       q    Type
REMARK                         _______ _______ _______ _____ _____    ______ ____
ROOT
ATOM      9  C   UNL     1      -3.330 -12.960  12.450  0.00  0.00    +0.000 C 
ATOM     10  C   UNL     1      -2.024 -12.232  12.854  0.00  0.00    +0.032 C 
ATOM     13  C   UNL     1      -3.605 -12.779  10.950  0.00  0.00    +0.012 C 
ATOM     14  C   UNL     1      -3.733 -11.296  10.556  0.00  0.00    +0.022 C 
ATOM     21  C   UNL     1      -2.616 -10.458  11.146  0.00  0.00    -0.073 C 
ATOM     22  C   UNL     1      -1.854 -10.898  12.163  0.00  0.00    -0.022 C 
ATOM     27  C   UNL     1      -2.364  -9.120  10.509  0.00  0.00    +0.039 C 
ENDROOT
BRANCH   9  18
ATOM     18  C   UNL     1      -3.277 -14.453  12.792  0.00  0.00    -0.013 C 
ATOM     25  C   UNL     1      -2.213 -15.152  11.951  0.00  0.00    +0.007 C 
ATOM     26  C   UNL     1      -4.643 -15.096  12.579  0.00  0.00    +0.007 C 
ENDBRANCH   9  18
BRANCH  10  20
ATOM     20  C   UNL     1      -1.946 -12.034  14.371  0.00  0.00    +0.112 C 
BRANCH  20   5
ATOM      1  O   UNL     1      -2.347 -10.808  16.962  0.00  0.00    -0.276 OA
ATOM      5  N   UNL     1      -3.144 -11.433  14.867  0.00  0.00    -0.315 N 
ATOM     24  C   UNL     1      -3.254 -10.861  16.136  0.00  0.00    +0.214 C 
ATOM     37  H   UNL     1      -3.942 -11.370  14.241  0.00  0.00    +0.149 HD
BRANCH  24  17
ATOM     17  C   UNL     1      -4.641 -10.297  16.389  0.00  0.00    +0.103 C 
BRANCH  17   8
ATOM      8  C   UNL     1      -5.513 -11.235  17.235  0.00  0.00    -0.011 C 
ATOM     11  C   UNL     1      -6.589 -10.434  18.005  0.00  0.00    +0.008 C 
ATOM     12  C   UNL     1      -4.660 -11.923  18.328  0.00  0.00    +0.008 C 
ATOM     15  C   UNL     1      -6.075 -10.351  19.436  0.00  0.00    +0.001 C 
ATOM     16  C   UNL     1      -5.409 -11.699  19.637  0.00  0.00    +0.001 C 
BRANCH   8  19
ATOM     19  C   UNL     1      -6.171 -12.273  16.318  0.00  0.00    +0.127 C 
BRANCH  19  28
ATOM      3  O   UNL     1      -4.548 -14.070  16.035  0.00  0.00    -0.251 OA
ATOM     28  C   UNL     1      -5.580 -13.636  16.524  0.00  0.00    +0.305 C 
BRANCH  28   2
ATOM      2  O   UNL     1      -6.378 -14.351  17.359  0.00  0.00    -0.481 OA
ATOM     39  H   UNL     1      -7.170 -13.843  17.634  0.00  0.00    +0.295 HD
ENDBRANCH  28   2
ENDBRANCH  19  28
ENDBRANCH   8  19
ENDBRANCH  17   8
ENDBRANCH  24  17
ENDBRANCH  20   5
ENDBRANCH  10  20
BRANCH  14  23
ATOM     23  C   UNL     1      -5.105 -10.735  10.950  0.00  0.00    +0.082 C 
BRANCH  23  29
ATOM      6  N   UNL     1      -6.700  -9.084   9.956  0.00  0.00    -0.342 N 
ATOM      7  N   UNL     1      -5.612 -10.373   8.510  0.00  0.00    -0.232 NA
ATOM     29  C   UNL     1      -5.787 -10.085   9.780  0.00  0.00    +0.109 A 
ATOM     30  C   UNL     1      -7.144  -8.699   8.717  0.00  0.00    +0.070 A 
ATOM     31  C   UNL     1      -6.451  -9.518   7.831  0.00  0.00    +0.089 A 
ATOM     32  C   UNL     1      -8.065  -7.734   8.309  0.00  0.00    +0.073 A 
ATOM     33  C   UNL     1      -6.676  -9.381   6.451  0.00  0.00    +0.033 A 
ATOM     34  C   UNL     1      -8.278  -7.610   6.932  0.00  0.00    +0.122 A 
ATOM     35  C   UNL     1      -7.597  -8.418   6.018  0.00  0.00    +0.048 A 
ATOM     38  H   UNL     1      -6.996  -8.694  10.841  0.00  0.00    +0.167 HD
BRANCH  34   4
ATOM      4  O   UNL     1      -9.166  -6.682   6.474  0.00  0.00    -0.495 OA
ATOM     36  C   UNL     1     -10.254  -6.351   7.334  0.00  0.00    +0.277 C 
ENDBRANCH  34   4
ENDBRANCH  23  29
ENDBRANCH  14  23
TORSDOF 11
ENDMDL
MODEL 7
REMARK VINA RESULT:      -6.6      3.748      6.126
REMARK  Name = 71693199
REMARK  15 active torsions:
REMARK  status: ('A' for Active; 'I' for Inactive)
REMARK    1  A    between atoms: O_2  and  C_28
REMARK    2  A    between atoms: O_4  and  C_34
REMARK    3  A    between atoms: O_4  and  C_36
REMARK    4  A    between atoms: N_5  and  C_20
REMARK    5  A    between atoms: C_8  and  C_17
REMARK    6  A    between atoms: C_8  and  C_19
REMARK    7  A    between atoms: C_9  and  C_18
REMARK    8  A    between atoms: C_10  and  C_20
REMARK    9  A    between atoms: C_14  and  C_23
REMARK   10  A    between atoms: C_17  and  C_24
REMARK   11  A    between atoms: C_18  and  C_25
REMARK   12  A    between atoms: C_18  and  C_26
REMARK   13  A    between atoms: C_19  and  C_28
REMARK   14  A    between atoms: C_21  and  C_27
REMARK   15  A    between atoms: C_23  and  C_29
REMARK                            x       y       z     vdW  Elec       q    Type
REMARK                         _______ _______ _______ _____ _____    ______ ____
ROOT
ATOM      9  C   UNL     1      -5.728 -10.704  17.785  0.00  0.00    +0.000 C 
ATOM     10  C   UNL     1      -5.177 -11.207  16.427  0.00  0.00    +0.032 C 
ATOM     13  C   UNL     1      -7.240 -10.958  17.879  0.00  0.00    +0.012 C 
ATOM     14  C   UNL     1      -8.019 -10.258  16.749  0.00  0.00    +0.022 C 
ATOM     21  C   UNL     1      -7.376 -10.489  15.396  0.00  0.00    -0.073 C 
ATOM     22  C   UNL     1      -6.111 -10.926  15.272  0.00  0.00    -0.022 C 
ATOM     27  C   UNL     1      -8.237 -10.250  14.188  0.00  0.00    +0.039 C 
ENDROOT
BRANCH   9  18
ATOM     18  C   UNL     1      -5.016 -11.368  18.968  0.00  0.00    -0.013 C 
ATOM     25  C   UNL     1      -4.696 -12.825  18.645  0.00  0.00    +0.007 C 
ATOM     26  C   UNL     1      -5.870 -11.269  20.228  0.00  0.00    +0.007 C 
ENDBRANCH   9  18
BRANCH  10  20
ATOM     20  C   UNL     1      -3.801 -10.603  16.130  0.00  0.00    +0.112 C 
BRANCH  20   5
ATOM      1  O   UNL     1      -1.892 -11.688  14.245  0.00  0.00    -0.276 OA
ATOM      5  N   UNL     1      -3.676 -10.281  14.743  0.00  0.00    -0.315 N 
ATOM     24  C   UNL     1      -2.723 -10.853  13.899  0.00  0.00    +0.214 C 
ATOM     37  H   UNL     1      -4.355  -9.641  14.338  0.00  0.00    +0.149 HD
BRANCH  24  17
ATOM     17  C   UNL     1      -2.827 -10.324  12.479  0.00  0.00    +0.103 C 
BRANCH  17   8
ATOM      8  C   UNL     1      -3.992 -10.952  11.701  0.00  0.00    -0.011 C 
ATOM     11  C   UNL     1      -4.282 -12.383  12.211  0.00  0.00    +0.008 C 
ATOM     12  C   UNL     1      -3.612 -11.123  10.210  0.00  0.00    +0.008 C 
ATOM     15  C   UNL     1      -3.673 -13.309  11.168  0.00  0.00    +0.001 C 
ATOM     16  C   UNL     1      -3.933 -12.574   9.868  0.00  0.00    +0.001 C 
BRANCH   8  19
ATOM     19  C   UNL     1      -5.233 -10.066  11.853  0.00  0.00    +0.127 C 
BRANCH  19  28
ATOM      3  O   UNL     1      -4.688  -8.121  10.488  0.00  0.00    -0.251 OA
ATOM     28  C   UNL     1      -5.369  -9.113  10.703  0.00  0.00    +0.305 C 
BRANCH  28   2
ATOM      2  O   UNL     1      -6.388  -9.516   9.900  0.00  0.00    -0.481 OA
ATOM     39  H   UNL     1      -6.228 -10.409   9.526  0.00  0.00    +0.295 HD
ENDBRANCH  28   2
ENDBRANCH  19  28
ENDBRANCH   8  19
ENDBRANCH  17   8
ENDBRANCH  24  17
ENDBRANCH  20   5
ENDBRANCH  10  20
BRANCH  14  23
ATOM     23  C   UNL     1      -8.179  -8.760  17.032  0.00  0.00    +0.082 C 
BRANCH  23  29
ATOM      6  N   UNL     1      -9.619  -7.055  15.903  0.00  0.00    -0.342 N 
ATOM      7  N   UNL     1     -10.672  -8.847  16.687  0.00  0.00    -0.232 NA
ATOM     29  C   UNL     1      -9.508  -8.252  16.553  0.00  0.00    +0.109 A 
ATOM     30  C   UNL     1     -10.942  -6.866  15.596  0.00  0.00    +0.070 A 
ATOM     31  C   UNL     1     -11.579  -7.998  16.096  0.00  0.00    +0.089 A 
ATOM     32  C   UNL     1     -11.616  -5.833  14.943  0.00  0.00    +0.073 A 
ATOM     33  C   UNL     1     -12.970  -8.125  15.945  0.00  0.00    +0.033 A 
ATOM     34  C   UNL     1     -13.000  -5.974  14.802  0.00  0.00    +0.122 A 
ATOM     35  C   UNL     1     -13.667  -7.099  15.294  0.00  0.00    +0.048 A 
ATOM     38  H   UNL     1      -8.862  -6.421  15.684  0.00  0.00    +0.167 HD
BRANCH  34   4
ATOM      4  O   UNL     1     -13.711  -4.996  14.172  0.00  0.00    -0.495 OA
ATOM     36  C   UNL     1     -13.089  -4.363  13.056  0.00  0.00    +0.277 C 
ENDBRANCH  34   4
ENDBRANCH  23  29
ENDBRANCH  14  23
TORSDOF 11
ENDMDL
MODEL 8
REMARK VINA RESULT:      -6.5     27.260     29.972
REMARK  Name = 71693199
REMARK  15 active torsions:
REMARK  status: ('A' for Active; 'I' for Inactive)
REMARK    1  A    between atoms: O_2  and  C_28
REMARK    2  A    between atoms: O_4  and  C_34
REMARK    3  A    between atoms: O_4  and  C_36
REMARK    4  A    between atoms: N_5  and  C_20
REMARK    5  A    between atoms: C_8  and  C_17
REMARK    6  A    between atoms: C_8  and  C_19
REMARK    7  A    between atoms: C_9  and  C_18
REMARK    8  A    between atoms: C_10  and  C_20
REMARK    9  A    between atoms: C_14  and  C_23
REMARK   10  A    between atoms: C_17  and  C_24
REMARK   11  A    between atoms: C_18  and  C_25
REMARK   12  A    between atoms: C_18  and  C_26
REMARK   13  A    between atoms: C_19  and  C_28
REMARK   14  A    between atoms: C_21  and  C_27
REMARK   15  A    between atoms: C_23  and  C_29
REMARK                            x       y       z     vdW  Elec       q    Type
REMARK                         _______ _______ _______ _____ _____    ______ ____
ROOT
ATOM      9  C   UNL     1       8.580   8.568   5.175  0.00  0.00    +0.000 C 
ATOM     10  C   UNL     1       8.446   7.784   6.505  0.00  0.00    +0.032 C 
ATOM     13  C   UNL     1       8.292   7.649   3.979  0.00  0.00    +0.012 C 
ATOM     14  C   UNL     1       9.245   6.441   3.929  0.00  0.00    +0.022 C 
ATOM     21  C   UNL     1       9.374   5.770   5.283  0.00  0.00    -0.073 C 
ATOM     22  C   UNL     1       8.999   6.380   6.420  0.00  0.00    -0.022 C 
ATOM     27  C   UNL     1       9.901   4.363   5.292  0.00  0.00    +0.039 C 
ENDROOT
BRANCH   9  18
ATOM     18  C   UNL     1       7.646   9.782   5.135  0.00  0.00    -0.013 C 
ATOM     25  C   UNL     1       6.692   9.679   3.948  0.00  0.00    +0.007 C 
ATOM     26  C   UNL     1       8.454  11.074   5.069  0.00  0.00    +0.007 C 
ENDBRANCH   9  18
BRANCH  10  20
ATOM     20  C   UNL     1       9.123   8.531   7.659  0.00  0.00    +0.112 C 
BRANCH  20   5
ATOM      1  O   UNL     1      10.754  10.921   7.622  0.00  0.00    -0.276 OA
ATOM      5  N   UNL     1      10.535   8.611   7.453  0.00  0.00    -0.315 N 
ATOM     24  C   UNL     1      11.249   9.811   7.450  0.00  0.00    +0.214 C 
ATOM     37  H   UNL     1      11.054   7.743   7.358  0.00  0.00    +0.149 HD
BRANCH  24  17
ATOM     17  C   UNL     1      12.732   9.591   7.210  0.00  0.00    +0.103 C 
BRANCH  17   8
ATOM      8  C   UNL     1      13.071   9.434   5.721  0.00  0.00    -0.011 C 
ATOM     11  C   UNL     1      14.444  10.071   5.403  0.00  0.00    +0.008 C 
ATOM     12  C   UNL     1      12.053  10.211   4.852  0.00  0.00    +0.008 C 
ATOM     15  C   UNL     1      14.121  11.397   4.729  0.00  0.00    +0.001 C 
ATOM     16  C   UNL     1      12.887  11.071   3.910  0.00  0.00    +0.001 C 
BRANCH   8  19
ATOM     19  C   UNL     1      13.075   7.944   5.362  0.00  0.00    +0.127 C 
BRANCH  19  28
ATOM      3  O   UNL     1      14.895   7.165   6.786  0.00  0.00    -0.251 OA
ATOM     28  C   UNL     1      13.724   7.124   6.439  0.00  0.00    +0.305 C 
BRANCH  28   2
ATOM      2  O   UNL     1      12.800   6.301   6.998  0.00  0.00    -0.481 OA
ATOM     39  H   UNL     1      12.802   6.358   7.977  0.00  0.00    +0.295 HD
ENDBRANCH  28   2
ENDBRANCH  19  28
ENDBRANCH   8  19
ENDBRANCH  17   8
ENDBRANCH  24  17
ENDBRANCH  20   5
ENDBRANCH  10  20
BRANCH  14  23
ATOM     23  C   UNL     1      10.620   6.843   3.383  0.00  0.00    +0.082 C 
BRANCH  23  29
ATOM      6  N   UNL     1      10.393   5.837   1.104  0.00  0.00    -0.342 N 
ATOM      7  N   UNL     1      12.100   5.103   2.322  0.00  0.00    -0.232 NA
ATOM     29  C   UNL     1      11.067   5.915   2.290  0.00  0.00    +0.109 A 
ATOM     30  C   UNL     1      11.033   4.914   0.318  0.00  0.00    +0.070 A 
ATOM     31  C   UNL     1      12.095   4.470   1.100  0.00  0.00    +0.089 A 
ATOM     32  C   UNL     1      10.782   4.443  -0.971  0.00  0.00    +0.073 A 
ATOM     33  C   UNL     1      12.969   3.499   0.583  0.00  0.00    +0.033 A 
ATOM     34  C   UNL     1      11.662   3.477  -1.472  0.00  0.00    +0.122 A 
ATOM     35  C   UNL     1      12.736   3.012  -0.709  0.00  0.00    +0.048 A 
ATOM     38  H   UNL     1       9.569   6.366   0.849  0.00  0.00    +0.167 HD
BRANCH  34   4
ATOM      4  O   UNL     1      11.465   2.981  -2.726  0.00  0.00    -0.495 OA
ATOM     36  C   UNL     1      10.398   3.547  -3.485  0.00  0.00    +0.277 C 
ENDBRANCH  34   4
ENDBRANCH  23  29
ENDBRANCH  14  23
TORSDOF 11
ENDMDL
MODEL 9
REMARK VINA RESULT:      -6.4      4.418      8.706
REMARK  Name = 71693199
REMARK  15 active torsions:
REMARK  status: ('A' for Active; 'I' for Inactive)
REMARK    1  A    between atoms: O_2  and  C_28
REMARK    2  A    between atoms: O_4  and  C_34
REMARK    3  A    between atoms: O_4  and  C_36
REMARK    4  A    between atoms: N_5  and  C_20
REMARK    5  A    between atoms: C_8  and  C_17
REMARK    6  A    between atoms: C_8  and  C_19
REMARK    7  A    between atoms: C_9  and  C_18
REMARK    8  A    between atoms: C_10  and  C_20
REMARK    9  A    between atoms: C_14  and  C_23
REMARK   10  A    between atoms: C_17  and  C_24
REMARK   11  A    between atoms: C_18  and  C_25
REMARK   12  A    between atoms: C_18  and  C_26
REMARK   13  A    between atoms: C_19  and  C_28
REMARK   14  A    between atoms: C_21  and  C_27
REMARK   15  A    between atoms: C_23  and  C_29
REMARK                            x       y       z     vdW  Elec       q    Type
REMARK                         _______ _______ _______ _____ _____    ______ ____
ROOT
ATOM      9  C   UNL     1      -6.521 -10.984  16.093  0.00  0.00    +0.000 C 
ATOM     10  C   UNL     1      -6.943 -10.759  17.567  0.00  0.00    +0.032 C 
ATOM     13  C   UNL     1      -5.690 -12.270  15.963  0.00  0.00    +0.012 C 
ATOM     14  C   UNL     1      -4.420 -12.233  16.833  0.00  0.00    +0.022 C 
ATOM     21  C   UNL     1      -4.717 -11.758  18.242  0.00  0.00    -0.073 C 
ATOM     22  C   UNL     1      -5.855 -11.114  18.553  0.00  0.00    -0.022 C 
ATOM     27  C   UNL     1      -3.694 -12.082  19.295  0.00  0.00    +0.039 C 
ENDROOT
BRANCH   9  18
ATOM     18  C   UNL     1      -7.733 -11.052  15.159  0.00  0.00    -0.013 C 
ATOM     25  C   UNL     1      -8.072 -12.504  14.834  0.00  0.00    +0.007 C 
ATOM     26  C   UNL     1      -7.467 -10.261  13.883  0.00  0.00    +0.007 C 
ENDBRANCH   9  18
BRANCH  10  20
ATOM     20  C   UNL     1      -7.392  -9.313  17.800  0.00  0.00    +0.112 C 
BRANCH  20   5
ATOM      1  O   UNL     1      -9.504  -8.153  16.196  0.00  0.00    -0.276 OA
ATOM      5  N   UNL     1      -8.785  -9.258  18.114  0.00  0.00    -0.315 N 
ATOM     24  C   UNL     1      -9.743  -8.677  17.281  0.00  0.00    +0.214 C 
ATOM     37  H   UNL     1      -9.102  -9.715  18.964  0.00  0.00    +0.149 HD
BRANCH  24  17
ATOM     17  C   UNL     1     -11.140  -8.766  17.869  0.00  0.00    +0.103 C 
BRANCH  17   8
ATOM      8  C   UNL     1     -11.766 -10.157  17.694  0.00  0.00    -0.011 C 
ATOM     11  C   UNL     1     -11.247 -10.831  16.402  0.00  0.00    +0.008 C 
ATOM     12  C   UNL     1     -13.297 -10.039  17.503  0.00  0.00    +0.008 C 
ATOM     15  C   UNL     1     -12.380 -10.687  15.397  0.00  0.00    +0.001 C 
ATOM     16  C   UNL     1     -13.620 -10.852  16.255  0.00  0.00    +0.001 C 
BRANCH   8  19
ATOM     19  C   UNL     1     -11.430 -11.016  18.919  0.00  0.00    +0.127 C 
BRANCH  19  28
ATOM      3  O   UNL     1     -12.476  -9.716  20.697  0.00  0.00    -0.251 OA
ATOM     28  C   UNL     1     -11.483 -10.209  20.183  0.00  0.00    +0.305 C 
BRANCH  28   2
ATOM      2  O   UNL     1     -10.231 -10.096  20.699  0.00  0.00    -0.481 OA
ATOM     39  H   UNL     1     -10.103 -10.676  21.479  0.00  0.00    +0.295 HD
ENDBRANCH  28   2
ENDBRANCH  19  28
ENDBRANCH   8  19
ENDBRANCH  17   8
ENDBRANCH  24  17
ENDBRANCH  20   5
ENDBRANCH  10  20
BRANCH  14  23
ATOM     23  C   UNL     1      -3.329 -11.374  16.184  0.00  0.00    +0.082 C 
BRANCH  23  29
ATOM      6  N   UNL     1      -3.666 -10.310  13.945  0.00  0.00    -0.342 N 
ATOM      7  N   UNL     1      -3.250 -12.492  13.928  0.00  0.00    -0.232 NA
ATOM     29  C   UNL     1      -3.407 -11.429  14.685  0.00  0.00    +0.109 A 
ATOM     30  C   UNL     1      -3.676 -10.674  12.624  0.00  0.00    +0.070 A 
ATOM     31  C   UNL     1      -3.414 -12.040  12.639  0.00  0.00    +0.089 A 
ATOM     32  C   UNL     1      -3.885  -9.946  11.452  0.00  0.00    +0.073 A 
ATOM     33  C   UNL     1      -3.354 -12.741  11.422  0.00  0.00    +0.033 A 
ATOM     34  C   UNL     1      -3.821 -10.658  10.249  0.00  0.00    +0.122 A 
ATOM     35  C   UNL     1      -3.561 -12.031  10.233  0.00  0.00    +0.048 A 
ATOM     38  H   UNL     1      -3.821  -9.377  14.306  0.00  0.00    +0.167 HD
BRANCH  34   4
ATOM      4  O   UNL     1      -4.017  -9.999   9.072  0.00  0.00    -0.495 OA
ATOM     36  C   UNL     1      -5.266  -9.331   8.905  0.00  0.00    +0.277 C 
ENDBRANCH  34   4
ENDBRANCH  23  29
ENDBRANCH  14  23
TORSDOF 11
ENDMDL
MODEL 10
REMARK VINA RESULT:      -6.4      6.362      9.409
REMARK  Name = 71693199
REMARK  15 active torsions:
REMARK  status: ('A' for Active; 'I' for Inactive)
REMARK    1  A    between atoms: O_2  and  C_28
REMARK    2  A    between atoms: O_4  and  C_34
REMARK    3  A    between atoms: O_4  and  C_36
REMARK    4  A    between atoms: N_5  and  C_20
REMARK    5  A    between atoms: C_8  and  C_17
REMARK    6  A    between atoms: C_8  and  C_19
REMARK    7  A    between atoms: C_9  and  C_18
REMARK    8  A    between atoms: C_10  and  C_20
REMARK    9  A    between atoms: C_14  and  C_23
REMARK   10  A    between atoms: C_17  and  C_24
REMARK   11  A    between atoms: C_18  and  C_25
REMARK   12  A    between atoms: C_18  and  C_26
REMARK   13  A    between atoms: C_19  and  C_28
REMARK   14  A    between atoms: C_21  and  C_27
REMARK   15  A    between atoms: C_23  and  C_29
REMARK                            x       y       z     vdW  Elec       q    Type
REMARK                         _______ _______ _______ _____ _____    ______ ____
ROOT
ATOM      9  C   UNL     1      -3.504 -12.000  13.443  0.00  0.00    +0.000 C 
ATOM     10  C   UNL     1      -2.176 -11.486  14.053  0.00  0.00    +0.032 C 
ATOM     13  C   UNL     1      -3.361 -12.187  11.925  0.00  0.00    +0.012 C 
ATOM     14  C   UNL     1      -2.972 -10.879  11.212  0.00  0.00    +0.022 C 
ATOM     21  C   UNL     1      -1.833 -10.170  11.917  0.00  0.00    -0.073 C 
ATOM     22  C   UNL     1      -1.483 -10.463  13.181  0.00  0.00    -0.022 C 
ATOM     27  C   UNL     1      -1.075  -9.147  11.119  0.00  0.00    +0.039 C 
ENDROOT
BRANCH   9  18
ATOM     18  C   UNL     1      -3.953 -13.315  14.088  0.00  0.00    -0.013 C 
ATOM     25  C   UNL     1      -2.850 -14.364  13.980  0.00  0.00    +0.007 C 
ATOM     26  C   UNL     1      -5.240 -13.815  13.438  0.00  0.00    +0.007 C 
ENDBRANCH   9  18
BRANCH  10  20
ATOM     20  C   UNL     1      -2.400 -10.897  15.450  0.00  0.00    +0.112 C 
BRANCH  20   5
ATOM      1  O   UNL     1      -4.135 -10.825  17.766  0.00  0.00    -0.276 OA
ATOM      5  N   UNL     1      -3.691 -10.291  15.545  0.00  0.00    -0.315 N 
ATOM     24  C   UNL     1      -4.467 -10.302  16.705  0.00  0.00    +0.214 C 
ATOM     37  H   UNL     1      -4.039  -9.778  14.739  0.00  0.00    +0.149 HD
BRANCH  24  17
ATOM     17  C   UNL     1      -5.790  -9.580  16.514  0.00  0.00    +0.103 C 
BRANCH  17   8
ATOM      8  C   UNL     1      -6.992 -10.534  16.553  0.00  0.00    -0.011 C 
ATOM     11  C   UNL     1      -7.743 -10.412  17.899  0.00  0.00    +0.008 C 
ATOM     12  C   UNL     1      -6.515 -12.004  16.486  0.00  0.00    +0.008 C 
ATOM     15  C   UNL     1      -7.319 -11.633  18.703  0.00  0.00    +0.001 C 
ATOM     16  C   UNL     1      -7.205 -12.714  17.646  0.00  0.00    +0.001 C 
BRANCH   8  19
ATOM     19  C   UNL     1      -7.929 -10.207  15.384  0.00  0.00    +0.127 C 
BRANCH  19  28
ATOM      3  O   UNL     1      -6.288  -9.974  13.597  0.00  0.00    -0.251 OA
ATOM     28  C   UNL     1      -7.282 -10.508  14.065  0.00  0.00    +0.305 C 
BRANCH  28   2
ATOM      2  O   UNL     1      -7.977 -11.492  13.436  0.00  0.00    -0.481 OA
ATOM     39  H   UNL     1      -8.838 -11.668  13.871  0.00  0.00    +0.295 HD
ENDBRANCH  28   2
ENDBRANCH  19  28
ENDBRANCH   8  19
ENDBRANCH  17   8
ENDBRANCH  24  17
ENDBRANCH  20   5
ENDBRANCH  10  20
BRANCH  14  23
ATOM     23  C   UNL     1      -4.183  -9.952  11.057  0.00  0.00    +0.082 C 
BRANCH  23  29
ATOM      6  N   UNL     1      -4.294 -10.924   8.754  0.00  0.00    -0.342 N 
ATOM      7  N   UNL     1      -5.668  -9.225   9.157  0.00  0.00    -0.232 NA
ATOM     29  C   UNL     1      -4.739 -10.005   9.662  0.00  0.00    +0.109 A 
ATOM     30  C   UNL     1      -4.981 -10.724   7.585  0.00  0.00    +0.070 A 
ATOM     31  C   UNL     1      -5.832  -9.659   7.861  0.00  0.00    +0.089 A 
ATOM     32  C   UNL     1      -4.932 -11.365   6.347  0.00  0.00    +0.073 A 
ATOM     33  C   UNL     1      -6.694  -9.191   6.855  0.00  0.00    +0.033 A 
ATOM     34  C   UNL     1      -5.796 -10.887   5.355  0.00  0.00    +0.122 A 
ATOM     35  C   UNL     1      -6.661  -9.819   5.603  0.00  0.00    +0.048 A 
ATOM     38  H   UNL     1      -3.584 -11.628   8.914  0.00  0.00    +0.167 HD
BRANCH  34   4
ATOM      4  O   UNL     1      -5.792 -11.476   4.126  0.00  0.00    -0.495 OA
ATOM     36  C   UNL     1      -4.667 -12.290   3.803  0.00  0.00    +0.277 C 
ENDBRANCH  34   4
ENDBRANCH  23  29
ENDBRANCH  14  23
TORSDOF 11
ENDMDL
