REMARK  Name = 26743294
REMARK  12 active torsions:
REMARK  status: ('A' for Active; 'I' for Inactive)
REMARK    1  A    between atoms: N_4  and  C_17
REMARK    2  A    between atoms: C_6  and  C_12
REMARK    3  A    between atoms: C_7  and  C_11
REMARK    4  A    between atoms: C_11  and  C_13
REMARK    5  A    between atoms: C_12  and  C_14
REMARK    6  A    between atoms: C_16  and  C_19
REMARK    7  A    between atoms: C_17  and  C_21
REMARK    8  A    between atoms: C_17  and  C_22
REMARK    9  A    between atoms: C_18  and  C_20
REMARK   10  A    between atoms: C_18  and  C_27
REMARK   11  A    between atoms: C_18  and  C_28
REMARK   12  A    between atoms: C_18  and  C_29
REMARK                            x       y       z     vdW  Elec       q    Type
REMARK                         _______ _______ _______ _____ _____    ______ ____
ROOT
ATOM     11  C   UNL     1       1.546   0.540   0.295  0.00  0.00    +0.064 C 
ENDROOT
BRANCH  11   7
ATOM      3  N   UNL     1       2.268  -3.114  -0.576  0.00  0.00    -0.316 NA
ATOM      6  C   UNL     1       3.658  -0.855   0.718  0.00  0.00    +0.004 C 
ATOM      7  C   UNL     1       2.132  -0.863   0.463  0.00  0.00    +0.012 C 
ATOM      8  C   UNL     1       4.162  -2.307   0.789  0.00  0.00    +0.019 C 
ATOM      9  C   UNL     1       1.760  -1.751  -0.736  0.00  0.00    +0.085 C 
ATOM     10  C   UNL     1       3.720  -3.137  -0.415  0.00  0.00    +0.081 C 
ATOM     30  H   UNL     1       2.010  -3.668  -1.392  0.00  0.00    +0.122 HD
BRANCH   6  12
ATOM     12  C   UNL     1       4.459  -0.050  -0.313  0.00  0.00    +0.099 C 
BRANCH  12  14
ATOM      2  O   UNL     1       6.219   0.092   1.340  0.00  0.00    -0.276 OA
ATOM      4  N   UNL     1       6.531   1.069  -0.745  0.00  0.00    -0.313 N 
ATOM     14  C   UNL     1       5.818   0.360   0.211  0.00  0.00    +0.213 C 
ATOM     31  H   UNL     1       6.128   1.186  -1.671  0.00  0.00    +0.149 HD
BRANCH   4  17
ATOM     17  C   UNL     1       7.860   1.587  -0.516  0.00  0.00    +0.067 C 
ATOM     21  C   UNL     1       8.070   2.875  -1.301  0.00  0.00    +0.027 C 
ATOM     22  C   UNL     1       8.910   0.543  -0.878  0.00  0.00    +0.027 C 
ENDBRANCH   4  17
ENDBRANCH  12  14
ENDBRANCH   6  12
ENDBRANCH  11   7
BRANCH  11  13
ATOM      1  O   UNL     1      -1.747   0.731   1.738  0.00  0.00    -0.354 OA
ATOM      5  N   UNL     1      -0.361   0.787   1.825  0.00  0.00    -0.083 NA
ATOM     13  C   UNL     1       0.073   0.555   0.583  0.00  0.00    +0.085 A 
ATOM     15  C   UNL     1      -0.983   0.348  -0.321  0.00  0.00    +0.076 A 
ATOM     16  C   UNL     1      -2.105   0.469   0.456  0.00  0.00    +0.167 A 
BRANCH  16  19
ATOM     19  C   UNL     1      -3.515   0.381   0.210  0.00  0.00    +0.020 A 
ATOM     20  C   UNL     1      -6.259   0.209  -0.268  0.00  0.00    -0.042 A 
ATOM     23  C   UNL     1      -3.984   0.115  -1.077  0.00  0.00    +0.012 A 
ATOM     24  C   UNL     1      -4.419   0.561   1.258  0.00  0.00    +0.012 A 
ATOM     25  C   UNL     1      -5.356   0.029  -1.316  0.00  0.00    +0.005 A 
ATOM     26  C   UNL     1      -5.790   0.475   1.019  0.00  0.00    +0.005 A 
BRANCH  20  18
ATOM     18  C   UNL     1      -7.725   0.117  -0.523  0.00  0.00    -0.013 C 
ATOM     27  C   UNL     1      -8.115  -1.287  -1.081  0.00  0.00    +0.015 C 
ATOM     28  C   UNL     1      -8.185   1.182  -1.567  0.00  0.00    +0.015 C 
ATOM     29  C   UNL     1      -8.640   0.338   0.727  0.00  0.00    +0.015 C 
ENDBRANCH  20  18
ENDBRANCH  16  19
ENDBRANCH  11  13
TORSDOF 7
