MODEL 1
REMARK VINA RESULT:      -6.3      0.000      0.000
REMARK  Name = 75537076
REMARK  4 active torsions:
REMARK  status: ('A' for Active; 'I' for Inactive)
REMARK    1  A    between atoms: N_2  and  C_9
REMARK    2  A    between atoms: N_4  and  C_16
REMARK    3  A    between atoms: C_6  and  C_9
REMARK    4  A    between atoms: C_16  and  C_17
REMARK                            x       y       z     vdW  Elec       q    Type
REMARK                         _______ _______ _______ _____ _____    ______ ____
ROOT
ATOM      1  O   UNL     1      14.389   7.744  17.470  0.00  0.00    -0.252 OA
ATOM      2  N   UNL     1      11.159   8.331  21.341  0.00  0.00    -0.299 NA
ATOM      3  N   UNL     1      13.005   7.570  19.360  0.00  0.00    -0.278 N 
ATOM      4  N   UNL     1      15.088   6.738  19.487  0.00  0.00    -0.278 N 
ATOM     10  C   UNL     1      13.062   6.928  20.657  0.00  0.00    +0.109 C 
ATOM     11  C   UNL     1      12.500   7.856  21.734  0.00  0.00    +0.108 C 
ATOM     12  C   UNL     1      11.216   9.072  20.064  0.00  0.00    +0.103 C 
ATOM     13  C   UNL     1      11.773   8.202  18.936  0.00  0.00    +0.125 C 
ATOM     14  C   UNL     1      14.538   6.573  20.821  0.00  0.00    +0.133 C 
ATOM     15  C   UNL     1      14.184   7.391  18.624  0.00  0.00    +0.306 C 
ENDROOT
BRANCH   2   9
ATOM      9  C   UNL     1      10.587   9.171  22.393  0.00  0.00    +0.088 C 
BRANCH   9   6
ATOM      6  C   UNL     1      11.518  10.275  22.773  0.00  0.00    +0.003 C 
ATOM      7  C   UNL     1      11.270  11.080  24.018  0.00  0.00    +0.005 C 
ATOM      8  C   UNL     1      11.075  11.709  22.667  0.00  0.00    +0.005 C 
ENDBRANCH   9   6
ENDBRANCH   2   9
BRANCH   4  16
ATOM     16  C   UNL     1      16.457   6.395  19.173  0.00  0.00    +0.164 C 
BRANCH  16  17
ATOM      5  N   UNL     1      17.202   8.235  20.572  0.00  0.00    -0.258 NA
ATOM     17  C   UNL     1      17.423   6.963  20.172  0.00  0.00    +0.059 A 
ATOM     18  C   UNL     1      18.469   6.177  20.627  0.00  0.00    +0.025 A 
ATOM     19  C   UNL     1      19.345   6.733  21.553  0.00  0.00    +0.003 A 
ATOM     20  C   UNL     1      18.073   8.742  21.473  0.00  0.00    +0.111 A 
ATOM     21  C   UNL     1      19.150   8.039  21.989  0.00  0.00    +0.020 A 
ENDBRANCH  16  17
ENDBRANCH   4  16
TORSDOF 4
ENDMDL
MODEL 2
REMARK VINA RESULT:      -5.8      2.085      7.569
REMARK  Name = 75537076
REMARK  4 active torsions:
REMARK  status: ('A' for Active; 'I' for Inactive)
REMARK    1  A    between atoms: N_2  and  C_9
REMARK    2  A    between atoms: N_4  and  C_16
REMARK    3  A    between atoms: C_6  and  C_9
REMARK    4  A    between atoms: C_16  and  C_17
REMARK                            x       y       z     vdW  Elec       q    Type
REMARK                         _______ _______ _______ _____ _____    ______ ____
ROOT
ATOM      1  O   UNL     1      16.046   9.843  20.453  0.00  0.00    -0.252 OA
ATOM      2  N   UNL     1      19.726   6.428  21.198  0.00  0.00    -0.299 NA
ATOM      3  N   UNL     1      17.393   7.964  20.865  0.00  0.00    -0.278 N 
ATOM      4  N   UNL     1      15.615   7.722  19.515  0.00  0.00    -0.278 N 
ATOM     10  C   UNL     1      17.348   6.546  20.573  0.00  0.00    +0.109 C 
ATOM     11  C   UNL     1      18.734   6.041  20.175  0.00  0.00    +0.108 C 
ATOM     12  C   UNL     1      19.784   7.896  21.347  0.00  0.00    +0.103 C 
ATOM     13  C   UNL     1      18.424   8.474  21.745  0.00  0.00    +0.125 C 
ATOM     14  C   UNL     1      16.286   6.435  19.482  0.00  0.00    +0.133 C 
ATOM     15  C   UNL     1      16.315   8.659  20.302  0.00  0.00    +0.306 C 
ENDROOT
BRANCH   2   9
ATOM      9  C   UNL     1      21.045   5.897  20.857  0.00  0.00    +0.088 C 
BRANCH   9   6
ATOM      6  C   UNL     1      21.440   4.790  21.779  0.00  0.00    +0.003 C 
ATOM      7  C   UNL     1      22.856   4.284  21.791  0.00  0.00    +0.005 C 
ATOM      8  C   UNL     1      21.757   3.425  21.231  0.00  0.00    +0.005 C 
ENDBRANCH   9   6
ENDBRANCH   2   9
BRANCH   4  16
ATOM     16  C   UNL     1      14.454   8.004  18.699  0.00  0.00    +0.164 C 
BRANCH  16  17
ATOM      5  N   UNL     1      12.558   9.217  19.611  0.00  0.00    -0.258 NA
ATOM     17  C   UNL     1      13.190   8.027  19.508  0.00  0.00    +0.059 A 
ATOM     18  C   UNL     1      12.740   6.855  20.096  0.00  0.00    +0.025 A 
ATOM     19  C   UNL     1      11.566   6.910  20.839  0.00  0.00    +0.003 A 
ATOM     20  C   UNL     1      11.419   9.232  20.340  0.00  0.00    +0.111 A 
ATOM     21  C   UNL     1      10.886   8.117  20.967  0.00  0.00    +0.020 A 
ENDBRANCH  16  17
ENDBRANCH   4  16
TORSDOF 4
ENDMDL
MODEL 3
REMARK VINA RESULT:      -5.8     16.763     18.882
REMARK  Name = 75537076
REMARK  4 active torsions:
REMARK  status: ('A' for Active; 'I' for Inactive)
REMARK    1  A    between atoms: N_2  and  C_9
REMARK    2  A    between atoms: N_4  and  C_16
REMARK    3  A    between atoms: C_6  and  C_9
REMARK    4  A    between atoms: C_16  and  C_17
REMARK                            x       y       z     vdW  Elec       q    Type
REMARK                         _______ _______ _______ _____ _____    ______ ____
ROOT
ATOM      1  O   UNL     1      13.945   6.012   2.267  0.00  0.00    -0.252 OA
ATOM      2  N   UNL     1       9.707   6.029   5.059  0.00  0.00    -0.299 NA
ATOM      3  N   UNL     1      11.788   5.827   3.178  0.00  0.00    -0.278 N 
ATOM      4  N   UNL     1      12.611   4.082   2.029  0.00  0.00    -0.278 N 
ATOM     10  C   UNL     1      10.691   4.883   3.116  0.00  0.00    +0.109 C 
ATOM     11  C   UNL     1      10.061   4.710   4.497  0.00  0.00    +0.108 C 
ATOM     12  C   UNL     1      10.904   6.883   5.192  0.00  0.00    +0.103 C 
ATOM     13  C   UNL     1      11.591   7.099   3.842  0.00  0.00    +0.125 C 
ATOM     14  C   UNL     1      11.332   3.622   2.540  0.00  0.00    +0.133 C 
ATOM     15  C   UNL     1      12.910   5.389   2.463  0.00  0.00    +0.306 C 
ENDROOT
BRANCH   2   9
ATOM      9  C   UNL     1       9.046   5.871   6.354  0.00  0.00    +0.088 C 
BRANCH   9   6
ATOM      6  C   UNL     1      10.020   5.474   7.416  0.00  0.00    +0.003 C 
ATOM      7  C   UNL     1       9.793   4.227   8.223  0.00  0.00    +0.005 C 
ATOM      8  C   UNL     1       9.641   5.577   8.868  0.00  0.00    +0.005 C 
ENDBRANCH   9   6
ENDBRANCH   2   9
BRANCH   4  16
ATOM     16  C   UNL     1      13.502   3.210   1.294  0.00  0.00    +0.164 C 
BRANCH  16  17
ATOM      5  N   UNL     1      12.448   3.172  -0.893  0.00  0.00    -0.258 NA
ATOM     17  C   UNL     1      13.529   3.539  -0.170  0.00  0.00    +0.059 A 
ATOM     18  C   UNL     1      14.634   4.187  -0.699  0.00  0.00    +0.025 A 
ATOM     19  C   UNL     1      14.628   4.477  -2.059  0.00  0.00    +0.003 A 
ATOM     20  C   UNL     1      12.478   3.472  -2.212  0.00  0.00    +0.111 A 
ATOM     21  C   UNL     1      13.533   4.117  -2.837  0.00  0.00    +0.020 A 
ENDBRANCH  16  17
ENDBRANCH   4  16
TORSDOF 4
ENDMDL
MODEL 4
REMARK VINA RESULT:      -5.5     14.814     17.010
REMARK  Name = 75537076
REMARK  4 active torsions:
REMARK  status: ('A' for Active; 'I' for Inactive)
REMARK    1  A    between atoms: N_2  and  C_9
REMARK    2  A    between atoms: N_4  and  C_16
REMARK    3  A    between atoms: C_6  and  C_9
REMARK    4  A    between atoms: C_16  and  C_17
REMARK                            x       y       z     vdW  Elec       q    Type
REMARK                         _______ _______ _______ _____ _____    ______ ____
ROOT
ATOM      1  O   UNL     1      13.608   7.843   3.865  0.00  0.00    -0.252 OA
ATOM      2  N   UNL     1       9.686   7.361   7.050  0.00  0.00    -0.299 NA
ATOM      3  N   UNL     1      11.550   7.829   4.996  0.00  0.00    -0.278 N 
ATOM      4  N   UNL     1      11.577   7.239   2.829  0.00  0.00    -0.278 N 
ATOM     10  C   UNL     1      10.155   7.646   4.651  0.00  0.00    +0.109 C 
ATOM     11  C   UNL     1       9.453   6.793   5.707  0.00  0.00    +0.108 C 
ATOM     12  C   UNL     1      11.130   7.402   7.361  0.00  0.00    +0.103 C 
ATOM     13  C   UNL     1      11.899   8.242   6.339  0.00  0.00    +0.125 C 
ATOM     14  C   UNL     1      10.205   7.029   3.255  0.00  0.00    +0.133 C 
ATOM     15  C   UNL     1      12.398   7.665   3.893  0.00  0.00    +0.306 C 
ENDROOT
BRANCH   2   9
ATOM      9  C   UNL     1       8.968   6.587   8.062  0.00  0.00    +0.088 C 
BRANCH   9   6
ATOM      6  C   UNL     1       9.868   5.598   8.729  0.00  0.00    +0.003 C 
ATOM      7  C   UNL     1       9.702   4.127   8.467  0.00  0.00    +0.005 C 
ATOM      8  C   UNL     1       9.335   4.696   9.809  0.00  0.00    +0.005 C 
ENDBRANCH   9   6
ENDBRANCH   2   9
BRANCH   4  16
ATOM     16  C   UNL     1      12.029   6.892   1.499  0.00  0.00    +0.164 C 
BRANCH  16  17
ATOM      5  N   UNL     1      14.181   5.796   1.243  0.00  0.00    -0.258 NA
ATOM     17  C   UNL     1      12.862   5.644   1.496  0.00  0.00    +0.059 A 
ATOM     18  C   UNL     1      12.256   4.423   1.746  0.00  0.00    +0.025 A 
ATOM     19  C   UNL     1      13.055   3.286   1.736  0.00  0.00    +0.003 A 
ATOM     20  C   UNL     1      14.927   4.669   1.243  0.00  0.00    +0.111 A 
ATOM     21  C   UNL     1      14.418   3.402   1.481  0.00  0.00    +0.020 A 
ENDBRANCH  16  17
ENDBRANCH   4  16
TORSDOF 4
ENDMDL
MODEL 5
REMARK VINA RESULT:      -5.5     26.413     27.757
REMARK  Name = 75537076
REMARK  4 active torsions:
REMARK  status: ('A' for Active; 'I' for Inactive)
REMARK    1  A    between atoms: N_2  and  C_9
REMARK    2  A    between atoms: N_4  and  C_16
REMARK    3  A    between atoms: C_6  and  C_9
REMARK    4  A    between atoms: C_16  and  C_17
REMARK                            x       y       z     vdW  Elec       q    Type
REMARK                         _______ _______ _______ _____ _____    ______ ____
ROOT
ATOM      1  O   UNL     1      -3.631 -14.030  14.341  0.00  0.00    -0.252 OA
ATOM      2  N   UNL     1      -5.679 -10.856  17.731  0.00  0.00    -0.299 NA
ATOM      3  N   UNL     1      -4.134 -12.433  15.988  0.00  0.00    -0.278 N 
ATOM      4  N   UNL     1      -2.630 -11.895  14.409  0.00  0.00    -0.278 N 
ATOM     10  C   UNL     1      -3.634 -11.134  16.390  0.00  0.00    +0.109 C 
ATOM     11  C   UNL     1      -4.795 -10.205  16.744  0.00  0.00    +0.108 C 
ATOM     12  C   UNL     1      -6.232 -12.116  17.192  0.00  0.00    +0.103 C 
ATOM     13  C   UNL     1      -5.122 -13.098  16.812  0.00  0.00    +0.125 C 
ATOM     14  C   UNL     1      -2.794 -10.685  15.197  0.00  0.00    +0.133 C 
ATOM     15  C   UNL     1      -3.481 -12.928  14.852  0.00  0.00    +0.306 C 
ENDROOT
BRANCH   2   9
ATOM      9  C   UNL     1      -6.759  -9.951  18.123  0.00  0.00    +0.088 C 
BRANCH   9   6
ATOM      6  C   UNL     1      -7.862  -9.953  17.114  0.00  0.00    +0.003 C 
ATOM      7  C   UNL     1      -8.742  -8.745  16.955  0.00  0.00    +0.005 C 
ATOM      8  C   UNL     1      -9.297 -10.004  17.562  0.00  0.00    +0.005 C 
ENDBRANCH   9   6
ENDBRANCH   2   9
BRANCH   4  16
ATOM     16  C   UNL     1      -1.794 -11.935  13.229  0.00  0.00    +0.164 C 
BRANCH  16  17
ATOM      5  N   UNL     1      -3.492 -11.511  11.547  0.00  0.00    -0.258 NA
ATOM     17  C   UNL     1      -2.345 -11.087  12.121  0.00  0.00    +0.059 A 
ATOM     18  C   UNL     1      -1.668  -9.936  11.746  0.00  0.00    +0.025 A 
ATOM     19  C   UNL     1      -2.205  -9.172  10.716  0.00  0.00    +0.003 A 
ATOM     20  C   UNL     1      -3.985 -10.742  10.549  0.00  0.00    +0.111 A 
ATOM     21  C   UNL     1      -3.386  -9.576  10.101  0.00  0.00    +0.020 A 
ENDBRANCH  16  17
ENDBRANCH   4  16
TORSDOF 4
ENDMDL
MODEL 6
REMARK VINA RESULT:      -5.5     28.794     31.216
REMARK  Name = 75537076
REMARK  4 active torsions:
REMARK  status: ('A' for Active; 'I' for Inactive)
REMARK    1  A    between atoms: N_2  and  C_9
REMARK    2  A    between atoms: N_4  and  C_16
REMARK    3  A    between atoms: C_6  and  C_9
REMARK    4  A    between atoms: C_16  and  C_17
REMARK                            x       y       z     vdW  Elec       q    Type
REMARK                         _______ _______ _______ _____ _____    ______ ____
ROOT
ATOM      1  O   UNL     1     -13.825   5.867  35.073  0.00  0.00    -0.252 OA
ATOM      2  N   UNL     1     -15.022   2.718  31.276  0.00  0.00    -0.299 NA
ATOM      3  N   UNL     1     -14.756   4.687  33.268  0.00  0.00    -0.278 N 
ATOM      4  N   UNL     1     -14.724   6.930  33.168  0.00  0.00    -0.278 N 
ATOM     10  C   UNL     1     -15.481   5.007  32.056  0.00  0.00    +0.109 C 
ATOM     11  C   UNL     1     -14.985   4.144  30.896  0.00  0.00    +0.108 C 
ATOM     12  C   UNL     1     -14.164   2.464  32.452  0.00  0.00    +0.103 C 
ATOM     13  C   UNL     1     -14.603   3.300  33.657  0.00  0.00    +0.125 C 
ATOM     14  C   UNL     1     -15.253   6.507  31.884  0.00  0.00    +0.133 C 
ATOM     15  C   UNL     1     -14.371   5.831  33.978  0.00  0.00    +0.306 C 
ENDROOT
BRANCH   2   9
ATOM      9  C   UNL     1     -14.607   1.879  30.152  0.00  0.00    +0.088 C 
BRANCH   9   6
ATOM      6  C   UNL     1     -14.073   0.566  30.623  0.00  0.00    +0.003 C 
ATOM      7  C   UNL     1     -13.851  -0.554  29.645  0.00  0.00    +0.005 C 
ATOM      8  C   UNL     1     -14.964  -0.647  30.652  0.00  0.00    +0.005 C 
ENDBRANCH   9   6
ENDBRANCH   2   9
BRANCH   4  16
ATOM     16  C   UNL     1     -14.468   8.321  33.472  0.00  0.00    +0.164 C 
BRANCH  16  17
ATOM      5  N   UNL     1     -13.931   9.930  31.735  0.00  0.00    -0.258 NA
ATOM     17  C   UNL     1     -13.478   8.931  32.524  0.00  0.00    +0.059 A 
ATOM     18  C   UNL     1     -12.177   8.454  32.502  0.00  0.00    +0.025 A 
ATOM     19  C   UNL     1     -11.284   9.040  31.613  0.00  0.00    +0.003 A 
ATOM     20  C   UNL     1     -13.034  10.476  30.883  0.00  0.00    +0.111 A 
ATOM     21  C   UNL     1     -11.712  10.072  30.784  0.00  0.00    +0.020 A 
ENDBRANCH  16  17
ENDBRANCH   4  16
TORSDOF 4
ENDMDL
MODEL 7
REMARK VINA RESULT:      -5.3     26.985     28.378
REMARK  Name = 75537076
REMARK  4 active torsions:
REMARK  status: ('A' for Active; 'I' for Inactive)
REMARK    1  A    between atoms: N_2  and  C_9
REMARK    2  A    between atoms: N_4  and  C_16
REMARK    3  A    between atoms: C_6  and  C_9
REMARK    4  A    between atoms: C_16  and  C_17
REMARK                            x       y       z     vdW  Elec       q    Type
REMARK                         _______ _______ _______ _____ _____    ______ ____
ROOT
ATOM      1  O   UNL     1      -6.237  -8.793  11.547  0.00  0.00    -0.252 OA
ATOM      2  N   UNL     1      -4.482 -11.011  15.762  0.00  0.00    -0.299 NA
ATOM      3  N   UNL     1      -5.278 -10.154  13.203  0.00  0.00    -0.278 N 
ATOM      4  N   UNL     1      -4.124  -9.816  11.306  0.00  0.00    -0.278 N 
ATOM     10  C   UNL     1      -4.113 -11.007  13.329  0.00  0.00    +0.109 C 
ATOM     11  C   UNL     1      -3.469 -10.828  14.703  0.00  0.00    +0.108 C 
ATOM     12  C   UNL     1      -5.574 -10.025  15.622  0.00  0.00    +0.103 C 
ATOM     13  C   UNL     1      -6.265 -10.145  14.262  0.00  0.00    +0.125 C 
ATOM     14  C   UNL     1      -3.235 -10.595  12.149  0.00  0.00    +0.133 C 
ATOM     15  C   UNL     1      -5.331  -9.502  11.965  0.00  0.00    +0.306 C 
ENDROOT
BRANCH   2   9
ATOM      9  C   UNL     1      -3.864 -10.903  17.083  0.00  0.00    +0.088 C 
BRANCH   9   6
ATOM      6  C   UNL     1      -4.450 -11.890  18.039  0.00  0.00    +0.003 C 
ATOM      7  C   UNL     1      -5.151 -11.416  19.281  0.00  0.00    +0.005 C 
ATOM      8  C   UNL     1      -3.818 -12.104  19.388  0.00  0.00    +0.005 C 
ENDBRANCH   9   6
ENDBRANCH   2   9
BRANCH   4  16
ATOM     16  C   UNL     1      -3.714  -9.317  10.012  0.00  0.00    +0.164 C 
BRANCH  16  17
ATOM      5  N   UNL     1      -4.113 -11.380   8.796  0.00  0.00    -0.258 NA
ATOM     17  C   UNL     1      -4.377 -10.058   8.888  0.00  0.00    +0.059 A 
ATOM     18  C   UNL     1      -5.207  -9.370   8.018  0.00  0.00    +0.025 A 
ATOM     19  C   UNL     1      -5.806 -10.085   6.987  0.00  0.00    +0.003 A 
ATOM     20  C   UNL     1      -4.714 -12.044   7.782  0.00  0.00    +0.111 A 
ATOM     21  C   UNL     1      -5.561 -11.449   6.860  0.00  0.00    +0.020 A 
ENDBRANCH  16  17
ENDBRANCH   4  16
TORSDOF 4
ENDMDL
MODEL 8
REMARK VINA RESULT:      -5.3     13.947     15.346
REMARK  Name = 75537076
REMARK  4 active torsions:
REMARK  status: ('A' for Active; 'I' for Inactive)
REMARK    1  A    between atoms: N_2  and  C_9
REMARK    2  A    between atoms: N_4  and  C_16
REMARK    3  A    between atoms: C_6  and  C_9
REMARK    4  A    between atoms: C_16  and  C_17
REMARK                            x       y       z     vdW  Elec       q    Type
REMARK                         _______ _______ _______ _____ _____    ______ ____
ROOT
ATOM      1  O   UNL     1      15.495   8.842   2.899  0.00  0.00    -0.252 OA
ATOM      2  N   UNL     1      12.213   6.828   6.206  0.00  0.00    -0.299 NA
ATOM      3  N   UNL     1      14.358   7.703   4.610  0.00  0.00    -0.278 N 
ATOM      4  N   UNL     1      16.287   8.734   5.119  0.00  0.00    -0.278 N 
ATOM     10  C   UNL     1      14.611   7.341   5.989  0.00  0.00    +0.109 C 
ATOM     11  C   UNL     1      13.350   7.535   6.830  0.00  0.00    +0.108 C 
ATOM     12  C   UNL     1      11.956   7.342   4.845  0.00  0.00    +0.103 C 
ATOM     13  C   UNL     1      13.182   7.181   3.944  0.00  0.00    +0.125 C 
ATOM     14  C   UNL     1      15.790   8.226   6.385  0.00  0.00    +0.133 C 
ATOM     15  C   UNL     1      15.394   8.469   4.060  0.00  0.00    +0.306 C 
ENDROOT
BRANCH   2   9
ATOM      9  C   UNL     1      11.015   6.957   7.035  0.00  0.00    +0.088 C 
BRANCH   9   6
ATOM      6  C   UNL     1      10.849   5.777   7.936  0.00  0.00    +0.003 C 
ATOM      7  C   UNL     1       9.850   4.705   7.601  0.00  0.00    +0.005 C 
ATOM      8  C   UNL     1       9.601   5.626   8.763  0.00  0.00    +0.005 C 
ENDBRANCH   9   6
ENDBRANCH   2   9
BRANCH   4  16
ATOM     16  C   UNL     1      17.484   9.541   5.032  0.00  0.00    +0.164 C 
BRANCH  16  17
ATOM      5  N   UNL     1      19.113   7.915   4.259  0.00  0.00    -0.258 NA
ATOM     17  C   UNL     1      18.727   8.731   5.264  0.00  0.00    +0.059 A 
ATOM     18  C   UNL     1      19.402   8.855   6.468  0.00  0.00    +0.025 A 
ATOM     19  C   UNL     1      20.549   8.091   6.651  0.00  0.00    +0.003 A 
ATOM     20  C   UNL     1      20.234   7.188   4.472  0.00  0.00    +0.111 A 
ATOM     21  C   UNL     1      20.981   7.240   5.638  0.00  0.00    +0.020 A 
ENDBRANCH  16  17
ENDBRANCH   4  16
TORSDOF 4
ENDMDL
MODEL 9
REMARK VINA RESULT:      -5.1     26.774     28.190
REMARK  Name = 75537076
REMARK  4 active torsions:
REMARK  status: ('A' for Active; 'I' for Inactive)
REMARK    1  A    between atoms: N_2  and  C_9
REMARK    2  A    between atoms: N_4  and  C_16
REMARK    3  A    between atoms: C_6  and  C_9
REMARK    4  A    between atoms: C_16  and  C_17
REMARK                            x       y       z     vdW  Elec       q    Type
REMARK                         _______ _______ _______ _____ _____    ______ ____
ROOT
ATOM      1  O   UNL     1      19.876  -8.582   0.182  0.00  0.00    -0.252 OA
ATOM      2  N   UNL     1      17.225  -6.058  -3.334  0.00  0.00    -0.299 NA
ATOM      3  N   UNL     1      18.768  -7.773  -1.724  0.00  0.00    -0.278 N 
ATOM      4  N   UNL     1      18.556  -9.950  -1.214  0.00  0.00    -0.278 N 
ATOM     10  C   UNL     1      18.016  -8.333  -2.828  0.00  0.00    +0.109 C 
ATOM     11  C   UNL     1      16.802  -7.460  -3.142  0.00  0.00    +0.108 C 
ATOM     12  C   UNL     1      17.881  -5.535  -2.118  0.00  0.00    +0.103 C 
ATOM     13  C   UNL     1      19.109  -6.366  -1.741  0.00  0.00    +0.125 C 
ATOM     14  C   UNL     1      17.684  -9.748  -2.359  0.00  0.00    +0.133 C 
ATOM     15  C   UNL     1      19.162  -8.747  -0.797  0.00  0.00    +0.306 C 
ENDROOT
BRANCH   2   9
ATOM      9  C   UNL     1      16.079  -5.224  -3.695  0.00  0.00    +0.088 C 
BRANCH   9   6
ATOM      6  C   UNL     1      14.845  -6.046  -3.874  0.00  0.00    +0.003 C 
ATOM      7  C   UNL     1      13.752  -5.579  -4.794  0.00  0.00    +0.005 C 
ATOM      8  C   UNL     1      13.533  -5.576  -3.307  0.00  0.00    +0.005 C 
ENDBRANCH   9   6
ENDBRANCH   2   9
BRANCH   4  16
ATOM     16  C   UNL     1      18.638 -11.220  -0.527  0.00  0.00    +0.164 C 
BRANCH  16  17
ATOM      5  N   UNL     1      17.812 -10.807   1.719  0.00  0.00    -0.258 NA
ATOM     17  C   UNL     1      17.567 -11.367   0.514  0.00  0.00    +0.059 A 
ATOM     18  C   UNL     1      16.404 -12.054   0.200  0.00  0.00    +0.025 A 
ATOM     19  C   UNL     1      15.432 -12.171   1.186  0.00  0.00    +0.003 A 
ATOM     20  C   UNL     1      16.843 -10.941   2.653  0.00  0.00    +0.111 A 
ATOM     21  C   UNL     1      15.647 -11.606   2.439  0.00  0.00    +0.020 A 
ENDBRANCH  16  17
ENDBRANCH   4  16
TORSDOF 4
ENDMDL
MODEL 10
REMARK VINA RESULT:      -5.1     26.478     28.342
REMARK  Name = 75537076
REMARK  4 active torsions:
REMARK  status: ('A' for Active; 'I' for Inactive)
REMARK    1  A    between atoms: N_2  and  C_9
REMARK    2  A    between atoms: N_4  and  C_16
REMARK    3  A    between atoms: C_6  and  C_9
REMARK    4  A    between atoms: C_16  and  C_17
REMARK                            x       y       z     vdW  Elec       q    Type
REMARK                         _______ _______ _______ _____ _____    ______ ____
ROOT
ATOM      1  O   UNL     1      -6.600 -12.564  18.997  0.00  0.00    -0.252 OA
ATOM      2  N   UNL     1      -9.637  -9.036  16.973  0.00  0.00    -0.299 NA
ATOM      3  N   UNL     1      -7.648 -10.640  18.149  0.00  0.00    -0.278 N 
ATOM      4  N   UNL     1      -5.499 -11.007  17.609  0.00  0.00    -0.278 N 
ATOM     10  C   UNL     1      -7.252  -9.459  17.411  0.00  0.00    +0.109 C 
ATOM     11  C   UNL     1      -8.300  -9.118  16.352  0.00  0.00    +0.108 C 
ATOM     12  C   UNL     1     -10.004 -10.321  17.603  0.00  0.00    +0.103 C 
ATOM     13  C   UNL     1      -8.993 -10.728  18.677  0.00  0.00    +0.125 C 
ATOM     14  C   UNL     1      -5.875  -9.821  16.858  0.00  0.00    +0.133 C 
ATOM     15  C   UNL     1      -6.584 -11.532  18.340  0.00  0.00    +0.306 C 
ENDROOT
BRANCH   2   9
ATOM      9  C   UNL     1     -10.638  -8.650  15.980  0.00  0.00    +0.088 C 
BRANCH   9   6
ATOM      6  C   UNL     1     -10.492  -7.215  15.591  0.00  0.00    +0.003 C 
ATOM      7  C   UNL     1     -11.217  -6.145  16.359  0.00  0.00    +0.005 C 
ATOM      8  C   UNL     1     -11.643  -6.482  14.957  0.00  0.00    +0.005 C 
ENDBRANCH   9   6
ENDBRANCH   2   9
BRANCH   4  16
ATOM     16  C   UNL     1      -4.197 -11.622  17.469  0.00  0.00    +0.164 C 
BRANCH  16  17
ATOM      5  N   UNL     1      -4.210 -11.783  15.046  0.00  0.00    -0.258 NA
ATOM     17  C   UNL     1      -3.570 -11.315  16.140  0.00  0.00    +0.059 A 
ATOM     18  C   UNL     1      -2.393 -10.584  16.098  0.00  0.00    +0.025 A 
ATOM     19  C   UNL     1      -1.838 -10.317  14.853  0.00  0.00    +0.003 A 
ATOM     20  C   UNL     1      -3.641 -11.502  13.851  0.00  0.00    +0.111 A 
ATOM     21  C   UNL     1      -2.468 -10.780  13.702  0.00  0.00    +0.020 A 
ENDBRANCH  16  17
ENDBRANCH   4  16
TORSDOF 4
ENDMDL
