REMARK  Name = 26745534
REMARK  5 active torsions:
REMARK  status: ('A' for Active; 'I' for Inactive)
REMARK    1  A    between atoms: O_1  and  C_12
REMARK    2  A    between atoms: O_1  and  C_19
REMARK    3  A    between atoms: N_5  and  C_15
REMARK    4  A    between atoms: C_7  and  C_12
REMARK    5  A    between atoms: C_13  and  C_16
REMARK                            x       y       z     vdW  Elec       q    Type
REMARK                         _______ _______ _______ _____ _____    ______ ____
ROOT
ATOM      3  O   UNL     1       1.428   2.092  -1.499  0.00  0.00    -0.270 OA
ATOM      4  N   UNL     1       0.055   0.489  -0.474  0.00  0.00    -0.278 N 
ATOM      5  N   UNL     1      -1.723  -2.655   0.517  0.00  0.00    -0.336 N 
ATOM      6  N   UNL     1      -3.388  -1.864  -0.746  0.00  0.00    -0.240 NA
ATOM      7  C   UNL     1      -1.191   1.222  -0.819  0.00  0.00    +0.191 C 
ATOM      8  C   UNL     1      -2.316   0.335  -1.393  0.00  0.00    +0.091 C 
ATOM      9  C   UNL     1      -0.044  -0.748   0.354  0.00  0.00    +0.164 C 
ATOM     10  C   UNL     1      -1.317  -1.434   0.065  0.00  0.00    +0.059 A 
ATOM     11  C   UNL     1      -2.355  -0.970  -0.702  0.00  0.00    +0.066 A 
ATOM     13  C   UNL     1       1.284   1.075  -0.821  0.00  0.00    +0.248 C 
ATOM     14  C   UNL     1      -2.976  -2.870   0.000  0.00  0.00    +0.199 A 
ATOM     15  C   UNL     1      -0.994  -3.556   1.375  0.00  0.00    +0.150 C 
ENDROOT
BRANCH  13  16
ATOM     16  C   UNL     1       2.518   0.438  -0.338  0.00  0.00    +0.037 A 
ATOM     17  C   UNL     1       3.144  -0.541  -1.108  0.00  0.00    +0.013 A 
ATOM     18  C   UNL     1       3.061   0.813   0.891  0.00  0.00    +0.013 A 
ATOM     20  C   UNL     1       4.314  -1.147  -0.649  0.00  0.00    +0.001 A 
ATOM     21  C   UNL     1       4.231   0.207   1.350  0.00  0.00    +0.001 A 
ATOM     22  C   UNL     1       4.858  -0.772   0.579  0.00  0.00    +0.000 A 
ENDBRANCH  13  16
BRANCH   7  12
ATOM      2  O   UNL     1      -1.043   1.819   1.512  0.00  0.00    -0.249 OA
ATOM     12  C   UNL     1      -1.614   1.931   0.435  0.00  0.00    +0.328 C 
BRANCH  12   1
ATOM      1  O   UNL     1      -2.711   2.699   0.177  0.00  0.00    -0.467 OA
ATOM     19  C   UNL     1      -3.223   3.436   1.292  0.00  0.00    +0.280 C 
ENDBRANCH  12   1
ENDBRANCH   7  12
TORSDOF 3
