REMARK  Name = 26743438
REMARK  7 active torsions:
REMARK  status: ('A' for Active; 'I' for Inactive)
REMARK    1  A    between atoms: S_1  and  C_20
REMARK    2  A    between atoms: S_1  and  C_23
REMARK    3  A    between atoms: O_3  and  C_12
REMARK    4  A    between atoms: N_7  and  C_14
REMARK    5  A    between atoms: C_10  and  C_15
REMARK    6  A    between atoms: C_14  and  C_16
REMARK    7  A    between atoms: C_17  and  C_20
REMARK                            x       y       z     vdW  Elec       q    Type
REMARK                         _______ _______ _______ _____ _____    ______ ____
ROOT
ATOM      4  O   UNL     1      -0.975   3.019  -1.283  0.00  0.00    -0.336 OA
ATOM      8  N   UNL     1      -0.475   1.430   0.215  0.00  0.00    -0.193 NA
ATOM      9  N   UNL     1       0.422   3.003  -1.184  0.00  0.00    -0.060 NA
ATOM     15  C   UNL     1      -1.423   2.064  -0.427  0.00  0.00    +0.245 A 
ATOM     17  C   UNL     1       0.640   2.041  -0.282  0.00  0.00    +0.193 A 
ENDROOT
BRANCH  15  10
ATOM      7  N   UNL     1      -3.308   0.505   0.039  0.00  0.00    -0.285 NA
ATOM     10  C   UNL     1      -2.924   1.878  -0.349  0.00  0.00    +0.149 C 
ATOM     11  C   UNL     1      -3.582   2.784   0.708  0.00  0.00    +0.061 C 
ATOM     12  C   UNL     1      -4.350   1.835   1.619  0.00  0.00    +0.130 C 
ATOM     13  C   UNL     1      -4.582   0.616   0.746  0.00  0.00    +0.116 C 
BRANCH  12   3
ATOM      3  O   UNL     1      -5.568   2.419   2.040  0.00  0.00    -0.390 OA
ATOM     30  H   UNL     1      -5.349   3.232   2.526  0.00  0.00    +0.210 HD
ENDBRANCH  12   3
BRANCH   7  14
ATOM     14  C   UNL     1      -3.386  -0.411  -1.091  0.00  0.00    +0.120 C 
BRANCH  14  16
ATOM     16  C   UNL     1      -3.285  -1.848  -0.656  0.00  0.00    -0.033 A 
ATOM     18  C   UNL     1      -2.037  -2.467  -0.575  0.00  0.00    +0.005 A 
ATOM     19  C   UNL     1      -4.439  -2.562  -0.333  0.00  0.00    +0.005 A 
ATOM     21  C   UNL     1      -1.944  -3.799  -0.172  0.00  0.00    +0.000 A 
ATOM     22  C   UNL     1      -4.346  -3.894   0.071  0.00  0.00    +0.000 A 
ATOM     24  C   UNL     1      -3.099  -4.512   0.151  0.00  0.00    +0.000 A 
ENDBRANCH  14  16
ENDBRANCH   7  14
ENDBRANCH  15  10
BRANCH  17  20
ATOM     20  C   UNL     1       1.993   1.666   0.143  0.00  0.00    +0.251 C 
BRANCH  20   1
ATOM      1  S   UNL     1       2.407   0.107  -0.589  0.00  0.00    +0.004 S 
ATOM      5  O   UNL     1       2.410   0.287  -2.029  0.00  0.00    -0.169 OA
ATOM      6  O   UNL     1       1.586  -0.921   0.022  0.00  0.00    -0.169 OA
BRANCH   1  23
ATOM      2  F   UNL     1       7.960  -0.838   1.151  0.00  0.00    -0.205 F 
ATOM     23  C   UNL     1       4.070  -0.177  -0.067  0.00  0.00    +0.089 A 
ATOM     25  C   UNL     1       4.322  -0.859   1.123  0.00  0.00    +0.030 A 
ATOM     26  C   UNL     1       5.133   0.282  -0.846  0.00  0.00    +0.030 A 
ATOM     27  C   UNL     1       5.635  -1.083   1.535  0.00  0.00    +0.040 A 
ATOM     28  C   UNL     1       6.447   0.058  -0.434  0.00  0.00    +0.040 A 
ATOM     29  C   UNL     1       6.698  -0.624   0.756  0.00  0.00    +0.124 A 
ENDBRANCH   1  23
ENDBRANCH  20   1
ENDBRANCH  17  20
TORSDOF 7
