MODEL 1
REMARK VINA RESULT:      -7.1      0.000      0.000
REMARK  Name = 7662800
REMARK  5 active torsions:
REMARK  status: ('A' for Active; 'I' for Inactive)
REMARK    1  A    between atoms: S_1  and  C_20
REMARK    2  A    between atoms: S_1  and  C_26
REMARK    3  A    between atoms: C_14  and  C_19
REMARK    4  A    between atoms: C_16  and  C_20
REMARK    5  A    between atoms: C_23  and  C_27
REMARK                            x       y       z     vdW  Elec       q    Type
REMARK                         _______ _______ _______ _____ _____    ______ ____
ROOT
ATOM      2  O   UNL     1      10.809   8.647  17.383  0.00  0.00    -0.268 OA
ATOM      3  O   UNL     1      11.314  12.106  21.324  0.00  0.00    -0.275 OA
ATOM      4  N   UNL     1      12.289  10.084  21.925  0.00  0.00    -0.300 N 
ATOM      5  N   UNL     1      12.023   8.242  19.344  0.00  0.00    -0.311 N 
ATOM      7  C   UNL     1      10.866   8.063  21.624  0.00  0.00    +0.027 C 
ATOM      8  C   UNL     1      13.311   7.860  21.469  0.00  0.00    +0.054 C 
ATOM      9  C   UNL     1      12.048   7.179  21.993  0.00  0.00    +0.018 C 
ATOM     10  C   UNL     1      11.010   9.458  22.255  0.00  0.00    +0.113 C 
ATOM     11  C   UNL     1      10.768   8.132  20.100  0.00  0.00    +0.130 C 
ATOM     12  C   UNL     1      13.469   9.238  22.147  0.00  0.00    +0.117 C 
ATOM     13  C   UNL     1      13.278   8.019  19.947  0.00  0.00    +0.034 A 
ATOM     14  C   UNL     1      14.399   7.981  19.181  0.00  0.00    +0.002 A 
ATOM     15  C   UNL     1      11.880   8.462  17.962  0.00  0.00    +0.252 A 
ATOM     16  C   UNL     1      12.319  11.413  21.504  0.00  0.00    +0.225 C 
ATOM     17  C   UNL     1      14.290   8.208  17.752  0.00  0.00    +0.015 A 
ATOM     18  C   UNL     1      13.122   8.451  17.158  0.00  0.00    +0.071 A 
ENDROOT
BRANCH  14  19
ATOM     19  C   UNL     1      15.735   7.733  19.767  0.00  0.00    -0.015 A 
ATOM     21  C   UNL     1      16.399   8.756  20.436  0.00  0.00    +0.027 A 
ATOM     22  C   UNL     1      16.319   6.476  19.642  0.00  0.00    +0.008 A 
ATOM     23  C   UNL     1      17.659   8.520  20.986  0.00  0.00    +0.052 A 
ATOM     24  C   UNL     1      17.579   6.240  20.193  0.00  0.00    +0.002 A 
ATOM     25  C   UNL     1      18.249   7.262  20.864  0.00  0.00    +0.019 A 
BRANCH  23  27
ATOM      6  N   UNL     1      18.904  10.419  22.233  0.00  0.00    -0.191 NA
ATOM     27  C   UNL     1      18.346   9.567  21.674  0.00  0.00    +0.099 C 
ENDBRANCH  23  27
ENDBRANCH  14  19
BRANCH  16  20
ATOM     20  C   UNL     1      13.680  12.012  21.251  0.00  0.00    +0.164 C 
BRANCH  20   1
ATOM      1  S   UNL     1      13.546  13.092  19.819  0.00  0.00    -0.155 S 
ATOM     26  C   UNL     1      13.546  11.833  18.518  0.00  0.00    +0.085 C 
ENDBRANCH  20   1
ENDBRANCH  16  20
TORSDOF 4
ENDMDL
MODEL 2
REMARK VINA RESULT:      -6.5      2.700      5.895
REMARK  Name = 7662800
REMARK  5 active torsions:
REMARK  status: ('A' for Active; 'I' for Inactive)
REMARK    1  A    between atoms: S_1  and  C_20
REMARK    2  A    between atoms: S_1  and  C_26
REMARK    3  A    between atoms: C_14  and  C_19
REMARK    4  A    between atoms: C_16  and  C_20
REMARK    5  A    between atoms: C_23  and  C_27
REMARK                            x       y       z     vdW  Elec       q    Type
REMARK                         _______ _______ _______ _____ _____    ______ ____
ROOT
ATOM      2  O   UNL     1      11.096   5.868  20.841  0.00  0.00    -0.268 OA
ATOM      3  O   UNL     1      16.251   6.587  20.030  0.00  0.00    -0.275 OA
ATOM      4  N   UNL     1      15.082   8.486  19.377  0.00  0.00    -0.300 N 
ATOM      5  N   UNL     1      12.049   7.885  20.128  0.00  0.00    -0.311 N 
ATOM      7  C   UNL     1      13.167   8.102  17.832  0.00  0.00    +0.027 C 
ATOM      8  C   UNL     1      13.125  10.024  19.363  0.00  0.00    +0.054 C 
ATOM      9  C   UNL     1      12.785   9.570  17.945  0.00  0.00    +0.018 C 
ATOM     10  C   UNL     1      14.669   7.907  18.100  0.00  0.00    +0.113 C 
ATOM     11  C   UNL     1      12.304   7.299  18.805  0.00  0.00    +0.130 C 
ATOM     12  C   UNL     1      14.642   9.870  19.601  0.00  0.00    +0.117 C 
ATOM     13  C   UNL     1      12.340   9.235  20.413  0.00  0.00    +0.034 A 
ATOM     14  C   UNL     1      11.950   9.775  21.597  0.00  0.00    +0.002 A 
ATOM     15  C   UNL     1      11.387   7.047  21.043  0.00  0.00    +0.252 A 
ATOM     16  C   UNL     1      15.893   7.749  20.239  0.00  0.00    +0.225 C 
ATOM     17  C   UNL     1      11.268   8.939  22.567  0.00  0.00    +0.015 A 
ATOM     18  C   UNL     1      11.006   7.653  22.339  0.00  0.00    +0.071 A 
ENDROOT
BRANCH  14  19
ATOM     19  C   UNL     1      12.217  11.191  21.933  0.00  0.00    -0.015 A 
ATOM     21  C   UNL     1      11.291  12.172  21.587  0.00  0.00    +0.027 A 
ATOM     22  C   UNL     1      13.394  11.533  22.592  0.00  0.00    +0.008 A 
ATOM     23  C   UNL     1      11.546  13.505  21.904  0.00  0.00    +0.052 A 
ATOM     24  C   UNL     1      13.648  12.868  22.908  0.00  0.00    +0.002 A 
ATOM     25  C   UNL     1      12.725  13.853  22.564  0.00  0.00    +0.019 A 
BRANCH  23  27
ATOM      6  N   UNL     1       9.830  15.338  21.265  0.00  0.00    -0.191 NA
ATOM     27  C   UNL     1      10.600  14.516  21.551  0.00  0.00    +0.099 C 
ENDBRANCH  23  27
ENDBRANCH  14  19
BRANCH  16  20
ATOM     20  C   UNL     1      16.338   8.440  21.504  0.00  0.00    +0.164 C 
BRANCH  20   1
ATOM      1  S   UNL     1      17.989   9.094  21.219  0.00  0.00    -0.155 S 
ATOM     26  C   UNL     1      18.953   7.754  21.963  0.00  0.00    +0.085 C 
ENDBRANCH  20   1
ENDBRANCH  16  20
TORSDOF 4
ENDMDL
MODEL 3
REMARK VINA RESULT:      -6.5      2.162      3.227
REMARK  Name = 7662800
REMARK  5 active torsions:
REMARK  status: ('A' for Active; 'I' for Inactive)
REMARK    1  A    between atoms: S_1  and  C_20
REMARK    2  A    between atoms: S_1  and  C_26
REMARK    3  A    between atoms: C_14  and  C_19
REMARK    4  A    between atoms: C_16  and  C_20
REMARK    5  A    between atoms: C_23  and  C_27
REMARK                            x       y       z     vdW  Elec       q    Type
REMARK                         _______ _______ _______ _____ _____    ______ ____
ROOT
ATOM      2  O   UNL     1      10.765   8.668  21.313  0.00  0.00    -0.268 OA
ATOM      3  O   UNL     1      13.229  12.340  18.450  0.00  0.00    -0.275 OA
ATOM      4  N   UNL     1      14.725  11.377  19.944  0.00  0.00    -0.300 N 
ATOM      5  N   UNL     1      13.067   9.091  21.411  0.00  0.00    -0.311 N 
ATOM      7  C   UNL     1      13.985  11.304  22.321  0.00  0.00    +0.027 C 
ATOM      8  C   UNL     1      15.530   9.588  21.477  0.00  0.00    +0.054 C 
ATOM      9  C   UNL     1      15.215  10.481  22.676  0.00  0.00    +0.018 C 
ATOM     10  C   UNL     1      14.248  12.169  21.077  0.00  0.00    +0.113 C 
ATOM     11  C   UNL     1      12.806  10.352  22.118  0.00  0.00    +0.130 C 
ATOM     12  C   UNL     1      15.839  10.469  20.249  0.00  0.00    +0.117 C 
ATOM     13  C   UNL     1      14.377   8.631  21.167  0.00  0.00    +0.034 A 
ATOM     14  C   UNL     1      14.572   7.391  20.647  0.00  0.00    +0.002 A 
ATOM     15  C   UNL     1      11.929   8.322  21.107  0.00  0.00    +0.252 A 
ATOM     16  C   UNL     1      14.166  11.571  18.682  0.00  0.00    +0.225 C 
ATOM     17  C   UNL     1      13.421   6.571  20.318  0.00  0.00    +0.015 A 
ATOM     18  C   UNL     1      12.171   6.990  20.509  0.00  0.00    +0.071 A 
ENDROOT
BRANCH  14  19
ATOM     19  C   UNL     1      15.928   6.859  20.390  0.00  0.00    -0.015 A 
ATOM     21  C   UNL     1      16.894   6.909  21.392  0.00  0.00    +0.027 A 
ATOM     22  C   UNL     1      16.230   6.312  19.146  0.00  0.00    +0.008 A 
ATOM     23  C   UNL     1      18.171   6.408  21.146  0.00  0.00    +0.052 A 
ATOM     24  C   UNL     1      17.509   5.811  18.902  0.00  0.00    +0.002 A 
ATOM     25  C   UNL     1      18.479   5.859  19.901  0.00  0.00    +0.019 A 
BRANCH  23  27
ATOM      6  N   UNL     1      19.976   6.497  23.003  0.00  0.00    -0.191 NA
ATOM     27  C   UNL     1      19.167   6.457  22.171  0.00  0.00    +0.099 C 
ENDBRANCH  23  27
ENDBRANCH  14  19
BRANCH  16  20
ATOM     20  C   UNL     1      14.759  10.771  17.550  0.00  0.00    +0.164 C 
BRANCH  20   1
ATOM      1  S   UNL     1      13.838   9.230  17.427  0.00  0.00    -0.155 S 
ATOM     26  C   UNL     1      12.747   9.665  16.050  0.00  0.00    +0.085 C 
ENDBRANCH  20   1
ENDBRANCH  16  20
TORSDOF 4
ENDMDL
MODEL 4
REMARK VINA RESULT:      -6.5      1.964      4.326
REMARK  Name = 7662800
REMARK  5 active torsions:
REMARK  status: ('A' for Active; 'I' for Inactive)
REMARK    1  A    between atoms: S_1  and  C_20
REMARK    2  A    between atoms: S_1  and  C_26
REMARK    3  A    between atoms: C_14  and  C_19
REMARK    4  A    between atoms: C_16  and  C_20
REMARK    5  A    between atoms: C_23  and  C_27
REMARK                            x       y       z     vdW  Elec       q    Type
REMARK                         _______ _______ _______ _____ _____    ______ ____
ROOT
ATOM      2  O   UNL     1      12.058  12.027  21.772  0.00  0.00    -0.268 OA
ATOM      3  O   UNL     1      10.918   8.161  18.381  0.00  0.00    -0.275 OA
ATOM      4  N   UNL     1      13.149   8.769  18.155  0.00  0.00    -0.300 N 
ATOM      5  N   UNL     1      13.637  10.963  20.408  0.00  0.00    -0.311 N 
ATOM      7  C   UNL     1      13.583  11.203  17.856  0.00  0.00    +0.027 C 
ATOM      8  C   UNL     1      15.288   9.787  18.920  0.00  0.00    +0.054 C 
ATOM      9  C   UNL     1      15.079  10.944  17.945  0.00  0.00    +0.018 C 
ATOM     10  C   UNL     1      12.842   9.953  17.354  0.00  0.00    +0.113 C 
ATOM     11  C   UNL     1      13.085  11.649  19.232  0.00  0.00    +0.130 C 
ATOM     12  C   UNL     1      14.580   8.527  18.379  0.00  0.00    +0.117 C 
ATOM     13  C   UNL     1      14.768  10.127  20.320  0.00  0.00    +0.034 A 
ATOM     14  C   UNL     1      15.335   9.635  21.452  0.00  0.00    +0.002 A 
ATOM     15  C   UNL     1      13.037  11.292  21.637  0.00  0.00    +0.252 A 
ATOM     16  C   UNL     1      12.114   7.937  18.581  0.00  0.00    +0.225 C 
ATOM     17  C   UNL     1      14.742   9.950  22.738  0.00  0.00    +0.015 A 
ATOM     18  C   UNL     1      13.655  10.713  22.851  0.00  0.00    +0.071 A 
ENDROOT
BRANCH  14  19
ATOM     19  C   UNL     1      16.534   8.769  21.410  0.00  0.00    -0.015 A 
ATOM     21  C   UNL     1      17.800   9.330  21.551  0.00  0.00    +0.027 A 
ATOM     22  C   UNL     1      16.387   7.397  21.228  0.00  0.00    +0.008 A 
ATOM     23  C   UNL     1      18.928   8.511  21.510  0.00  0.00    +0.052 A 
ATOM     24  C   UNL     1      17.517   6.578  21.187  0.00  0.00    +0.002 A 
ATOM     25  C   UNL     1      18.786   7.136  21.328  0.00  0.00    +0.019 A 
BRANCH  23  27
ATOM      6  N   UNL     1      21.289   9.547  21.771  0.00  0.00    -0.191 NA
ATOM     27  C   UNL     1      20.230   9.083  21.653  0.00  0.00    +0.099 C 
ENDBRANCH  23  27
ENDBRANCH  14  19
BRANCH  16  20
ATOM     20  C   UNL     1      12.514   6.697  19.340  0.00  0.00    +0.164 C 
BRANCH  20   1
ATOM      1  S   UNL     1      12.422   7.077  21.096  0.00  0.00    -0.155 S 
ATOM     26  C   UNL     1      11.205   5.830  21.589  0.00  0.00    +0.085 C 
ENDBRANCH  20   1
ENDBRANCH  16  20
TORSDOF 4
ENDMDL
MODEL 5
REMARK VINA RESULT:      -6.3     13.850     16.659
REMARK  Name = 7662800
REMARK  5 active torsions:
REMARK  status: ('A' for Active; 'I' for Inactive)
REMARK    1  A    between atoms: S_1  and  C_20
REMARK    2  A    between atoms: S_1  and  C_26
REMARK    3  A    between atoms: C_14  and  C_19
REMARK    4  A    between atoms: C_16  and  C_20
REMARK    5  A    between atoms: C_23  and  C_27
REMARK                            x       y       z     vdW  Elec       q    Type
REMARK                         _______ _______ _______ _____ _____    ______ ____
ROOT
ATOM      2  O   UNL     1       7.192   9.054   4.188  0.00  0.00    -0.268 OA
ATOM      3  O   UNL     1      11.441  10.025   7.146  0.00  0.00    -0.275 OA
ATOM      4  N   UNL     1      11.293   7.748   6.708  0.00  0.00    -0.300 N 
ATOM      5  N   UNL     1       8.784   7.441   4.776  0.00  0.00    -0.311 N 
ATOM      7  C   UNL     1       9.096   6.688   7.207  0.00  0.00    +0.027 C 
ATOM      8  C   UNL     1      10.522   5.750   5.439  0.00  0.00    +0.054 C 
ATOM      9  C   UNL     1       9.585   5.387   6.589  0.00  0.00    +0.018 C 
ATOM     10  C   UNL     1      10.276   7.521   7.733  0.00  0.00    +0.113 C 
ATOM     11  C   UNL     1       8.283   7.448   6.157  0.00  0.00    +0.130 C 
ATOM     12  C   UNL     1      11.727   6.542   5.989  0.00  0.00    +0.117 C 
ATOM     13  C   UNL     1       9.803   6.561   4.358  0.00  0.00    +0.034 A 
ATOM     14  C   UNL     1      10.129   6.481   3.042  0.00  0.00    +0.002 A 
ATOM     15  C   UNL     1       8.097   8.279   3.880  0.00  0.00    +0.252 A 
ATOM     16  C   UNL     1      11.821   9.026   6.529  0.00  0.00    +0.225 C 
ATOM     17  C   UNL     1       9.445   7.333   2.088  0.00  0.00    +0.015 A 
ATOM     18  C   UNL     1       8.499   8.196   2.457  0.00  0.00    +0.071 A 
ENDROOT
BRANCH  14  19
ATOM     19  C   UNL     1      11.179   5.559   2.554  0.00  0.00    -0.015 A 
ATOM     21  C   UNL     1      12.409   6.065   2.142  0.00  0.00    +0.027 A 
ATOM     22  C   UNL     1      10.929   4.191   2.509  0.00  0.00    +0.008 A 
ATOM     23  C   UNL     1      13.396   5.195   1.681  0.00  0.00    +0.052 A 
ATOM     24  C   UNL     1      11.917   3.321   2.047  0.00  0.00    +0.002 A 
ATOM     25  C   UNL     1      13.150   3.823   1.634  0.00  0.00    +0.019 A 
BRANCH  23  27
ATOM      6  N   UNL     1      15.687   6.127   0.911  0.00  0.00    -0.191 NA
ATOM     27  C   UNL     1      14.660   5.709   1.256  0.00  0.00    +0.099 C 
ENDBRANCH  23  27
ENDBRANCH  14  19
BRANCH  16  20
ATOM     20  C   UNL     1      12.917   9.167   5.503  0.00  0.00    +0.164 C 
BRANCH  20   1
ATOM      1  S   UNL     1      14.443   9.537   6.381  0.00  0.00    -0.155 S 
ATOM     26  C   UNL     1      15.235   7.914   6.264  0.00  0.00    +0.085 C 
ENDBRANCH  20   1
ENDBRANCH  16  20
TORSDOF 4
ENDMDL
MODEL 6
REMARK VINA RESULT:      -6.1      2.617      4.850
REMARK  Name = 7662800
REMARK  5 active torsions:
REMARK  status: ('A' for Active; 'I' for Inactive)
REMARK    1  A    between atoms: S_1  and  C_20
REMARK    2  A    between atoms: S_1  and  C_26
REMARK    3  A    between atoms: C_14  and  C_19
REMARK    4  A    between atoms: C_16  and  C_20
REMARK    5  A    between atoms: C_23  and  C_27
REMARK                            x       y       z     vdW  Elec       q    Type
REMARK                         _______ _______ _______ _____ _____    ______ ____
ROOT
ATOM      2  O   UNL     1      13.764   8.078  15.817  0.00  0.00    -0.268 OA
ATOM      3  O   UNL     1      11.293   6.675  20.253  0.00  0.00    -0.275 OA
ATOM      4  N   UNL     1      13.280   7.760  20.772  0.00  0.00    -0.300 N 
ATOM      5  N   UNL     1      14.483   8.662  17.968  0.00  0.00    -0.311 N 
ATOM      7  C   UNL     1      15.317   6.896  19.629  0.00  0.00    +0.027 C 
ATOM      8  C   UNL     1      15.211   9.259  20.300  0.00  0.00    +0.054 C 
ATOM      9  C   UNL     1      16.129   8.041  20.216  0.00  0.00    +0.018 C 
ATOM     10  C   UNL     1      14.102   6.578  20.515  0.00  0.00    +0.113 C 
ATOM     11  C   UNL     1      14.903   7.274  18.206  0.00  0.00    +0.130 C 
ATOM     12  C   UNL     1      14.022   8.942  21.231  0.00  0.00    +0.117 C 
ATOM     13  C   UNL     1      14.704   9.680  18.918  0.00  0.00    +0.034 A 
ATOM     14  C   UNL     1      14.439  10.973  18.597  0.00  0.00    +0.002 A 
ATOM     15  C   UNL     1      13.962   8.925  16.688  0.00  0.00    +0.252 A 
ATOM     16  C   UNL     1      11.895   7.680  20.640  0.00  0.00    +0.225 C 
ATOM     17  C   UNL     1      13.897  11.282  17.287  0.00  0.00    +0.015 A 
ATOM     18  C   UNL     1      13.650  10.339  16.379  0.00  0.00    +0.071 A 
ENDROOT
BRANCH  14  19
ATOM     19  C   UNL     1      14.672  12.077  19.554  0.00  0.00    -0.015 A 
ATOM     21  C   UNL     1      13.662  12.454  20.435  0.00  0.00    +0.027 A 
ATOM     22  C   UNL     1      15.899  12.732  19.566  0.00  0.00    +0.008 A 
ATOM     23  C   UNL     1      13.884  13.496  21.336  0.00  0.00    +0.052 A 
ATOM     24  C   UNL     1      16.120  13.775  20.467  0.00  0.00    +0.002 A 
ATOM     25  C   UNL     1      15.112  14.156  21.351  0.00  0.00    +0.019 A 
BRANCH  23  27
ATOM      6  N   UNL     1      12.011  14.206  22.980  0.00  0.00    -0.191 NA
ATOM     27  C   UNL     1      12.850  13.888  22.242  0.00  0.00    +0.099 C 
ENDBRANCH  23  27
ENDBRANCH  14  19
BRANCH  16  20
ATOM     20  C   UNL     1      11.110   8.918  20.992  0.00  0.00    +0.164 C 
BRANCH  20   1
ATOM      1  S   UNL     1      10.617   8.782  22.717  0.00  0.00    -0.155 S 
ATOM     26  C   UNL     1      10.918  10.492  23.230  0.00  0.00    +0.085 C 
ENDBRANCH  20   1
ENDBRANCH  16  20
TORSDOF 4
ENDMDL
MODEL 7
REMARK VINA RESULT:      -6.1     15.780     19.047
REMARK  Name = 7662800
REMARK  5 active torsions:
REMARK  status: ('A' for Active; 'I' for Inactive)
REMARK    1  A    between atoms: S_1  and  C_20
REMARK    2  A    between atoms: S_1  and  C_26
REMARK    3  A    between atoms: C_14  and  C_19
REMARK    4  A    between atoms: C_16  and  C_20
REMARK    5  A    between atoms: C_23  and  C_27
REMARK                            x       y       z     vdW  Elec       q    Type
REMARK                         _______ _______ _______ _____ _____    ______ ____
ROOT
ATOM      2  O   UNL     1      15.380   7.010   1.205  0.00  0.00    -0.268 OA
ATOM      3  O   UNL     1      11.409   5.897  -2.072  0.00  0.00    -0.275 OA
ATOM      4  N   UNL     1      11.142   4.719  -0.087  0.00  0.00    -0.300 N 
ATOM      5  N   UNL     1      13.533   5.689   1.775  0.00  0.00    -0.311 N 
ATOM      7  C   UNL     1      13.121   3.412   0.672  0.00  0.00    +0.027 C 
ATOM      8  C   UNL     1      11.528   4.277   2.332  0.00  0.00    +0.054 C 
ATOM      9  C   UNL     1      12.399   3.076   1.968  0.00  0.00    +0.018 C 
ATOM     10  C   UNL     1      12.114   3.691  -0.456  0.00  0.00    +0.113 C 
ATOM     11  C   UNL     1      14.043   4.605   0.924  0.00  0.00    +0.130 C 
ATOM     12  C   UNL     1      10.491   4.516   1.215  0.00  0.00    +0.117 C 
ATOM     13  C   UNL     1      12.368   5.538   2.555  0.00  0.00    +0.034 A 
ATOM     14  C   UNL     1      12.017   6.506   3.440  0.00  0.00    +0.002 A 
ATOM     15  C   UNL     1      14.347   6.833   1.851  0.00  0.00    +0.252 A 
ATOM     16  C   UNL     1      10.849   5.747  -0.982  0.00  0.00    +0.225 C 
ATOM     17  C   UNL     1      12.832   7.703   3.543  0.00  0.00    +0.015 A 
ATOM     18  C   UNL     1      13.921   7.887   2.798  0.00  0.00    +0.071 A 
ENDROOT
BRANCH  14  19
ATOM     19  C   UNL     1      10.814   6.384   4.292  0.00  0.00    -0.015 A 
ATOM     21  C   UNL     1      10.887   5.697   5.501  0.00  0.00    +0.027 A 
ATOM     22  C   UNL     1       9.615   6.956   3.878  0.00  0.00    +0.008 A 
ATOM     23  C   UNL     1       9.752   5.582   6.301  0.00  0.00    +0.052 A 
ATOM     24  C   UNL     1       8.479   6.841   4.680  0.00  0.00    +0.002 A 
ATOM     25  C   UNL     1       8.547   6.154   5.891  0.00  0.00    +0.019 A 
BRANCH  23  27
ATOM      6  N   UNL     1       9.879   4.305   8.552  0.00  0.00    -0.191 NA
ATOM     27  C   UNL     1       9.821   4.877   7.543  0.00  0.00    +0.099 C 
ENDBRANCH  23  27
ENDBRANCH  14  19
BRANCH  16  20
ATOM     20  C   UNL     1       9.783   6.727  -0.561  0.00  0.00    +0.164 C 
BRANCH  20   1
ATOM      1  S   UNL     1      10.603   8.128   0.212  0.00  0.00    -0.155 S 
ATOM     26  C   UNL     1       9.140   9.031   0.779  0.00  0.00    +0.085 C 
ENDBRANCH  20   1
ENDBRANCH  16  20
TORSDOF 4
ENDMDL
MODEL 8
REMARK VINA RESULT:      -6.0     12.031     14.898
REMARK  Name = 7662800
REMARK  5 active torsions:
REMARK  status: ('A' for Active; 'I' for Inactive)
REMARK    1  A    between atoms: S_1  and  C_20
REMARK    2  A    between atoms: S_1  and  C_26
REMARK    3  A    between atoms: C_14  and  C_19
REMARK    4  A    between atoms: C_16  and  C_20
REMARK    5  A    between atoms: C_23  and  C_27
REMARK                            x       y       z     vdW  Elec       q    Type
REMARK                         _______ _______ _______ _____ _____    ______ ____
ROOT
ATOM      2  O   UNL     1      13.593   6.991   6.417  0.00  0.00    -0.268 OA
ATOM      3  O   UNL     1       9.420   6.896   3.205  0.00  0.00    -0.275 OA
ATOM      4  N   UNL     1       8.730   7.365   5.373  0.00  0.00    -0.300 N 
ATOM      5  N   UNL     1      11.415   7.550   7.070  0.00  0.00    -0.311 N 
ATOM      7  C   UNL     1       9.543   5.800   7.132  0.00  0.00    +0.027 C 
ATOM      8  C   UNL     1       9.058   8.138   7.717  0.00  0.00    +0.054 C 
ATOM      9  C   UNL     1       8.939   6.695   8.203  0.00  0.00    +0.018 C 
ATOM     10  C   UNL     1       8.797   5.967   5.798  0.00  0.00    +0.113 C 
ATOM     11  C   UNL     1      11.029   6.134   7.002  0.00  0.00    +0.130 C 
ATOM     12  C   UNL     1       8.264   8.303   6.404  0.00  0.00    +0.117 C 
ATOM     13  C   UNL     1      10.518   8.546   7.509  0.00  0.00    +0.034 A 
ATOM     14  C   UNL     1      10.960   9.815   7.702  0.00  0.00    +0.002 A 
ATOM     15  C   UNL     1      12.765   7.823   6.788  0.00  0.00    +0.252 A 
ATOM     16  C   UNL     1       9.030   7.702   4.054  0.00  0.00    +0.225 C 
ATOM     17  C   UNL     1      12.346  10.135   7.417  0.00  0.00    +0.015 A 
ATOM     18  C   UNL     1      13.210   9.223   6.974  0.00  0.00    +0.071 A 
ENDROOT
BRANCH  14  19
ATOM     19  C   UNL     1      10.061  10.889   8.178  0.00  0.00    -0.015 A 
ATOM     21  C   UNL     1       9.833  11.049   9.542  0.00  0.00    +0.027 A 
ATOM     22  C   UNL     1       9.446  11.733   7.257  0.00  0.00    +0.008 A 
ATOM     23  C   UNL     1       8.983  12.061   9.988  0.00  0.00    +0.052 A 
ATOM     24  C   UNL     1       8.597  12.745   7.704  0.00  0.00    +0.002 A 
ATOM     25  C   UNL     1       8.365  12.909   9.069  0.00  0.00    +0.019 A 
BRANCH  23  27
ATOM      6  N   UNL     1       8.552  12.365  12.525  0.00  0.00    -0.191 NA
ATOM     27  C   UNL     1       8.746  12.228  11.387  0.00  0.00    +0.099 C 
ENDBRANCH  23  27
ENDBRANCH  14  19
BRANCH  16  20
ATOM     20  C   UNL     1       8.868   9.152   3.673  0.00  0.00    +0.164 C 
BRANCH  20   1
ATOM      1  S   UNL     1       7.522   9.259   2.485  0.00  0.00    -0.155 S 
ATOM     26  C   UNL     1       6.252   9.967   3.563  0.00  0.00    +0.085 C 
ENDBRANCH  20   1
ENDBRANCH  16  20
TORSDOF 4
ENDMDL
MODEL 9
REMARK VINA RESULT:      -5.9     26.692     29.207
REMARK  Name = 7662800
REMARK  5 active torsions:
REMARK  status: ('A' for Active; 'I' for Inactive)
REMARK    1  A    between atoms: S_1  and  C_20
REMARK    2  A    between atoms: S_1  and  C_26
REMARK    3  A    between atoms: C_14  and  C_19
REMARK    4  A    between atoms: C_16  and  C_20
REMARK    5  A    between atoms: C_23  and  C_27
REMARK                            x       y       z     vdW  Elec       q    Type
REMARK                         _______ _______ _______ _____ _____    ______ ____
ROOT
ATOM      2  O   UNL     1      -1.072 -12.526  13.670  0.00  0.00    -0.268 OA
ATOM      3  O   UNL     1      -5.725 -12.865  11.223  0.00  0.00    -0.275 OA
ATOM      4  N   UNL     1      -5.955 -13.524  13.440  0.00  0.00    -0.300 N 
ATOM      5  N   UNL     1      -3.087 -13.060  14.738  0.00  0.00    -0.311 N 
ATOM      7  C   UNL     1      -4.335 -15.241  14.233  0.00  0.00    +0.027 C 
ATOM      8  C   UNL     1      -5.277 -13.630  15.833  0.00  0.00    +0.054 C 
ATOM      9  C   UNL     1      -4.873 -15.092  15.647  0.00  0.00    +0.018 C 
ATOM     10  C   UNL     1      -5.406 -14.857  13.198  0.00  0.00    +0.113 C 
ATOM     11  C   UNL     1      -3.077 -14.383  14.099  0.00  0.00    +0.130 C 
ATOM     12  C   UNL     1      -6.386 -13.273  14.822  0.00  0.00    +0.117 C 
ATOM     13  C   UNL     1      -4.082 -12.688  15.664  0.00  0.00    +0.034 A 
ATOM     14  C   UNL     1      -3.970 -11.518  16.344  0.00  0.00    +0.002 A 
ATOM     15  C   UNL     1      -1.976 -12.244  14.457  0.00  0.00    +0.252 A 
ATOM     16  C   UNL     1      -6.096 -12.632  12.377  0.00  0.00    +0.225 C 
ATOM     17  C   UNL     1      -2.839 -10.648  16.078  0.00  0.00    +0.015 A 
ATOM     18  C   UNL     1      -1.898 -10.959  15.187  0.00  0.00    +0.071 A 
ENDROOT
BRANCH  14  19
ATOM     19  C   UNL     1      -4.980 -11.094  17.339  0.00  0.00    -0.015 A 
ATOM     21  C   UNL     1      -6.079 -10.343  16.934  0.00  0.00    +0.027 A 
ATOM     22  C   UNL     1      -4.822 -11.449  18.676  0.00  0.00    +0.008 A 
ATOM     23  C   UNL     1      -7.029  -9.944  17.873  0.00  0.00    +0.052 A 
ATOM     24  C   UNL     1      -5.773 -11.049  19.615  0.00  0.00    +0.002 A 
ATOM     25  C   UNL     1      -6.876 -10.297  19.214  0.00  0.00    +0.019 A 
BRANCH  23  27
ATOM      6  N   UNL     1      -9.079  -8.544  17.129  0.00  0.00    -0.191 NA
ATOM     27  C   UNL     1      -8.159  -9.172  17.463  0.00  0.00    +0.099 C 
ENDBRANCH  23  27
ENDBRANCH  14  19
BRANCH  16  20
ATOM     20  C   UNL     1      -6.736 -11.303  12.691  0.00  0.00    +0.164 C 
BRANCH  20   1
ATOM      1  S   UNL     1      -5.418 -10.105  12.941  0.00  0.00    -0.155 S 
ATOM     26  C   UNL     1      -6.013  -8.799  11.838  0.00  0.00    +0.085 C 
ENDBRANCH  20   1
ENDBRANCH  16  20
TORSDOF 4
ENDMDL
MODEL 10
REMARK VINA RESULT:      -5.9     26.278     28.707
REMARK  Name = 7662800
REMARK  5 active torsions:
REMARK  status: ('A' for Active; 'I' for Inactive)
REMARK    1  A    between atoms: S_1  and  C_20
REMARK    2  A    between atoms: S_1  and  C_26
REMARK    3  A    between atoms: C_14  and  C_19
REMARK    4  A    between atoms: C_16  and  C_20
REMARK    5  A    between atoms: C_23  and  C_27
REMARK                            x       y       z     vdW  Elec       q    Type
REMARK                         _______ _______ _______ _____ _____    ______ ____
ROOT
ATOM      2  O   UNL     1      -7.372 -14.989  17.310  0.00  0.00    -0.268 OA
ATOM      3  O   UNL     1      -9.684 -10.467  15.913  0.00  0.00    -0.275 OA
ATOM      4  N   UNL     1      -7.599 -10.028  16.838  0.00  0.00    -0.300 N 
ATOM      5  N   UNL     1      -6.339 -12.890  17.424  0.00  0.00    -0.311 N 
ATOM      7  C   UNL     1      -7.151 -11.082  19.049  0.00  0.00    +0.027 C 
ATOM      8  C   UNL     1      -5.279 -10.612  17.526  0.00  0.00    +0.054 C 
ATOM      9  C   UNL     1      -5.713 -10.588  18.990  0.00  0.00    +0.018 C 
ATOM     10  C   UNL     1      -8.072 -10.179  18.213  0.00  0.00    +0.113 C 
ATOM     11  C   UNL     1      -7.185 -12.534  18.571  0.00  0.00    +0.130 C 
ATOM     12  C   UNL     1      -6.181  -9.665  16.708  0.00  0.00    +0.117 C 
ATOM     13  C   UNL     1      -5.331 -12.028  16.945  0.00  0.00    +0.034 A 
ATOM     14  C   UNL     1      -4.474 -12.458  15.984  0.00  0.00    +0.002 A 
ATOM     15  C   UNL     1      -6.520 -14.190  16.920  0.00  0.00    +0.252 A 
ATOM     16  C   UNL     1      -8.496 -10.161  15.779  0.00  0.00    +0.225 C 
ATOM     17  C   UNL     1      -4.633 -13.792  15.437  0.00  0.00    +0.015 A 
ATOM     18  C   UNL     1      -5.593 -14.619  15.848  0.00  0.00    +0.071 A 
ENDROOT
BRANCH  14  19
ATOM     19  C   UNL     1      -3.390 -11.595  15.463  0.00  0.00    -0.015 A 
ATOM     21  C   UNL     1      -3.335 -11.295  14.105  0.00  0.00    +0.027 A 
ATOM     22  C   UNL     1      -2.431 -11.091  16.336  0.00  0.00    +0.008 A 
ATOM     23  C   UNL     1      -2.312 -10.483  13.617  0.00  0.00    +0.052 A 
ATOM     24  C   UNL     1      -1.408 -10.278  15.847  0.00  0.00    +0.002 A 
ATOM     25  C   UNL     1      -1.349  -9.975  14.488  0.00  0.00    +0.019 A 
BRANCH  23  27
ATOM      6  N   UNL     1      -2.201  -9.920  11.090  0.00  0.00    -0.191 NA
ATOM     27  C   UNL     1      -2.251 -10.172  12.223  0.00  0.00    +0.099 C 
ENDBRANCH  23  27
ENDBRANCH  14  19
BRANCH  16  20
ATOM     20  C   UNL     1      -7.950  -9.920  14.395  0.00  0.00    +0.164 C 
BRANCH  20   1
ATOM      1  S   UNL     1      -7.512 -11.517  13.693  0.00  0.00    -0.155 S 
ATOM     26  C   UNL     1      -6.563 -10.943  12.262  0.00  0.00    +0.085 C 
ENDBRANCH  20   1
ENDBRANCH  16  20
TORSDOF 4
ENDMDL
