REMARK  Name = 45361412
REMARK  15 active torsions:
REMARK  status: ('A' for Active; 'I' for Inactive)
REMARK    1  A    between atoms: O_1  and  C_9
REMARK    2  A    between atoms: N_4  and  C_13
REMARK    3  A    between atoms: N_5  and  C_24
REMARK    4  A    between atoms: N_5  and  C_25
REMARK    5  A    between atoms: C_6  and  C_16
REMARK    6  A    between atoms: C_8  and  C_18
REMARK    7  A    between atoms: C_12  and  C_17
REMARK    8  A    between atoms: C_17  and  C_19
REMARK    9  A    between atoms: C_17  and  C_20
REMARK   10  A    between atoms: C_21  and  C_22
REMARK   11  A    between atoms: C_22  and  C_23
REMARK   12  A    between atoms: C_23  and  C_26
REMARK   13  A    between atoms: C_23  and  C_27
REMARK   14  A    between atoms: C_23  and  C_28
REMARK   15  A    between atoms: C_24  and  C_29
REMARK                            x       y       z     vdW  Elec       q    Type
REMARK                         _______ _______ _______ _____ _____    ______ ____
ROOT
ATOM      6  C   UNL     1      -1.353  -1.890   0.278  0.00  0.00    -0.027 C 
ATOM      7  C   UNL     1      -1.017  -0.371   0.109  0.00  0.00    +0.028 C 
ATOM      8  C   UNL     1      -2.263   0.420  -0.429  0.00  0.00    +0.012 C 
ATOM      9  C   UNL     1       0.300  -0.171  -0.696  0.00  0.00    +0.122 C 
ATOM     10  C   UNL     1      -0.145  -2.618   0.914  0.00  0.00    +0.007 C 
ATOM     11  C   UNL     1      -2.552  -2.037   1.243  0.00  0.00    +0.009 C 
ATOM     12  C   UNL     1       1.480  -0.984  -0.115  0.00  0.00    +0.029 C 
ATOM     13  C   UNL     1      -3.484   0.204   0.509  0.00  0.00    +0.076 C 
ATOM     14  C   UNL     1       1.137  -2.457   0.108  0.00  0.00    +0.007 C 
ATOM     15  C   UNL     1      -3.784  -1.268   0.787  0.00  0.00    +0.023 C 
ATOM     16  C   UNL     1      -1.695  -2.577  -1.069  0.00  0.00    +0.011 C 
ATOM     18  C   UNL     1      -2.011   1.929  -0.592  0.00  0.00    +0.010 C 
ENDROOT
BRANCH  13   4
ATOM      3  O   UNL     1      -5.670   1.363   2.014  0.00  0.00    -0.276 OA
ATOM      4  N   UNL     1      -4.681   0.825  -0.018  0.00  0.00    -0.312 N 
ATOM     21  C   UNL     1      -5.676   1.353   0.785  0.00  0.00    +0.214 C 
ATOM     35  H   UNL     1      -4.801   0.835  -1.026  0.00  0.00    +0.149 HD
BRANCH  21  22
ATOM     22  C   UNL     1      -6.831   1.939  -0.010  0.00  0.00    +0.102 C 
BRANCH  22  23
ATOM     23  C   UNL     1      -7.942   0.926  -0.378  0.00  0.00    -0.029 C 
ATOM     26  C   UNL     1      -7.310  -0.181  -1.244  0.00  0.00    +0.011 C 
ATOM     27  C   UNL     1      -8.549   0.276   0.876  0.00  0.00    +0.011 C 
ATOM     28  C   UNL     1      -9.059   1.601  -1.191  0.00  0.00    +0.011 C 
ENDBRANCH  22  23
ENDBRANCH  21  22
ENDBRANCH  13   4
BRANCH   9   1
ATOM      1  O   UNL     1       0.686   1.203  -0.644  0.00  0.00    -0.391 OA
ATOM     36  H   UNL     1       0.826   1.443   0.288  0.00  0.00    +0.210 HD
ENDBRANCH   9   1
BRANCH  12  17
ATOM     17  C   UNL     1       2.732  -0.878  -0.995  0.00  0.00    +0.078 C 
ATOM     19  C   UNL     1       2.422  -1.422  -2.390  0.00  0.00    +0.017 C 
BRANCH  17  20
ATOM      2  O   UNL     1       4.037  -2.847  -0.604  0.00  0.00    -0.275 OA
ATOM      5  N   UNL     1       4.722  -0.951   0.532  0.00  0.00    -0.300 N 
ATOM     20  C   UNL     1       3.887  -1.647  -0.349  0.00  0.00    +0.219 C 
ATOM     25  C   UNL     1       5.819  -1.660   1.182  0.00  0.00    +0.132 C 
BRANCH   5  24
ATOM     24  C   UNL     1       4.635   0.470   0.860  0.00  0.00    +0.142 C 
BRANCH  24  29
ATOM     29  C   UNL     1       5.875   1.216   0.460  0.00  0.00    -0.030 A 
ATOM     30  C   UNL     1       6.934   1.341   1.359  0.00  0.00    +0.005 A 
ATOM     31  C   UNL     1       5.968   1.784  -0.811  0.00  0.00    +0.005 A 
ATOM     32  C   UNL     1       8.087   2.034   0.987  0.00  0.00    +0.000 A 
ATOM     33  C   UNL     1       7.121   2.476  -1.183  0.00  0.00    +0.000 A 
ATOM     34  C   UNL     1       8.180   2.601  -0.284  0.00  0.00    +0.000 A 
ENDBRANCH  24  29
ENDBRANCH   5  24
ENDBRANCH  17  20
ENDBRANCH  12  17
TORSDOF 8
