MODEL 1
REMARK VINA RESULT:      -7.4      0.000      0.000
REMARK  Name = 51136924
REMARK  4 active torsions:
REMARK  status: ('A' for Active; 'I' for Inactive)
REMARK    1  A    between atoms: N_5  and  C_13
REMARK    2  A    between atoms: C_9  and  C_14
REMARK    3  A    between atoms: C_13  and  C_15
REMARK    4  A    between atoms: C_18  and  C_21
REMARK                            x       y       z     vdW  Elec       q    Type
REMARK                         _______ _______ _______ _____ _____    ______ ____
ROOT
ATOM      5  N   UNL     1      -3.147 -10.516  14.439  0.00  0.00    -0.287 NA
ATOM      9  C   UNL     1      -3.104 -11.240  15.725  0.00  0.00    +0.146 C 
ATOM     10  C   UNL     1      -1.764 -10.825  16.362  0.00  0.00    +0.030 C 
ATOM     11  C   UNL     1      -1.099  -9.919  15.336  0.00  0.00    +0.017 C 
ATOM     12  C   UNL     1      -1.757 -10.316  14.030  0.00  0.00    +0.085 C 
ENDROOT
BRANCH   9  14
ATOM      4  O   UNL     1      -4.097 -11.048  17.950  0.00  0.00    -0.336 OA
ATOM      6  N   UNL     1      -5.501 -10.554  16.276  0.00  0.00    -0.189 NA
ATOM      7  N   UNL     1      -5.317 -10.713  18.550  0.00  0.00    -0.054 NA
ATOM     14  C   UNL     1      -4.292 -10.927  16.610  0.00  0.00    +0.245 A 
ATOM     18  C   UNL     1      -6.093 -10.435  17.499  0.00  0.00    +0.220 A 
BRANCH  18  21
ATOM      3  F   UNL     1     -11.317  -8.767  17.910  0.00  0.00    -0.204 F 
ATOM      8  N   UNL     1      -7.840  -8.967  16.898  0.00  0.00    -0.249 NA
ATOM     21  C   UNL     1      -7.464 -10.034  17.637  0.00  0.00    +0.111 A 
ATOM     23  C   UNL     1      -8.311 -10.726  18.487  0.00  0.00    +0.034 A 
ATOM     24  C   UNL     1      -9.631 -10.296  18.583  0.00  0.00    +0.042 A 
ATOM     25  C   UNL     1      -9.129  -8.577  17.018  0.00  0.00    +0.149 A 
ATOM     26  C   UNL     1     -10.055  -9.202  17.839  0.00  0.00    +0.141 A 
ENDBRANCH  18  21
ENDBRANCH   9  14
BRANCH   5  13
ATOM     13  C   UNL     1      -3.925 -11.205  13.418  0.00  0.00    +0.120 C 
BRANCH  13  15
ATOM      1  F   UNL     1      -3.332  -8.799   9.214  0.00  0.00    -0.202 F 
ATOM      2  F   UNL     1      -5.805  -7.658   9.463  0.00  0.00    -0.202 F 
ATOM     15  C   UNL     1      -4.428 -10.257  12.361  0.00  0.00    -0.030 A 
ATOM     16  C   UNL     1      -3.631  -9.961  11.255  0.00  0.00    +0.046 A 
ATOM     17  C   UNL     1      -5.689  -9.675  12.489  0.00  0.00    +0.008 A 
ATOM     19  C   UNL     1      -4.097  -9.083  10.275  0.00  0.00    +0.159 A 
ATOM     20  C   UNL     1      -6.154  -8.797  11.510  0.00  0.00    +0.041 A 
ATOM     22  C   UNL     1      -5.358  -8.501  10.403  0.00  0.00    +0.158 A 
ENDBRANCH  13  15
ENDBRANCH   5  13
TORSDOF 4
ENDMDL
MODEL 2
REMARK VINA RESULT:      -7.3     26.442     29.116
REMARK  Name = 51136924
REMARK  4 active torsions:
REMARK  status: ('A' for Active; 'I' for Inactive)
REMARK    1  A    between atoms: N_5  and  C_13
REMARK    2  A    between atoms: C_9  and  C_14
REMARK    3  A    between atoms: C_13  and  C_15
REMARK    4  A    between atoms: C_18  and  C_21
REMARK                            x       y       z     vdW  Elec       q    Type
REMARK                         _______ _______ _______ _____ _____    ______ ____
ROOT
ATOM      5  N   UNL     1      13.354   7.971  20.274  0.00  0.00    -0.287 NA
ATOM      9  C   UNL     1      12.464   7.845  19.103  0.00  0.00    +0.146 C 
ATOM     10  C   UNL     1      11.149   8.520  19.536  0.00  0.00    +0.030 C 
ATOM     11  C   UNL     1      11.375   8.939  20.982  0.00  0.00    +0.017 C 
ATOM     12  C   UNL     1      12.486   8.021  21.450  0.00  0.00    +0.085 C 
ENDROOT
BRANCH   9  14
ATOM      4  O   UNL     1      12.893   7.765  16.698  0.00  0.00    -0.336 OA
ATOM      6  N   UNL     1      13.708   9.589  17.712  0.00  0.00    -0.189 NA
ATOM      7  N   UNL     1      13.513   8.524  15.697  0.00  0.00    -0.054 NA
ATOM     14  C   UNL     1      13.053   8.464  17.853  0.00  0.00    +0.245 A 
ATOM     18  C   UNL     1      13.969   9.582  16.373  0.00  0.00    +0.220 A 
BRANCH  18  21
ATOM      3  F   UNL     1      16.742  13.575  13.802  0.00  0.00    -0.204 F 
ATOM      8  N   UNL     1      15.137  10.396  14.492  0.00  0.00    -0.249 NA
ATOM     21  C   UNL     1      14.687  10.651  15.740  0.00  0.00    +0.111 A 
ATOM     23  C   UNL     1      14.884  11.850  16.406  0.00  0.00    +0.034 A 
ATOM     24  C   UNL     1      15.586  12.853  15.746  0.00  0.00    +0.042 A 
ATOM     25  C   UNL     1      15.816  11.394  13.883  0.00  0.00    +0.149 A 
ATOM     26  C   UNL     1      16.065  12.628  14.461  0.00  0.00    +0.141 A 
ENDBRANCH  18  21
ENDBRANCH   9  14
BRANCH   5  13
ATOM     13  C   UNL     1      14.340   6.902  20.364  0.00  0.00    +0.120 C 
BRANCH  13  15
ATOM      1  F   UNL     1      19.035   6.197  21.494  0.00  0.00    -0.202 F 
ATOM      2  F   UNL     1      19.501   8.891  21.443  0.00  0.00    -0.202 F 
ATOM     15  C   UNL     1      15.719   7.434  20.653  0.00  0.00    -0.030 A 
ATOM     16  C   UNL     1      16.758   6.552  20.946  0.00  0.00    +0.046 A 
ATOM     17  C   UNL     1      15.956   8.809  20.627  0.00  0.00    +0.008 A 
ATOM     19  C   UNL     1      18.037   7.044  21.213  0.00  0.00    +0.159 A 
ATOM     20  C   UNL     1      17.233   9.301  20.894  0.00  0.00    +0.041 A 
ATOM     22  C   UNL     1      18.274   8.419  21.186  0.00  0.00    +0.158 A 
ENDBRANCH  13  15
ENDBRANCH   5  13
TORSDOF 4
ENDMDL
MODEL 3
REMARK VINA RESULT:      -7.1      1.493      2.291
REMARK  Name = 51136924
REMARK  4 active torsions:
REMARK  status: ('A' for Active; 'I' for Inactive)
REMARK    1  A    between atoms: N_5  and  C_13
REMARK    2  A    between atoms: C_9  and  C_14
REMARK    3  A    between atoms: C_13  and  C_15
REMARK    4  A    between atoms: C_18  and  C_21
REMARK                            x       y       z     vdW  Elec       q    Type
REMARK                         _______ _______ _______ _____ _____    ______ ____
ROOT
ATOM      5  N   UNL     1      -2.916 -10.575  14.317  0.00  0.00    -0.287 NA
ATOM      9  C   UNL     1      -3.114 -11.274  15.602  0.00  0.00    +0.146 C 
ATOM     10  C   UNL     1      -1.917 -10.845  16.470  0.00  0.00    +0.030 C 
ATOM     11  C   UNL     1      -1.072  -9.955  15.569  0.00  0.00    +0.017 C 
ATOM     12  C   UNL     1      -1.473 -10.379  14.171  0.00  0.00    +0.085 C 
ENDROOT
BRANCH   9  14
ATOM      4  O   UNL     1      -4.996  -9.748  15.921  0.00  0.00    -0.336 OA
ATOM      6  N   UNL     1      -5.163 -11.659  17.077  0.00  0.00    -0.189 NA
ATOM      7  N   UNL     1      -6.204  -9.673  16.625  0.00  0.00    -0.054 NA
ATOM     14  C   UNL     1      -4.447 -10.949  16.243  0.00  0.00    +0.245 A 
ATOM     18  C   UNL     1      -6.231 -10.835  17.283  0.00  0.00    +0.220 A 
BRANCH  18  21
ATOM      3  F   UNL     1     -10.269 -12.382  20.680  0.00  0.00    -0.204 F 
ATOM      8  N   UNL     1      -7.075 -12.257  18.966  0.00  0.00    -0.249 NA
ATOM     21  C   UNL     1      -7.311 -11.205  18.152  0.00  0.00    +0.111 A 
ATOM     23  C   UNL     1      -8.503 -10.499  18.123  0.00  0.00    +0.034 A 
ATOM     24  C   UNL     1      -9.518 -10.898  18.986  0.00  0.00    +0.042 A 
ATOM     25  C   UNL     1      -8.084 -12.617  19.790  0.00  0.00    +0.149 A 
ATOM     26  C   UNL     1      -9.312 -11.977  19.839  0.00  0.00    +0.141 A 
ENDBRANCH  18  21
ENDBRANCH   9  14
BRANCH   5  13
ATOM     13  C   UNL     1      -3.490 -11.285  13.181  0.00  0.00    +0.120 C 
BRANCH  13  15
ATOM      1  F   UNL     1      -7.203  -8.615  11.479  0.00  0.00    -0.202 F 
ATOM      2  F   UNL     1      -5.679  -7.744   9.382  0.00  0.00    -0.202 F 
ATOM     15  C   UNL     1      -4.075 -10.339  12.166  0.00  0.00    -0.030 A 
ATOM     16  C   UNL     1      -5.394  -9.907  12.295  0.00  0.00    +0.046 A 
ATOM     17  C   UNL     1      -3.296  -9.895  11.096  0.00  0.00    +0.008 A 
ATOM     19  C   UNL     1      -5.937  -9.029  11.355  0.00  0.00    +0.159 A 
ATOM     20  C   UNL     1      -3.838  -9.019  10.156  0.00  0.00    +0.041 A 
ATOM     22  C   UNL     1      -5.158  -8.586  10.286  0.00  0.00    +0.158 A 
ENDBRANCH  13  15
ENDBRANCH   5  13
TORSDOF 4
ENDMDL
MODEL 4
REMARK VINA RESULT:      -7.0     23.279     26.459
REMARK  Name = 51136924
REMARK  4 active torsions:
REMARK  status: ('A' for Active; 'I' for Inactive)
REMARK    1  A    between atoms: N_5  and  C_13
REMARK    2  A    between atoms: C_9  and  C_14
REMARK    3  A    between atoms: C_13  and  C_15
REMARK    4  A    between atoms: C_18  and  C_21
REMARK                            x       y       z     vdW  Elec       q    Type
REMARK                         _______ _______ _______ _____ _____    ______ ____
ROOT
ATOM      5  N   UNL     1       9.716   9.031   5.392  0.00  0.00    -0.287 NA
ATOM      9  C   UNL     1       9.662   9.118   3.920  0.00  0.00    +0.146 C 
ATOM     10  C   UNL     1      10.472  10.383   3.573  0.00  0.00    +0.030 C 
ATOM     11  C   UNL     1      10.886  10.969   4.916  0.00  0.00    +0.017 C 
ATOM     12  C   UNL     1       9.868  10.401   5.884  0.00  0.00    +0.085 C 
ENDROOT
BRANCH   9  14
ATOM      4  O   UNL     1       9.301   7.116   2.566  0.00  0.00    -0.336 OA
ATOM      6  N   UNL     1      11.426   7.414   3.209  0.00  0.00    -0.189 NA
ATOM      7  N   UNL     1      10.023   6.040   2.035  0.00  0.00    -0.054 NA
ATOM     14  C   UNL     1      10.202   7.876   3.242  0.00  0.00    +0.245 A 
ATOM     18  C   UNL     1      11.267   6.286   2.458  0.00  0.00    +0.220 A 
BRANCH  18  21
ATOM      3  F   UNL     1      15.613   3.133   1.267  0.00  0.00    -0.204 F 
ATOM      8  N   UNL     1      13.580   6.028   2.073  0.00  0.00    -0.249 NA
ATOM     21  C   UNL     1      12.372   5.427   2.144  0.00  0.00    +0.111 A 
ATOM     23  C   UNL     1      12.166   4.073   1.935  0.00  0.00    +0.034 A 
ATOM     24  C   UNL     1      13.272   3.284   1.635  0.00  0.00    +0.042 A 
ATOM     25  C   UNL     1      14.631   5.231   1.778  0.00  0.00    +0.149 A 
ATOM     26  C   UNL     1      14.531   3.867   1.553  0.00  0.00    +0.141 A 
ENDBRANCH  18  21
ENDBRANCH   9  14
BRANCH   5  13
ATOM     13  C   UNL     1       8.554   8.367   5.971  0.00  0.00    +0.120 C 
BRANCH  13  15
ATOM      1  F   UNL     1       9.956   3.692   5.962  0.00  0.00    -0.202 F 
ATOM      2  F   UNL     1       9.979   3.644   8.696  0.00  0.00    -0.202 F 
ATOM     15  C   UNL     1       8.935   7.105   6.699  0.00  0.00    -0.030 A 
ATOM     16  C   UNL     1       9.276   5.961   5.978  0.00  0.00    +0.046 A 
ATOM     17  C   UNL     1       8.947   7.081   8.094  0.00  0.00    +0.008 A 
ATOM     19  C   UNL     1       9.629   4.791   6.653  0.00  0.00    +0.159 A 
ATOM     20  C   UNL     1       9.299   5.912   8.768  0.00  0.00    +0.041 A 
ATOM     22  C   UNL     1       9.641   4.768   8.048  0.00  0.00    +0.158 A 
ENDBRANCH  13  15
ENDBRANCH   5  13
TORSDOF 4
ENDMDL
MODEL 5
REMARK VINA RESULT:      -7.0     26.482     28.949
REMARK  Name = 51136924
REMARK  4 active torsions:
REMARK  status: ('A' for Active; 'I' for Inactive)
REMARK    1  A    between atoms: N_5  and  C_13
REMARK    2  A    between atoms: C_9  and  C_14
REMARK    3  A    between atoms: C_13  and  C_15
REMARK    4  A    between atoms: C_18  and  C_21
REMARK                            x       y       z     vdW  Elec       q    Type
REMARK                         _______ _______ _______ _____ _____    ______ ____
ROOT
ATOM      5  N   UNL     1      12.761   8.851  18.713  0.00  0.00    -0.287 NA
ATOM      9  C   UNL     1      13.445   7.556  18.526  0.00  0.00    +0.146 C 
ATOM     10  C   UNL     1      13.937   7.580  17.067  0.00  0.00    +0.030 C 
ATOM     11  C   UNL     1      13.430   8.899  16.499  0.00  0.00    +0.017 C 
ATOM     12  C   UNL     1      12.261   9.250  17.397  0.00  0.00    +0.085 C 
ENDROOT
BRANCH   9  14
ATOM      4  O   UNL     1      14.203   7.048  20.793  0.00  0.00    -0.336 OA
ATOM      6  N   UNL     1      15.863   7.402  19.331  0.00  0.00    -0.189 NA
ATOM      7  N   UNL     1      15.396   6.898  21.513  0.00  0.00    -0.054 NA
ATOM     14  C   UNL     1      14.569   7.342  19.517  0.00  0.00    +0.245 A 
ATOM     18  C   UNL     1      16.328   7.122  20.582  0.00  0.00    +0.220 A 
BRANCH  18  21
ATOM      3  F   UNL     1      21.691   7.069  21.800  0.00  0.00    -0.204 F 
ATOM      8  N   UNL     1      18.186   8.002  21.740  0.00  0.00    -0.249 NA
ATOM     21  C   UNL     1      17.733   7.072  20.871  0.00  0.00    +0.111 A 
ATOM     23  C   UNL     1      18.535   6.114  20.272  0.00  0.00    +0.034 A 
ATOM     24  C   UNL     1      19.890   6.109  20.587  0.00  0.00    +0.042 A 
ATOM     25  C   UNL     1      19.508   7.967  22.022  0.00  0.00    +0.149 A 
ATOM     26  C   UNL     1      20.393   7.051  21.477  0.00  0.00    +0.141 A 
ENDBRANCH  18  21
ENDBRANCH   9  14
BRANCH   5  13
ATOM     13  C   UNL     1      11.700   8.803  19.710  0.00  0.00    +0.120 C 
BRANCH  13  15
ATOM      1  F   UNL     1      10.424  10.795  23.979  0.00  0.00    -0.202 F 
ATOM      2  F   UNL     1      12.588  12.464  23.901  0.00  0.00    -0.202 F 
ATOM     15  C   UNL     1      11.938   9.782  20.830  0.00  0.00    -0.030 A 
ATOM     16  C   UNL     1      11.053   9.836  21.907  0.00  0.00    +0.046 A 
ATOM     17  C   UNL     1      13.042  10.633  20.790  0.00  0.00    +0.008 A 
ATOM     19  C   UNL     1      11.273  10.743  22.946  0.00  0.00    +0.159 A 
ATOM     20  C   UNL     1      13.262  11.539  21.827  0.00  0.00    +0.041 A 
ATOM     22  C   UNL     1      12.377  11.593  22.905  0.00  0.00    +0.158 A 
ENDBRANCH  13  15
ENDBRANCH   5  13
TORSDOF 4
ENDMDL
MODEL 6
REMARK VINA RESULT:      -6.8     23.563     26.192
REMARK  Name = 51136924
REMARK  4 active torsions:
REMARK  status: ('A' for Active; 'I' for Inactive)
REMARK    1  A    between atoms: N_5  and  C_13
REMARK    2  A    between atoms: C_9  and  C_14
REMARK    3  A    between atoms: C_13  and  C_15
REMARK    4  A    between atoms: C_18  and  C_21
REMARK                            x       y       z     vdW  Elec       q    Type
REMARK                         _______ _______ _______ _____ _____    ______ ____
ROOT
ATOM      5  N   UNL     1      12.954   5.439   2.328  0.00  0.00    -0.287 NA
ATOM      9  C   UNL     1      11.498   5.282   2.140  0.00  0.00    +0.146 C 
ATOM     10  C   UNL     1      11.318   3.823   1.681  0.00  0.00    +0.030 C 
ATOM     11  C   UNL     1      12.730   3.261   1.582  0.00  0.00    +0.017 C 
ATOM     12  C   UNL     1      13.594   4.494   1.414  0.00  0.00    +0.085 C 
ENDROOT
BRANCH   9  14
ATOM      4  O   UNL     1       9.698   6.497   3.260  0.00  0.00    -0.336 OA
ATOM      6  N   UNL     1      10.861   5.139   4.609  0.00  0.00    -0.189 NA
ATOM      7  N   UNL     1       9.127   6.628   4.532  0.00  0.00    -0.054 NA
ATOM     14  C   UNL     1      10.711   5.601   3.393  0.00  0.00    +0.245 A 
ATOM     18  C   UNL     1       9.867   5.797   5.272  0.00  0.00    +0.220 A 
BRANCH  18  21
ATOM      3  F   UNL     1       9.047   4.878  10.631  0.00  0.00    -0.204 F 
ATOM      8  N   UNL     1       9.919   4.367   7.147  0.00  0.00    -0.249 NA
ATOM     21  C   UNL     1       9.639   5.602   6.675  0.00  0.00    +0.111 A 
ATOM     23  C   UNL     1       9.160   6.641   7.455  0.00  0.00    +0.034 A 
ATOM     24  C   UNL     1       8.956   6.398   8.810  0.00  0.00    +0.042 A 
ATOM     25  C   UNL     1       9.707   4.168   8.467  0.00  0.00    +0.149 A 
ATOM     26  C   UNL     1       9.232   5.140   9.333  0.00  0.00    +0.141 A 
ENDBRANCH  18  21
ENDBRANCH   9  14
BRANCH   5  13
ATOM     13  C   UNL     1      13.417   6.805   2.117  0.00  0.00    +0.120 C 
BRANCH  13  15
ATOM      1  F   UNL     1      17.759   7.866   4.076  0.00  0.00    -0.202 F 
ATOM      2  F   UNL     1      16.569   8.641   6.412  0.00  0.00    -0.202 F 
ATOM     15  C   UNL     1      14.259   7.296   3.265  0.00  0.00    -0.030 A 
ATOM     16  C   UNL     1      15.646   7.354   3.136  0.00  0.00    +0.046 A 
ATOM     17  C   UNL     1      13.651   7.691   4.457  0.00  0.00    +0.008 A 
ATOM     19  C   UNL     1      16.428   7.810   4.200  0.00  0.00    +0.159 A 
ATOM     20  C   UNL     1      14.432   8.145   5.520  0.00  0.00    +0.041 A 
ATOM     22  C   UNL     1      15.819   8.205   5.391  0.00  0.00    +0.158 A 
ENDBRANCH  13  15
ENDBRANCH   5  13
TORSDOF 4
ENDMDL
MODEL 7
REMARK VINA RESULT:      -6.8     18.868     20.063
REMARK  Name = 51136924
REMARK  4 active torsions:
REMARK  status: ('A' for Active; 'I' for Inactive)
REMARK    1  A    between atoms: N_5  and  C_13
REMARK    2  A    between atoms: C_9  and  C_14
REMARK    3  A    between atoms: C_13  and  C_15
REMARK    4  A    between atoms: C_18  and  C_21
REMARK                            x       y       z     vdW  Elec       q    Type
REMARK                         _______ _______ _______ _____ _____    ______ ____
ROOT
ATOM      5  N   UNL     1     -17.542   3.627  22.275  0.00  0.00    -0.287 NA
ATOM      9  C   UNL     1     -18.439   2.986  23.256  0.00  0.00    +0.146 C 
ATOM     10  C   UNL     1     -19.232   1.947  22.441  0.00  0.00    +0.030 C 
ATOM     11  C   UNL     1     -18.755   2.121  21.005  0.00  0.00    +0.017 C 
ATOM     12  C   UNL     1     -18.212   3.535  20.978  0.00  0.00    +0.085 C 
ENDROOT
BRANCH   9  14
ATOM      4  O   UNL     1     -17.116   1.156  24.190  0.00  0.00    -0.336 OA
ATOM      6  N   UNL     1     -17.504   2.829  25.627  0.00  0.00    -0.189 NA
ATOM      7  N   UNL     1     -16.490   0.793  25.389  0.00  0.00    -0.054 NA
ATOM     14  C   UNL     1     -17.688   2.368  24.416  0.00  0.00    +0.245 A 
ATOM     18  C   UNL     1     -16.764   1.829  26.186  0.00  0.00    +0.220 A 
BRANCH  18  21
ATOM      3  F   UNL     1     -15.066   1.912  31.416  0.00  0.00    -0.204 F 
ATOM      8  N   UNL     1     -16.378   0.741  28.244  0.00  0.00    -0.249 NA
ATOM     21  C   UNL     1     -16.312   1.896  27.546  0.00  0.00    +0.111 A 
ATOM     23  C   UNL     1     -15.845   3.092  28.068  0.00  0.00    +0.034 A 
ATOM     24  C   UNL     1     -15.418   3.101  29.392  0.00  0.00    +0.042 A 
ATOM     25  C   UNL     1     -15.956   0.789  29.527  0.00  0.00    +0.149 A 
ATOM     26  C   UNL     1     -15.471   1.933  30.142  0.00  0.00    +0.141 A 
ENDBRANCH  18  21
ENDBRANCH   9  14
BRANCH   5  13
ATOM     13  C   UNL     1     -17.202   5.002  22.619  0.00  0.00    +0.120 C 
BRANCH  13  15
ATOM      1  F   UNL     1     -13.889   7.434  19.987  0.00  0.00    -0.202 F 
ATOM      2  F   UNL     1     -11.849   6.222  21.346  0.00  0.00    -0.202 F 
ATOM     15  C   UNL     1     -15.771   5.327  22.279  0.00  0.00    -0.030 A 
ATOM     16  C   UNL     1     -15.487   6.248  21.271  0.00  0.00    +0.046 A 
ATOM     17  C   UNL     1     -14.730   4.708  22.972  0.00  0.00    +0.008 A 
ATOM     19  C   UNL     1     -14.161   6.551  20.955  0.00  0.00    +0.159 A 
ATOM     20  C   UNL     1     -13.406   5.011  22.657  0.00  0.00    +0.041 A 
ATOM     22  C   UNL     1     -13.122   5.932  21.649  0.00  0.00    +0.158 A 
ENDBRANCH  13  15
ENDBRANCH   5  13
TORSDOF 4
ENDMDL
MODEL 8
REMARK VINA RESULT:      -6.7     18.932     20.333
REMARK  Name = 51136924
REMARK  4 active torsions:
REMARK  status: ('A' for Active; 'I' for Inactive)
REMARK    1  A    between atoms: N_5  and  C_13
REMARK    2  A    between atoms: C_9  and  C_14
REMARK    3  A    between atoms: C_13  and  C_15
REMARK    4  A    between atoms: C_18  and  C_21
REMARK                            x       y       z     vdW  Elec       q    Type
REMARK                         _______ _______ _______ _____ _____    ______ ____
ROOT
ATOM      5  N   UNL     1     -16.268   5.346  22.047  0.00  0.00    -0.287 NA
ATOM      9  C   UNL     1     -17.409   4.809  22.814  0.00  0.00    +0.146 C 
ATOM     10  C   UNL     1     -18.326   4.167  21.755  0.00  0.00    +0.030 C 
ATOM     11  C   UNL     1     -17.647   4.447  20.421  0.00  0.00    +0.017 C 
ATOM     12  C   UNL     1     -16.776   5.652  20.709  0.00  0.00    +0.085 C 
ENDROOT
BRANCH   9  14
ATOM      4  O   UNL     1     -16.525   2.623  23.457  0.00  0.00    -0.336 OA
ATOM      6  N   UNL     1     -16.988   3.967  25.188  0.00  0.00    -0.189 NA
ATOM      7  N   UNL     1     -16.197   1.900  24.611  0.00  0.00    -0.054 NA
ATOM     14  C   UNL     1     -16.982   3.829  23.887  0.00  0.00    +0.245 A 
ATOM     18  C   UNL     1     -16.497   2.759  25.589  0.00  0.00    +0.220 A 
BRANCH  18  21
ATOM      3  F   UNL     1     -15.755   1.708  30.936  0.00  0.00    -0.204 F 
ATOM      8  N   UNL     1     -15.859   3.447  27.753  0.00  0.00    -0.249 NA
ATOM     21  C   UNL     1     -16.318   2.441  26.976  0.00  0.00    +0.111 A 
ATOM     23  C   UNL     1     -16.609   1.170  27.444  0.00  0.00    +0.034 A 
ATOM     24  C   UNL     1     -16.418   0.915  28.798  0.00  0.00    +0.042 A 
ATOM     25  C   UNL     1     -15.685   3.161  29.063  0.00  0.00    +0.149 A 
ATOM     26  C   UNL     1     -15.947   1.924  29.630  0.00  0.00    +0.141 A 
ENDBRANCH  18  21
ENDBRANCH   9  14
BRANCH   5  13
ATOM     13  C   UNL     1     -15.647   6.504  22.676  0.00  0.00    +0.120 C 
BRANCH  13  15
ATOM      1  F   UNL     1     -12.556   9.767  20.774  0.00  0.00    -0.202 F 
ATOM      2  F   UNL     1     -10.718   7.806  20.273  0.00  0.00    -0.202 F 
ATOM     15  C   UNL     1     -14.329   6.851  22.034  0.00  0.00    -0.030 A 
ATOM     16  C   UNL     1     -14.048   8.175  21.695  0.00  0.00    +0.046 A 
ATOM     17  C   UNL     1     -13.392   5.850  21.778  0.00  0.00    +0.008 A 
ATOM     19  C   UNL     1     -12.826   8.497  21.100  0.00  0.00    +0.159 A 
ATOM     20  C   UNL     1     -12.172   6.172  21.184  0.00  0.00    +0.041 A 
ATOM     22  C   UNL     1     -11.890   7.496  20.845  0.00  0.00    +0.158 A 
ENDBRANCH  13  15
ENDBRANCH   5  13
TORSDOF 4
ENDMDL
MODEL 9
REMARK VINA RESULT:      -6.6     18.849     19.942
REMARK  Name = 51136924
REMARK  4 active torsions:
REMARK  status: ('A' for Active; 'I' for Inactive)
REMARK    1  A    between atoms: N_5  and  C_13
REMARK    2  A    between atoms: C_9  and  C_14
REMARK    3  A    between atoms: C_13  and  C_15
REMARK    4  A    between atoms: C_18  and  C_21
REMARK                            x       y       z     vdW  Elec       q    Type
REMARK                         _______ _______ _______ _____ _____    ______ ____
ROOT
ATOM      5  N   UNL     1     -16.950   5.476  20.371  0.00  0.00    -0.287 NA
ATOM      9  C   UNL     1     -18.112   4.825  21.007  0.00  0.00    +0.146 C 
ATOM     10  C   UNL     1     -18.877   4.167  19.843  0.00  0.00    +0.030 C 
ATOM     11  C   UNL     1     -18.104   4.554  18.590  0.00  0.00    +0.017 C 
ATOM     12  C   UNL     1     -17.356   5.805  19.004  0.00  0.00    +0.085 C 
ENDROOT
BRANCH   9  14
ATOM      4  O   UNL     1     -17.513   2.550  21.669  0.00  0.00    -0.336 OA
ATOM      6  N   UNL     1     -17.523   4.021  23.358  0.00  0.00    -0.189 NA
ATOM      7  N   UNL     1     -17.156   1.829  22.816  0.00  0.00    -0.054 NA
ATOM     14  C   UNL     1     -17.710   3.831  22.077  0.00  0.00    +0.245 A 
ATOM     18  C   UNL     1     -17.185   2.765  23.769  0.00  0.00    +0.220 A 
BRANCH  18  21
ATOM      3  F   UNL     1     -15.966   1.835  29.050  0.00  0.00    -0.204 F 
ATOM      8  N   UNL     1     -16.429   3.521  25.872  0.00  0.00    -0.249 NA
ATOM     21  C   UNL     1     -16.879   2.477  25.141  0.00  0.00    +0.111 A 
ATOM     23  C   UNL     1     -17.049   1.196  25.640  0.00  0.00    +0.034 A 
ATOM     24  C   UNL     1     -16.738   0.972  26.977  0.00  0.00    +0.042 A 
ATOM     25  C   UNL     1     -16.136   3.265  27.167  0.00  0.00    +0.149 A 
ATOM     26  C   UNL     1     -16.272   2.020  27.762  0.00  0.00    +0.141 A 
ENDBRANCH  18  21
ENDBRANCH   9  14
BRANCH   5  13
ATOM     13  C   UNL     1     -16.477   6.646  21.099  0.00  0.00    +0.120 C 
BRANCH  13  15
ATOM      1  F   UNL     1     -11.997   5.084  22.243  0.00  0.00    -0.202 F 
ATOM      2  F   UNL     1     -10.869   7.149  20.849  0.00  0.00    -0.202 F 
ATOM     15  C   UNL     1     -14.978   6.781  21.032  0.00  0.00    -0.030 A 
ATOM     16  C   UNL     1     -14.166   5.852  21.681  0.00  0.00    +0.046 A 
ATOM     17  C   UNL     1     -14.404   7.835  20.321  0.00  0.00    +0.008 A 
ATOM     19  C   UNL     1     -12.777   5.976  21.619  0.00  0.00    +0.159 A 
ATOM     20  C   UNL     1     -13.016   7.959  20.259  0.00  0.00    +0.041 A 
ATOM     22  C   UNL     1     -12.203   7.029  20.908  0.00  0.00    +0.158 A 
ENDBRANCH  13  15
ENDBRANCH   5  13
TORSDOF 4
ENDMDL
MODEL 10
REMARK VINA RESULT:      -6.6      2.879      4.823
REMARK  Name = 51136924
REMARK  4 active torsions:
REMARK  status: ('A' for Active; 'I' for Inactive)
REMARK    1  A    between atoms: N_5  and  C_13
REMARK    2  A    between atoms: C_9  and  C_14
REMARK    3  A    between atoms: C_13  and  C_15
REMARK    4  A    between atoms: C_18  and  C_21
REMARK                            x       y       z     vdW  Elec       q    Type
REMARK                         _______ _______ _______ _____ _____    ______ ____
ROOT
ATOM      5  N   UNL     1      -5.622 -11.300  17.654  0.00  0.00    -0.287 NA
ATOM      9  C   UNL     1      -7.072 -11.463  17.881  0.00  0.00    +0.146 C 
ATOM     10  C   UNL     1      -7.286 -11.048  19.349  0.00  0.00    +0.030 C 
ATOM     11  C   UNL     1      -5.895 -10.728  19.879  0.00  0.00    +0.017 C 
ATOM     12  C   UNL     1      -4.974 -11.495  18.951  0.00  0.00    +0.085 C 
ENDROOT
BRANCH   9  14
ATOM      4  O   UNL     1      -7.798 -10.971  15.600  0.00  0.00    -0.336 OA
ATOM      6  N   UNL     1      -8.734  -9.664  17.161  0.00  0.00    -0.189 NA
ATOM      7  N   UNL     1      -8.651 -10.095  14.916  0.00  0.00    -0.054 NA
ATOM     14  C   UNL     1      -7.908 -10.649  16.917  0.00  0.00    +0.245 A 
ATOM     18  C   UNL     1      -9.165  -9.357  15.903  0.00  0.00    +0.220 A 
BRANCH  18  21
ATOM      3  F   UNL     1     -12.844  -5.409  14.842  0.00  0.00    -0.204 F 
ATOM      8  N   UNL     1     -10.809  -8.394  14.512  0.00  0.00    -0.249 NA
ATOM     21  C   UNL     1     -10.114  -8.306  15.667  0.00  0.00    +0.111 A 
ATOM     23  C   UNL     1     -10.271  -7.287  16.592  0.00  0.00    +0.034 A 
ATOM     24  C   UNL     1     -11.204  -6.294  16.314  0.00  0.00    +0.042 A 
ATOM     25  C   UNL     1     -11.706  -7.411  14.275  0.00  0.00    +0.149 A 
ATOM     26  C   UNL     1     -11.939  -6.349  15.136  0.00  0.00    +0.141 A 
ENDBRANCH  18  21
ENDBRANCH   9  14
BRANCH   5  13
ATOM     13  C   UNL     1      -5.095 -12.202  16.637  0.00  0.00    +0.120 C 
BRANCH  13  15
ATOM      1  F   UNL     1      -0.715 -10.130  16.053  0.00  0.00    -0.202 F 
ATOM      2  F   UNL     1      -1.226  -9.687  13.403  0.00  0.00    -0.202 F 
ATOM     15  C   UNL     1      -4.061 -11.530  15.773  0.00  0.00    -0.030 A 
ATOM     16  C   UNL     1      -2.843 -11.133  16.325  0.00  0.00    +0.046 A 
ATOM     17  C   UNL     1      -4.322 -11.304  14.421  0.00  0.00    +0.008 A 
ATOM     19  C   UNL     1      -1.884 -10.510  15.524  0.00  0.00    +0.159 A 
ATOM     20  C   UNL     1      -3.364 -10.682  13.621  0.00  0.00    +0.041 A 
ATOM     22  C   UNL     1      -2.146 -10.285  14.172  0.00  0.00    +0.158 A 
ENDBRANCH  13  15
ENDBRANCH   5  13
TORSDOF 4
ENDMDL
