MODEL 1
REMARK VINA RESULT:      -7.5      0.000      0.000
REMARK  Name = 75367089
REMARK  6 active torsions:
REMARK  status: ('A' for Active; 'I' for Inactive)
REMARK    1  A    between atoms: O_3  and  C_9
REMARK    2  A    between atoms: N_5  and  C_8
REMARK    3  A    between atoms: N_5  and  C_10
REMARK    4  A    between atoms: N_7  and  C_17
REMARK    5  A    between atoms: C_11  and  C_17
REMARK    6  A    between atoms: C_18  and  C_19
REMARK                            x       y       z     vdW  Elec       q    Type
REMARK                         _______ _______ _______ _____ _____    ______ ____
ROOT
ATOM      2  O   UNL     1      10.702   7.482  21.026  0.00  0.00    -0.371 OA
ATOM      8  C   UNL     1      11.656   9.464  21.923  0.00  0.00    +0.111 C 
ATOM      9  C   UNL     1      12.627   8.854  20.928  0.00  0.00    +0.164 C 
ATOM     11  C   UNL     1      11.691   7.975  20.108  0.00  0.00    +0.165 C 
ATOM     12  C   UNL     1      10.748   8.282  22.221  0.00  0.00    +0.181 C 
ENDROOT
BRANCH   9   3
ATOM      3  O   UNL     1      13.273   9.826  20.129  0.00  0.00    -0.388 OA
ATOM     27  H   UNL     1      13.458  10.603  20.683  0.00  0.00    +0.210 HD
ENDBRANCH   9   3
BRANCH   8   5
ATOM      5  N   UNL     1      12.299   9.998  23.112  0.00  0.00    -0.306 NA
ATOM     25  H   UNL     1      13.313   9.938  23.020  0.00  0.00    +0.123 HD
BRANCH   5  10
ATOM      6  N   UNL     1       9.799  13.421  23.485  0.00  0.00    -0.316 NA
ATOM     10  C   UNL     1      11.904  11.386  23.336  0.00  0.00    +0.056 C 
ATOM     13  C   UNL     1      10.964  11.502  24.542  0.00  0.00    +0.034 C 
ATOM     14  C   UNL     1      11.228  11.955  22.084  0.00  0.00    +0.034 C 
ATOM     15  C   UNL     1      10.458  12.937  24.701  0.00  0.00    +0.082 C 
ATOM     16  C   UNL     1      10.712  13.371  22.339  0.00  0.00    +0.082 C 
ATOM     26  H   UNL     1       9.492  14.382  23.629  0.00  0.00    +0.122 HD
ENDBRANCH   5  10
ENDBRANCH   8   5
BRANCH  11  17
ATOM     17  C   UNL     1      12.397   6.809  19.439  0.00  0.00    +0.138 C 
BRANCH  17   7
ATOM      4  O   UNL     1      14.749   7.283  17.862  0.00  0.00    -0.270 OA
ATOM      7  N   UNL     1      13.759   6.702  19.878  0.00  0.00    -0.309 N 
ATOM     18  C   UNL     1      14.842   6.952  19.041  0.00  0.00    +0.244 C 
ATOM     28  H   UNL     1      13.906   6.364  20.822  0.00  0.00    +0.149 HD
BRANCH  18  19
ATOM      1  F   UNL     1      19.933   6.267  21.306  0.00  0.00    -0.205 F 
ATOM     19  C   UNL     1      16.189   6.771  19.640  0.00  0.00    +0.037 A 
ATOM     20  C   UNL     1      16.551   7.497  20.775  0.00  0.00    +0.016 A 
ATOM     21  C   UNL     1      17.093   5.874  19.069  0.00  0.00    +0.016 A 
ATOM     22  C   UNL     1      17.817   7.328  21.337  0.00  0.00    +0.039 A 
ATOM     23  C   UNL     1      18.357   5.705  19.632  0.00  0.00    +0.039 A 
ATOM     24  C   UNL     1      18.719   6.432  20.766  0.00  0.00    +0.123 A 
ENDBRANCH  18  19
ENDBRANCH  17   7
ENDBRANCH  11  17
TORSDOF 6
ENDMDL
MODEL 2
REMARK VINA RESULT:      -6.8     26.084     27.748
REMARK  Name = 75367089
REMARK  6 active torsions:
REMARK  status: ('A' for Active; 'I' for Inactive)
REMARK    1  A    between atoms: O_3  and  C_9
REMARK    2  A    between atoms: N_5  and  C_8
REMARK    3  A    between atoms: N_5  and  C_10
REMARK    4  A    between atoms: N_7  and  C_17
REMARK    5  A    between atoms: C_11  and  C_17
REMARK    6  A    between atoms: C_18  and  C_19
REMARK                            x       y       z     vdW  Elec       q    Type
REMARK                         _______ _______ _______ _____ _____    ______ ____
ROOT
ATOM      2  O   UNL     1      -1.278 -11.441  15.205  0.00  0.00    -0.371 OA
ATOM      8  C   UNL     1      -3.375 -11.131  16.277  0.00  0.00    +0.111 C 
ATOM      9  C   UNL     1      -3.607 -11.709  14.892  0.00  0.00    +0.164 C 
ATOM     11  C   UNL     1      -2.242 -12.315  14.595  0.00  0.00    +0.165 C 
ATOM     12  C   UNL     1      -1.961 -10.592  16.144  0.00  0.00    +0.181 C 
ENDROOT
BRANCH   9   3
ATOM      3  O   UNL     1      -4.633 -12.683  14.872  0.00  0.00    -0.388 OA
ATOM     27  H   UNL     1      -5.472 -12.239  14.666  0.00  0.00    +0.210 HD
ENDBRANCH   9   3
BRANCH   8   5
ATOM      5  N   UNL     1      -4.338 -10.110  16.652  0.00  0.00    -0.306 NA
ATOM     25  H   UNL     1      -4.703  -9.649  15.819  0.00  0.00    +0.123 HD
BRANCH   5  10
ATOM      6  N   UNL     1      -7.337 -10.510  19.643  0.00  0.00    -0.316 NA
ATOM     10  C   UNL     1      -5.438 -10.690  17.418  0.00  0.00    +0.056 C 
ATOM     13  C   UNL     1      -6.680  -9.793  17.361  0.00  0.00    +0.034 C 
ATOM     14  C   UNL     1      -5.014 -10.911  18.873  0.00  0.00    +0.034 C 
ATOM     15  C   UNL     1      -7.789 -10.343  18.259  0.00  0.00    +0.082 C 
ATOM     16  C   UNL     1      -6.187 -11.416  19.713  0.00  0.00    +0.082 C 
ATOM     26  H   UNL     1      -8.100 -10.891  20.202  0.00  0.00    +0.122 HD
ENDBRANCH   5  10
ENDBRANCH   8   5
BRANCH  11  17
ATOM     17  C   UNL     1      -1.953 -12.442  13.110  0.00  0.00    +0.138 C 
BRANCH  17   7
ATOM      4  O   UNL     1      -1.468  -9.887  11.891  0.00  0.00    -0.270 OA
ATOM      7  N   UNL     1      -2.881 -11.674  12.330  0.00  0.00    -0.309 N 
ATOM     18  C   UNL     1      -2.558 -10.440  11.775  0.00  0.00    +0.244 C 
ATOM     28  H   UNL     1      -3.823 -12.041  12.255  0.00  0.00    +0.149 HD
BRANCH  18  19
ATOM      1  F   UNL     1      -6.641  -7.861   8.911  0.00  0.00    -0.205 F 
ATOM     19  C   UNL     1      -3.640  -9.758  11.017  0.00  0.00    +0.037 A 
ATOM     20  C   UNL     1      -4.888  -9.560  11.608  0.00  0.00    +0.016 A 
ATOM     21  C   UNL     1      -3.406  -9.314   9.715  0.00  0.00    +0.016 A 
ATOM     22  C   UNL     1      -5.902  -8.921  10.896  0.00  0.00    +0.039 A 
ATOM     23  C   UNL     1      -4.420  -8.673   9.005  0.00  0.00    +0.039 A 
ATOM     24  C   UNL     1      -5.669  -8.477   9.595  0.00  0.00    +0.123 A 
ENDBRANCH  18  19
ENDBRANCH  17   7
ENDBRANCH  11  17
TORSDOF 6
ENDMDL
MODEL 3
REMARK VINA RESULT:      -6.5     30.068     31.501
REMARK  Name = 75367089
REMARK  6 active torsions:
REMARK  status: ('A' for Active; 'I' for Inactive)
REMARK    1  A    between atoms: O_3  and  C_9
REMARK    2  A    between atoms: N_5  and  C_8
REMARK    3  A    between atoms: N_5  and  C_10
REMARK    4  A    between atoms: N_7  and  C_17
REMARK    5  A    between atoms: C_11  and  C_17
REMARK    6  A    between atoms: C_18  and  C_19
REMARK                            x       y       z     vdW  Elec       q    Type
REMARK                         _______ _______ _______ _____ _____    ______ ____
ROOT
ATOM      2  O   UNL     1     -16.412   0.279  28.850  0.00  0.00    -0.371 OA
ATOM      8  C   UNL     1     -16.472   2.270  27.555  0.00  0.00    +0.111 C 
ATOM      9  C   UNL     1     -15.771   2.557  28.871  0.00  0.00    +0.164 C 
ATOM     11  C   UNL     1     -15.361   1.153  29.296  0.00  0.00    +0.165 C 
ATOM     12  C   UNL     1     -17.210   0.982  27.882  0.00  0.00    +0.181 C 
ENDROOT
BRANCH   9   3
ATOM      3  O   UNL     1     -14.654   3.409  28.719  0.00  0.00    -0.388 OA
ATOM     27  H   UNL     1     -14.694   3.812  27.836  0.00  0.00    +0.210 HD
ENDBRANCH   9   3
BRANCH   8   5
ATOM      5  N   UNL     1     -17.359   3.337  27.121  0.00  0.00    -0.306 NA
ATOM     25  H   UNL     1     -17.173   4.186  27.654  0.00  0.00    +0.123 HD
BRANCH   5  10
ATOM      6  N   UNL     1     -16.082   2.828  23.094  0.00  0.00    -0.316 NA
ATOM     10  C   UNL     1     -17.192   3.602  25.694  0.00  0.00    +0.056 C 
ATOM     13  C   UNL     1     -17.798   2.474  24.851  0.00  0.00    +0.034 C 
ATOM     14  C   UNL     1     -15.707   3.774  25.356  0.00  0.00    +0.034 C 
ATOM     15  C   UNL     1     -17.517   2.696  23.365  0.00  0.00    +0.082 C 
ATOM     16  C   UNL     1     -15.508   3.945  23.850  0.00  0.00    +0.082 C 
ATOM     26  H   UNL     1     -15.942   2.989  22.098  0.00  0.00    +0.122 HD
ENDBRANCH   5  10
ENDBRANCH   8   5
BRANCH  11  17
ATOM     17  C   UNL     1     -15.178   1.011  30.796  0.00  0.00    +0.138 C 
BRANCH  17   7
ATOM      4  O   UNL     1     -14.688   1.495  33.584  0.00  0.00    -0.270 OA
ATOM      7  N   UNL     1     -14.885   2.275  31.408  0.00  0.00    -0.309 N 
ATOM     18  C   UNL     1     -14.660   2.417  32.773  0.00  0.00    +0.244 C 
ATOM     28  H   UNL     1     -14.916   3.089  30.805  0.00  0.00    +0.149 HD
BRANCH  18  19
ATOM      1  F   UNL     1     -13.656   7.633  34.591  0.00  0.00    -0.205 F 
ATOM     19  C   UNL     1     -14.395   3.798  33.255  0.00  0.00    +0.037 A 
ATOM     20  C   UNL     1     -14.456   4.085  34.619  0.00  0.00    +0.016 A 
ATOM     21  C   UNL     1     -14.083   4.807  32.343  0.00  0.00    +0.016 A 
ATOM     22  C   UNL     1     -14.208   5.381  35.070  0.00  0.00    +0.039 A 
ATOM     23  C   UNL     1     -13.833   6.102  32.796  0.00  0.00    +0.039 A 
ATOM     24  C   UNL     1     -13.896   6.389  34.159  0.00  0.00    +0.123 A 
ENDBRANCH  18  19
ENDBRANCH  17   7
ENDBRANCH  11  17
TORSDOF 6
ENDMDL
MODEL 4
REMARK VINA RESULT:      -6.3      1.463      2.093
REMARK  Name = 75367089
REMARK  6 active torsions:
REMARK  status: ('A' for Active; 'I' for Inactive)
REMARK    1  A    between atoms: O_3  and  C_9
REMARK    2  A    between atoms: N_5  and  C_8
REMARK    3  A    between atoms: N_5  and  C_10
REMARK    4  A    between atoms: N_7  and  C_17
REMARK    5  A    between atoms: C_11  and  C_17
REMARK    6  A    between atoms: C_18  and  C_19
REMARK                            x       y       z     vdW  Elec       q    Type
REMARK                         _______ _______ _______ _____ _____    ______ ____
ROOT
ATOM      2  O   UNL     1      12.636   8.285  19.473  0.00  0.00    -0.371 OA
ATOM      8  C   UNL     1      12.263   9.611  21.409  0.00  0.00    +0.111 C 
ATOM      9  C   UNL     1      13.266   8.521  21.742  0.00  0.00    +0.164 C 
ATOM     11  C   UNL     1      13.766   8.149  20.352  0.00  0.00    +0.165 C 
ATOM     12  C   UNL     1      11.626   9.057  20.146  0.00  0.00    +0.181 C 
ENDROOT
BRANCH   9   3
ATOM      3  O   UNL     1      14.314   8.979  22.573  0.00  0.00    -0.388 OA
ATOM     27  H   UNL     1      13.958   9.117  23.467  0.00  0.00    +0.210 HD
ENDBRANCH   9   3
BRANCH   8   5
ATOM      5  N   UNL     1      11.299   9.859  22.468  0.00  0.00    -0.306 NA
ATOM     25  H   UNL     1      11.322   9.100  23.148  0.00  0.00    +0.123 HD
BRANCH   5  10
ATOM      6  N   UNL     1      10.598  13.576  24.416  0.00  0.00    -0.316 NA
ATOM     10  C   UNL     1      11.577  11.129  23.135  0.00  0.00    +0.056 C 
ATOM     13  C   UNL     1      11.015  11.135  24.561  0.00  0.00    +0.034 C 
ATOM     14  C   UNL     1      10.987  12.292  22.331  0.00  0.00    +0.034 C 
ATOM     15  C   UNL     1      11.202  12.505  25.213  0.00  0.00    +0.082 C 
ATOM     16  C   UNL     1      11.175  13.616  23.070  0.00  0.00    +0.082 C 
ATOM     26  H   UNL     1      10.758  14.471  24.878  0.00  0.00    +0.122 HD
ENDBRANCH   5  10
ENDBRANCH   8   5
BRANCH  11  17
ATOM     17  C   UNL     1      14.312   6.735  20.270  0.00  0.00    +0.138 C 
BRANCH  17   7
ATOM      4  O   UNL     1      16.541   5.840  18.696  0.00  0.00    -0.270 OA
ATOM      7  N   UNL     1      15.686   6.681  20.682  0.00  0.00    -0.309 N 
ATOM     18  C   UNL     1      16.705   6.232  19.849  0.00  0.00    +0.244 C 
ATOM     28  H   UNL     1      15.879   6.925  21.646  0.00  0.00    +0.149 HD
BRANCH  18  19
ATOM      1  F   UNL     1      21.866   6.164  22.059  0.00  0.00    -0.205 F 
ATOM     19  C   UNL     1      18.071   6.213  20.434  0.00  0.00    +0.037 A 
ATOM     20  C   UNL     1      19.026   5.319  19.949  0.00  0.00    +0.016 A 
ATOM     21  C   UNL     1      18.399   7.091  21.468  0.00  0.00    +0.016 A 
ATOM     22  C   UNL     1      20.307   5.302  20.499  0.00  0.00    +0.039 A 
ATOM     23  C   UNL     1      19.681   7.073  22.016  0.00  0.00    +0.039 A 
ATOM     24  C   UNL     1      20.635   6.179  21.532  0.00  0.00    +0.123 A 
ENDBRANCH  18  19
ENDBRANCH  17   7
ENDBRANCH  11  17
TORSDOF 6
ENDMDL
MODEL 5
REMARK VINA RESULT:      -6.1     28.106     30.734
REMARK  Name = 75367089
REMARK  6 active torsions:
REMARK  status: ('A' for Active; 'I' for Inactive)
REMARK    1  A    between atoms: O_3  and  C_9
REMARK    2  A    between atoms: N_5  and  C_8
REMARK    3  A    between atoms: N_5  and  C_10
REMARK    4  A    between atoms: N_7  and  C_17
REMARK    5  A    between atoms: C_11  and  C_17
REMARK    6  A    between atoms: C_18  and  C_19
REMARK                            x       y       z     vdW  Elec       q    Type
REMARK                         _______ _______ _______ _____ _____    ______ ____
ROOT
ATOM      2  O   UNL     1      -9.650 -13.057  18.589  0.00  0.00    -0.371 OA
ATOM      8  C   UNL     1      -8.328 -11.482  19.779  0.00  0.00    +0.111 C 
ATOM      9  C   UNL     1      -9.710 -10.896  19.550  0.00  0.00    +0.164 C 
ATOM     11  C   UNL     1     -10.523 -12.158  19.291  0.00  0.00    +0.165 C 
ATOM     12  C   UNL     1      -8.297 -12.592  18.742  0.00  0.00    +0.181 C 
ENDROOT
BRANCH   9   3
ATOM      3  O   UNL     1     -10.190 -10.179  20.670  0.00  0.00    -0.388 OA
ATOM     27  H   UNL     1      -9.433  -9.761  21.114  0.00  0.00    +0.210 HD
ENDBRANCH   9   3
BRANCH   8   5
ATOM      5  N   UNL     1      -7.251 -10.520  19.612  0.00  0.00    -0.306 NA
ATOM     25  H   UNL     1      -6.572 -10.620  20.365  0.00  0.00    +0.123 HD
BRANCH   5  10
ATOM      6  N   UNL     1      -4.754  -9.707  16.264  0.00  0.00    -0.316 NA
ATOM     10  C   UNL     1      -6.590 -10.700  18.322  0.00  0.00    +0.056 C 
ATOM     13  C   UNL     1      -5.067 -10.759  18.489  0.00  0.00    +0.034 C 
ATOM     14  C   UNL     1      -6.972  -9.565  17.366  0.00  0.00    +0.034 C 
ATOM     15  C   UNL     1      -4.373 -10.828  17.128  0.00  0.00    +0.082 C 
ATOM     16  C   UNL     1      -6.203  -9.680  16.049  0.00  0.00    +0.082 C 
ATOM     26  H   UNL     1      -4.283  -9.800  15.365  0.00  0.00    +0.122 HD
ENDBRANCH   5  10
ENDBRANCH   8   5
BRANCH  11  17
ATOM     17  C   UNL     1     -11.772 -11.906  18.466  0.00  0.00    +0.138 C 
BRANCH  17   7
ATOM      4  O   UNL     1     -13.352  -9.529  18.782  0.00  0.00    -0.270 OA
ATOM      7  N   UNL     1     -11.660 -10.695  17.705  0.00  0.00    -0.309 N 
ATOM     18  C   UNL     1     -12.471  -9.587  17.928  0.00  0.00    +0.244 C 
ATOM     28  H   UNL     1     -10.999 -10.702  16.937  0.00  0.00    +0.149 HD
BRANCH  18  19
ATOM      1  F   UNL     1     -11.624  -5.173  14.565  0.00  0.00    -0.205 F 
ATOM     19  C   UNL     1     -12.247  -8.420  17.037  0.00  0.00    +0.037 A 
ATOM     20  C   UNL     1     -13.287  -7.940  16.240  0.00  0.00    +0.016 A 
ATOM     21  C   UNL     1     -10.997  -7.801  16.999  0.00  0.00    +0.016 A 
ATOM     22  C   UNL     1     -13.076  -6.844  15.404  0.00  0.00    +0.039 A 
ATOM     23  C   UNL     1     -10.788  -6.704  16.164  0.00  0.00    +0.039 A 
ATOM     24  C   UNL     1     -11.827  -6.226  15.366  0.00  0.00    +0.123 A 
ENDBRANCH  18  19
ENDBRANCH  17   7
ENDBRANCH  11  17
TORSDOF 6
ENDMDL
MODEL 6
REMARK VINA RESULT:      -6.1     26.887     28.311
REMARK  Name = 75367089
REMARK  6 active torsions:
REMARK  status: ('A' for Active; 'I' for Inactive)
REMARK    1  A    between atoms: O_3  and  C_9
REMARK    2  A    between atoms: N_5  and  C_8
REMARK    3  A    between atoms: N_5  and  C_10
REMARK    4  A    between atoms: N_7  and  C_17
REMARK    5  A    between atoms: C_11  and  C_17
REMARK    6  A    between atoms: C_18  and  C_19
REMARK                            x       y       z     vdW  Elec       q    Type
REMARK                         _______ _______ _______ _____ _____    ______ ____
ROOT
ATOM      2  O   UNL     1      -4.455 -10.590  14.334  0.00  0.00    -0.371 OA
ATOM      8  C   UNL     1      -4.193 -11.463  16.528  0.00  0.00    +0.111 C 
ATOM      9  C   UNL     1      -2.855 -11.513  15.812  0.00  0.00    +0.164 C 
ATOM     11  C   UNL     1      -3.072 -10.482  14.712  0.00  0.00    +0.165 C 
ATOM     12  C   UNL     1      -5.153 -11.317  15.359  0.00  0.00    +0.181 C 
ENDROOT
BRANCH   9   3
ATOM      3  O   UNL     1      -1.772 -11.166  16.654  0.00  0.00    -0.388 OA
ATOM     27  H   UNL     1      -1.759 -10.199  16.752  0.00  0.00    +0.210 HD
ENDBRANCH   9   3
BRANCH   8   5
ATOM      5  N   UNL     1      -4.463 -12.635  17.342  0.00  0.00    -0.306 NA
ATOM     25  H   UNL     1      -3.588 -13.072  17.631  0.00  0.00    +0.123 HD
BRANCH   5  10
ATOM      6  N   UNL     1      -7.494 -10.817  19.710  0.00  0.00    -0.316 NA
ATOM     10  C   UNL     1      -5.251 -12.279  18.520  0.00  0.00    +0.056 C 
ATOM     13  C   UNL     1      -6.702 -12.750  18.373  0.00  0.00    +0.034 C 
ATOM     14  C   UNL     1      -5.208 -10.765  18.749  0.00  0.00    +0.034 C 
ATOM     15  C   UNL     1      -7.550 -12.272  19.552  0.00  0.00    +0.082 C 
ATOM     16  C   UNL     1      -6.115 -10.365  19.913  0.00  0.00    +0.082 C 
ATOM     26  H   UNL     1      -8.059 -10.543  20.513  0.00  0.00    +0.122 HD
ENDBRANCH   5  10
ENDBRANCH   8   5
BRANCH  11  17
ATOM     17  C   UNL     1      -2.189 -10.706  13.498  0.00  0.00    +0.138 C 
BRANCH  17   7
ATOM      4  O   UNL     1      -1.763  -9.360  10.997  0.00  0.00    -0.270 OA
ATOM      7  N   UNL     1      -2.971 -10.849  12.303  0.00  0.00    -0.309 N 
ATOM     18  C   UNL     1      -2.690 -10.154  11.131  0.00  0.00    +0.244 C 
ATOM     28  H   UNL     1      -3.794 -11.437  12.368  0.00  0.00    +0.149 HD
BRANCH  18  19
ATOM      1  F   UNL     1      -6.167 -11.059   6.817  0.00  0.00    -0.205 F 
ATOM     19  C   UNL     1      -3.611 -10.393   9.990  0.00  0.00    +0.037 A 
ATOM     20  C   UNL     1      -4.115  -9.315   9.262  0.00  0.00    +0.016 A 
ATOM     21  C   UNL     1      -3.971 -11.696   9.644  0.00  0.00    +0.016 A 
ATOM     22  C   UNL     1      -4.979  -9.540   8.191  0.00  0.00    +0.039 A 
ATOM     23  C   UNL     1      -4.834 -11.920   8.573  0.00  0.00    +0.039 A 
ATOM     24  C   UNL     1      -5.339 -10.842   7.846  0.00  0.00    +0.123 A 
ENDBRANCH  18  19
ENDBRANCH  17   7
ENDBRANCH  11  17
TORSDOF 6
ENDMDL
MODEL 7
REMARK VINA RESULT:      -6.1     26.907     28.288
REMARK  Name = 75367089
REMARK  6 active torsions:
REMARK  status: ('A' for Active; 'I' for Inactive)
REMARK    1  A    between atoms: O_3  and  C_9
REMARK    2  A    between atoms: N_5  and  C_8
REMARK    3  A    between atoms: N_5  and  C_10
REMARK    4  A    between atoms: N_7  and  C_17
REMARK    5  A    between atoms: C_11  and  C_17
REMARK    6  A    between atoms: C_18  and  C_19
REMARK                            x       y       z     vdW  Elec       q    Type
REMARK                         _______ _______ _______ _____ _____    ______ ____
ROOT
ATOM      2  O   UNL     1      -6.365 -11.192  18.462  0.00  0.00    -0.371 OA
ATOM      8  C   UNL     1      -8.148  -9.885  17.593  0.00  0.00    +0.111 C 
ATOM      9  C   UNL     1      -6.899  -9.627  16.770  0.00  0.00    +0.164 C 
ATOM     11  C   UNL     1      -6.075 -10.867  17.093  0.00  0.00    +0.165 C 
ATOM     12  C   UNL     1      -7.557 -10.490  18.856  0.00  0.00    +0.181 C 
ENDROOT
BRANCH   9   3
ATOM      3  O   UNL     1      -7.170  -9.519  15.387  0.00  0.00    -0.388 OA
ATOM     27  H   UNL     1      -7.421  -8.600  15.195  0.00  0.00    +0.210 HD
ENDBRANCH   9   3
BRANCH   8   5
ATOM      5  N   UNL     1      -8.934  -8.691  17.852  0.00  0.00    -0.306 NA
ATOM     25  H   UNL     1      -8.356  -7.859  17.739  0.00  0.00    +0.123 HD
BRANCH   5  10
ATOM      6  N   UNL     1     -12.615  -7.362  16.182  0.00  0.00    -0.316 NA
ATOM     10  C   UNL     1     -10.082  -8.620  16.951  0.00  0.00    +0.056 C 
ATOM     13  C   UNL     1     -10.137  -7.265  16.236  0.00  0.00    +0.034 C 
ATOM     14  C   UNL     1     -11.382  -8.859  17.727  0.00  0.00    +0.034 C 
ATOM     15  C   UNL     1     -11.403  -7.150  15.386  0.00  0.00    +0.082 C 
ATOM     16  C   UNL     1     -12.599  -8.681  16.820  0.00  0.00    +0.082 C 
ATOM     26  H   UNL     1     -13.432  -7.292  15.576  0.00  0.00    +0.122 HD
ENDBRANCH   5  10
ENDBRANCH   8   5
BRANCH  11  17
ATOM     17  C   UNL     1      -4.581 -10.655  16.921  0.00  0.00    +0.138 C 
BRANCH  17   7
ATOM      4  O   UNL     1      -3.912 -12.398  14.739  0.00  0.00    -0.270 OA
ATOM      7  N   UNL     1      -4.261 -10.263  15.578  0.00  0.00    -0.309 N 
ATOM     18  C   UNL     1      -3.948 -11.180  14.580  0.00  0.00    +0.244 C 
ATOM     28  H   UNL     1      -4.204  -9.267  15.398  0.00  0.00    +0.149 HD
BRANCH  18  19
ATOM      1  F   UNL     1      -2.682  -9.032   9.550  0.00  0.00    -0.205 F 
ATOM     19  C   UNL     1      -3.613 -10.612  13.249  0.00  0.00    +0.037 A 
ATOM     20  C   UNL     1      -4.627 -10.129  12.421  0.00  0.00    +0.016 A 
ATOM     21  C   UNL     1      -2.284 -10.560  12.826  0.00  0.00    +0.016 A 
ATOM     22  C   UNL     1      -4.313  -9.596  11.171  0.00  0.00    +0.039 A 
ATOM     23  C   UNL     1      -1.971 -10.026  11.577  0.00  0.00    +0.039 A 
ATOM     24  C   UNL     1      -2.985  -9.545  10.749  0.00  0.00    +0.123 A 
ENDBRANCH  18  19
ENDBRANCH  17   7
ENDBRANCH  11  17
TORSDOF 6
ENDMDL
MODEL 8
REMARK VINA RESULT:      -6.0     28.751     30.749
REMARK  Name = 75367089
REMARK  6 active torsions:
REMARK  status: ('A' for Active; 'I' for Inactive)
REMARK    1  A    between atoms: O_3  and  C_9
REMARK    2  A    between atoms: N_5  and  C_8
REMARK    3  A    between atoms: N_5  and  C_10
REMARK    4  A    between atoms: N_7  and  C_17
REMARK    5  A    between atoms: C_11  and  C_17
REMARK    6  A    between atoms: C_18  and  C_19
REMARK                            x       y       z     vdW  Elec       q    Type
REMARK                         _______ _______ _______ _____ _____    ______ ____
ROOT
ATOM      2  O   UNL     1     -16.623   0.574  27.967  0.00  0.00    -0.371 OA
ATOM      8  C   UNL     1     -15.640   2.469  29.011  0.00  0.00    +0.111 C 
ATOM      9  C   UNL     1     -15.819   2.757  27.531  0.00  0.00    +0.164 C 
ATOM     11  C   UNL     1     -16.886   1.735  27.161  0.00  0.00    +0.165 C 
ATOM     12  C   UNL     1     -15.738   0.953  29.037  0.00  0.00    +0.181 C 
ENDROOT
BRANCH   9   3
ATOM      3  O   UNL     1     -16.247   4.081  27.280  0.00  0.00    -0.388 OA
ATOM     27  H   UNL     1     -15.613   4.497  26.671  0.00  0.00    +0.210 HD
ENDBRANCH   9   3
BRANCH   8   5
ATOM      5  N   UNL     1     -14.387   2.966  29.555  0.00  0.00    -0.306 NA
ATOM     25  H   UNL     1     -14.039   3.736  28.985  0.00  0.00    +0.123 HD
BRANCH   5  10
ATOM      6  N   UNL     1     -15.841   3.085  33.551  0.00  0.00    -0.316 NA
ATOM     10  C   UNL     1     -14.561   3.411  30.935  0.00  0.00    +0.056 C 
ATOM     13  C   UNL     1     -14.136   2.317  31.922  0.00  0.00    +0.034 C 
ATOM     14  C   UNL     1     -16.019   3.809  31.186  0.00  0.00    +0.034 C 
ATOM     15  C   UNL     1     -14.430   2.740  33.362  0.00  0.00    +0.082 C 
ATOM     16  C   UNL     1     -16.239   4.173  32.654  0.00  0.00    +0.082 C 
ATOM     26  H   UNL     1     -15.990   3.375  34.518  0.00  0.00    +0.122 HD
ENDBRANCH   5  10
ENDBRANCH   8   5
BRANCH  11  17
ATOM     17  C   UNL     1     -16.868   1.354  25.692  0.00  0.00    +0.138 C 
BRANCH  17   7
ATOM      4  O   UNL     1     -18.014   3.170  23.786  0.00  0.00    -0.270 OA
ATOM      7  N   UNL     1     -16.166   2.330  24.908  0.00  0.00    -0.309 N 
ATOM     18  C   UNL     1     -16.806   3.172  24.005  0.00  0.00    +0.244 C 
ATOM     28  H   UNL     1     -15.155   2.335  24.990  0.00  0.00    +0.149 HD
BRANCH  18  19
ATOM      1  F   UNL     1     -13.511   6.718  21.160  0.00  0.00    -0.205 F 
ATOM     19  C   UNL     1     -15.934   4.110  23.252  0.00  0.00    +0.037 A 
ATOM     20  C   UNL     1     -16.409   4.729  22.095  0.00  0.00    +0.016 A 
ATOM     21  C   UNL     1     -14.639   4.374  23.701  0.00  0.00    +0.016 A 
ATOM     22  C   UNL     1     -15.591   5.609  21.388  0.00  0.00    +0.039 A 
ATOM     23  C   UNL     1     -13.822   5.255  22.994  0.00  0.00    +0.039 A 
ATOM     24  C   UNL     1     -14.297   5.872  21.837  0.00  0.00    +0.123 A 
ENDBRANCH  18  19
ENDBRANCH  17   7
ENDBRANCH  11  17
TORSDOF 6
ENDMDL
MODEL 9
REMARK VINA RESULT:      -6.0     29.295     31.361
REMARK  Name = 75367089
REMARK  6 active torsions:
REMARK  status: ('A' for Active; 'I' for Inactive)
REMARK    1  A    between atoms: O_3  and  C_9
REMARK    2  A    between atoms: N_5  and  C_8
REMARK    3  A    between atoms: N_5  and  C_10
REMARK    4  A    between atoms: N_7  and  C_17
REMARK    5  A    between atoms: C_11  and  C_17
REMARK    6  A    between atoms: C_18  and  C_19
REMARK                            x       y       z     vdW  Elec       q    Type
REMARK                         _______ _______ _______ _____ _____    ______ ____
ROOT
ATOM      2  O   UNL     1     -17.827   3.338  27.441  0.00  0.00    -0.371 OA
ATOM      8  C   UNL     1     -16.583   3.656  25.442  0.00  0.00    +0.111 C 
ATOM      9  C   UNL     1     -16.434   2.214  25.894  0.00  0.00    +0.164 C 
ATOM     11  C   UNL     1     -17.649   2.064  26.800  0.00  0.00    +0.165 C 
ATOM     12  C   UNL     1     -17.067   4.323  26.719  0.00  0.00    +0.181 C 
ENDROOT
BRANCH   9   3
ATOM      3  O   UNL     1     -16.463   1.299  24.817  0.00  0.00    -0.388 OA
ATOM     27  H   UNL     1     -16.651   1.792  24.001  0.00  0.00    +0.210 HD
ENDBRANCH   9   3
BRANCH   8   5
ATOM      5  N   UNL     1     -15.354   4.237  24.929  0.00  0.00    -0.306 NA
ATOM     25  H   UNL     1     -14.678   3.502  24.723  0.00  0.00    +0.123 HD
BRANCH   5  10
ATOM      6  N   UNL     1     -15.794   5.181  20.804  0.00  0.00    -0.316 NA
ATOM     10  C   UNL     1     -15.614   5.022  23.725  0.00  0.00    +0.056 C 
ATOM     13  C   UNL     1     -16.809   4.457  22.949  0.00  0.00    +0.034 C 
ATOM     14  C   UNL     1     -14.371   5.051  22.831  0.00  0.00    +0.034 C 
ATOM     15  C   UNL     1     -17.004   5.207  21.630  0.00  0.00    +0.082 C 
ATOM     16  C   UNL     1     -14.661   5.777  21.517  0.00  0.00    +0.082 C 
ATOM     26  H   UNL     1     -15.963   5.704  19.945  0.00  0.00    +0.122 HD
ENDBRANCH   5  10
ENDBRANCH   8   5
BRANCH  11  17
ATOM     17  C   UNL     1     -17.483   0.980  27.850  0.00  0.00    +0.138 C 
BRANCH  17   7
ATOM      4  O   UNL     1     -15.038   0.231  29.156  0.00  0.00    -0.270 OA
ATOM      7  N   UNL     1     -16.967   1.517  29.077  0.00  0.00    -0.309 N 
ATOM     18  C   UNL     1     -15.768   1.092  29.639  0.00  0.00    +0.244 C 
ATOM     28  H   UNL     1     -17.557   2.182  29.564  0.00  0.00    +0.149 HD
BRANCH  18  19
ATOM      1  F   UNL     1     -14.325   3.491  34.506  0.00  0.00    -0.205 F 
ATOM     19  C   UNL     1     -15.385   1.728  30.927  0.00  0.00    +0.037 A 
ATOM     20  C   UNL     1     -15.483   3.111  31.078  0.00  0.00    +0.016 A 
ATOM     21  C   UNL     1     -14.930   0.941  31.985  0.00  0.00    +0.016 A 
ATOM     22  C   UNL     1     -15.124   3.707  32.287  0.00  0.00    +0.039 A 
ATOM     23  C   UNL     1     -14.572   1.537  33.193  0.00  0.00    +0.039 A 
ATOM     24  C   UNL     1     -14.669   2.920  33.345  0.00  0.00    +0.123 A 
ENDBRANCH  18  19
ENDBRANCH  17   7
ENDBRANCH  11  17
TORSDOF 6
ENDMDL
MODEL 10
REMARK VINA RESULT:      -6.0     27.491     29.500
REMARK  Name = 75367089
REMARK  6 active torsions:
REMARK  status: ('A' for Active; 'I' for Inactive)
REMARK    1  A    between atoms: O_3  and  C_9
REMARK    2  A    between atoms: N_5  and  C_8
REMARK    3  A    between atoms: N_5  and  C_10
REMARK    4  A    between atoms: N_7  and  C_17
REMARK    5  A    between atoms: C_11  and  C_17
REMARK    6  A    between atoms: C_18  and  C_19
REMARK                            x       y       z     vdW  Elec       q    Type
REMARK                         _______ _______ _______ _____ _____    ______ ____
ROOT
ATOM      2  O   UNL     1     -12.080  -8.282  15.981  0.00  0.00    -0.371 OA
ATOM      8  C   UNL     1     -12.029  -6.277  14.709  0.00  0.00    +0.111 C 
ATOM      9  C   UNL     1     -10.940  -6.221  15.764  0.00  0.00    +0.164 C 
ATOM     11  C   UNL     1     -10.771  -7.700  16.089  0.00  0.00    +0.165 C 
ATOM     12  C   UNL     1     -12.929  -7.370  15.262  0.00  0.00    +0.181 C 
ENDROOT
BRANCH   9   3
ATOM      3  O   UNL     1      -9.741  -5.647  15.282  0.00  0.00    -0.388 OA
ATOM     27  H   UNL     1      -9.053  -5.761  15.958  0.00  0.00    +0.210 HD
ENDBRANCH   9   3
BRANCH   8   5
ATOM      5  N   UNL     1     -12.723  -5.014  14.519  0.00  0.00    -0.306 NA
ATOM     25  H   UNL     1     -12.122  -4.238  14.796  0.00  0.00    +0.123 HD
BRANCH   5  10
ATOM      6  N   UNL     1     -14.120  -3.129  10.970  0.00  0.00    -0.316 NA
ATOM     10  C   UNL     1     -13.130  -4.850  13.126  0.00  0.00    +0.056 C 
ATOM     13  C   UNL     1     -12.226  -3.844  12.404  0.00  0.00    +0.034 C 
ATOM     14  C   UNL     1     -14.591  -4.395  13.050  0.00  0.00    +0.034 C 
ATOM     15  C   UNL     1     -12.728  -3.586  10.982  0.00  0.00    +0.082 C 
ATOM     16  C   UNL     1     -15.000  -4.114  11.604  0.00  0.00    +0.082 C 
ATOM     26  H   UNL     1     -14.417  -2.984  10.005  0.00  0.00    +0.122 HD
ENDBRANCH   5  10
ENDBRANCH   8   5
BRANCH  11  17
ATOM     17  C   UNL     1     -10.212  -7.948  17.479  0.00  0.00    +0.138 C 
BRANCH  17   7
ATOM      4  O   UNL     1      -9.342 -10.648  17.925  0.00  0.00    -0.270 OA
ATOM      7  N   UNL     1      -8.864  -8.435  17.419  0.00  0.00    -0.309 N 
ATOM     18  C   UNL     1      -8.532  -9.766  17.651  0.00  0.00    +0.244 C 
ATOM     28  H   UNL     1      -8.138  -7.743  17.267  0.00  0.00    +0.149 HD
BRANCH  18  19
ATOM      1  F   UNL     1      -3.074 -11.049  17.373  0.00  0.00    -0.205 F 
ATOM     19  C   UNL     1      -7.088 -10.105  17.578  0.00  0.00    +0.037 A 
ATOM     20  C   UNL     1      -6.474 -10.776  18.636  0.00  0.00    +0.016 A 
ATOM     21  C   UNL     1      -6.344  -9.754  16.451  0.00  0.00    +0.016 A 
ATOM     22  C   UNL     1      -5.118 -11.094  18.567  0.00  0.00    +0.039 A 
ATOM     23  C   UNL     1      -4.989 -10.073  16.382  0.00  0.00    +0.039 A 
ATOM     24  C   UNL     1      -4.375 -10.743  17.441  0.00  0.00    +0.123 A 
ENDBRANCH  18  19
ENDBRANCH  17   7
ENDBRANCH  11  17
TORSDOF 6
ENDMDL
