MODEL 1
REMARK VINA RESULT:      -8.1      0.000      0.000
REMARK  Name = 45783300
REMARK  5 active torsions:
REMARK  status: ('A' for Active; 'I' for Inactive)
REMARK    1  A    between atoms: N_6  and  C_15
REMARK    2  A    between atoms: C_11  and  C_16
REMARK    3  A    between atoms: C_15  and  C_17
REMARK    4  A    between atoms: C_18  and  C_23
REMARK    5  A    between atoms: C_30  and  C_33
REMARK                            x       y       z     vdW  Elec       q    Type
REMARK                         _______ _______ _______ _____ _____    ______ ____
ROOT
ATOM      4  O   UNL     1     -16.420   3.563  22.360  0.00  0.00    -0.336 OA
ATOM      7  N   UNL     1     -17.136   4.310  24.346  0.00  0.00    -0.190 NA
ATOM      9  N   UNL     1     -16.459   2.447  23.204  0.00  0.00    -0.056 NA
ATOM     16  C   UNL     1     -16.833   4.617  23.110  0.00  0.00    +0.245 A 
ATOM     18  C   UNL     1     -16.890   2.968  24.357  0.00  0.00    +0.202 A 
ENDROOT
BRANCH  18  23
ATOM      5  O   UNL     1     -14.109   2.013  31.195  0.00  0.00    -0.377 OA
ATOM      8  N   UNL     1     -15.612   1.718  28.839  0.00  0.00    -0.311 N 
ATOM     10  N   UNL     1     -17.464   0.636  27.839  0.00  0.00    -0.240 NA
ATOM     21  C   UNL     1     -15.356   0.560  29.707  0.00  0.00    +0.134 C 
ATOM     22  C   UNL     1     -15.515   3.025  29.497  0.00  0.00    +0.134 C 
ATOM     23  C   UNL     1     -17.084   2.176  25.537  0.00  0.00    +0.027 A 
ATOM     24  C   UNL     1     -16.470   1.547  27.748  0.00  0.00    +0.122 A 
ATOM     27  C   UNL     1     -14.063   0.776  30.486  0.00  0.00    +0.178 C 
ATOM     28  C   UNL     1     -14.215   3.110  30.287  0.00  0.00    +0.178 C 
ATOM     29  C   UNL     1     -16.240   2.335  26.631  0.00  0.00    +0.055 A 
ATOM     31  C   UNL     1     -18.118   1.248  25.593  0.00  0.00    +0.031 A 
ATOM     32  C   UNL     1     -18.264   0.509  26.757  0.00  0.00    +0.113 A 
ENDBRANCH  18  23
BRANCH  16  11
ATOM      6  N   UNL     1     -15.645   6.263  21.670  0.00  0.00    -0.287 NA
ATOM     11  C   UNL     1     -16.883   5.962  22.416  0.00  0.00    +0.146 C 
ATOM     12  C   UNL     1     -18.005   6.046  21.364  0.00  0.00    +0.030 C 
ATOM     13  C   UNL     1     -17.310   6.458  20.074  0.00  0.00    +0.017 C 
ATOM     14  C   UNL     1     -16.035   7.123  20.553  0.00  0.00    +0.085 C 
BRANCH   6  15
ATOM     15  C   UNL     1     -14.610   6.871  22.495  0.00  0.00    +0.120 C 
BRANCH  15  17
ATOM     17  C   UNL     1     -13.525   7.500  21.662  0.00  0.00    -0.033 A 
ATOM     19  C   UNL     1     -12.595   6.694  21.005  0.00  0.00    +0.005 A 
ATOM     20  C   UNL     1     -13.451   8.887  21.545  0.00  0.00    +0.005 A 
ATOM     25  C   UNL     1     -11.590   7.276  20.232  0.00  0.00    +0.012 A 
ATOM     26  C   UNL     1     -12.446   9.469  20.772  0.00  0.00    +0.012 A 
ATOM     30  C   UNL     1     -11.516   8.664  20.115  0.00  0.00    +0.055 A 
BRANCH  30  33
ATOM      1  F   UNL     1     -10.664  10.604  19.004  0.00  0.00    -0.166 F 
ATOM      2  F   UNL     1     -10.294   8.673  18.076  0.00  0.00    -0.166 F 
ATOM      3  F   UNL     1      -9.209   9.248  19.871  0.00  0.00    -0.166 F 
ATOM     33  C   UNL     1     -10.444   9.286  19.286  0.00  0.00    +0.417 C 
ENDBRANCH  30  33
ENDBRANCH  15  17
ENDBRANCH   6  15
ENDBRANCH  16  11
TORSDOF 5
ENDMDL
MODEL 2
REMARK VINA RESULT:      -7.9     27.665     31.562
REMARK  Name = 45783300
REMARK  5 active torsions:
REMARK  status: ('A' for Active; 'I' for Inactive)
REMARK    1  A    between atoms: N_6  and  C_15
REMARK    2  A    between atoms: C_11  and  C_16
REMARK    3  A    between atoms: C_15  and  C_17
REMARK    4  A    between atoms: C_18  and  C_23
REMARK    5  A    between atoms: C_30  and  C_33
REMARK                            x       y       z     vdW  Elec       q    Type
REMARK                         _______ _______ _______ _____ _____    ______ ____
ROOT
ATOM      4  O   UNL     1      14.419   8.271  21.243  0.00  0.00    -0.336 OA
ATOM      7  N   UNL     1      16.112   7.698  19.895  0.00  0.00    -0.190 NA
ATOM      9  N   UNL     1      15.588   8.440  21.994  0.00  0.00    -0.056 NA
ATOM     16  C   UNL     1      14.816   7.832  20.021  0.00  0.00    +0.245 A 
ATOM     18  C   UNL     1      16.543   8.082  21.131  0.00  0.00    +0.202 A 
ENDROOT
BRANCH  18  23
ATOM      5  O   UNL     1      22.403   3.523  21.673  0.00  0.00    -0.377 OA
ATOM      8  N   UNL     1      20.734   5.782  21.788  0.00  0.00    -0.311 N 
ATOM     10  N   UNL     1      20.653   8.121  22.134  0.00  0.00    -0.240 NA
ATOM     21  C   UNL     1      21.866   5.645  22.716  0.00  0.00    +0.134 C 
ATOM     22  C   UNL     1      20.846   5.006  20.548  0.00  0.00    +0.134 C 
ATOM     23  C   UNL     1      17.937   8.095  21.473  0.00  0.00    +0.027 A 
ATOM     24  C   UNL     1      20.012   6.979  21.800  0.00  0.00    +0.122 A 
ATOM     27  C   UNL     1      22.185   4.170  22.926  0.00  0.00    +0.178 C 
ATOM     28  C   UNL     1      21.221   3.565  20.874  0.00  0.00    +0.178 C 
ATOM     29  C   UNL     1      18.669   6.913  21.464  0.00  0.00    +0.055 A 
ATOM     31  C   UNL     1      18.561   9.291  21.811  0.00  0.00    +0.031 A 
ATOM     32  C   UNL     1      19.909   9.250  22.131  0.00  0.00    +0.113 A 
ENDBRANCH  18  23
BRANCH  16  11
ATOM      6  N   UNL     1      12.602   8.528  19.122  0.00  0.00    -0.287 NA
ATOM     11  C   UNL     1      13.722   7.572  19.007  0.00  0.00    +0.146 C 
ATOM     12  C   UNL     1      14.211   7.715  17.554  0.00  0.00    +0.030 C 
ATOM     13  C   UNL     1      13.270   8.726  16.915  0.00  0.00    +0.017 C 
ATOM     14  C   UNL     1      12.029   8.655  17.782  0.00  0.00    +0.085 C 
BRANCH   6  15
ATOM     15  C   UNL     1      11.606   8.131  20.109  0.00  0.00    +0.120 C 
BRANCH  15  17
ATOM     17  C   UNL     1      11.431   9.175  21.180  0.00  0.00    -0.033 A 
ATOM     19  C   UNL     1      11.744  10.508  20.912  0.00  0.00    +0.005 A 
ATOM     20  C   UNL     1      10.954   8.811  22.438  0.00  0.00    +0.005 A 
ATOM     25  C   UNL     1      11.582  11.476  21.904  0.00  0.00    +0.012 A 
ATOM     26  C   UNL     1      10.790   9.778  23.429  0.00  0.00    +0.012 A 
ATOM     30  C   UNL     1      11.104  11.111  23.162  0.00  0.00    +0.055 A 
BRANCH  30  33
ATOM      1  F   UNL     1      11.973  13.019  24.314  0.00  0.00    -0.166 F 
ATOM      2  F   UNL     1      10.789  11.606  25.466  0.00  0.00    -0.166 F 
ATOM      3  F   UNL     1       9.823  12.932  24.038  0.00  0.00    -0.166 F 
ATOM     33  C   UNL     1      10.927  12.146  24.220  0.00  0.00    +0.417 C 
ENDBRANCH  30  33
ENDBRANCH  15  17
ENDBRANCH   6  15
ENDBRANCH  16  11
TORSDOF 5
ENDMDL
MODEL 3
REMARK VINA RESULT:      -7.9     29.286     33.529
REMARK  Name = 45783300
REMARK  5 active torsions:
REMARK  status: ('A' for Active; 'I' for Inactive)
REMARK    1  A    between atoms: N_6  and  C_15
REMARK    2  A    between atoms: C_11  and  C_16
REMARK    3  A    between atoms: C_15  and  C_17
REMARK    4  A    between atoms: C_18  and  C_23
REMARK    5  A    between atoms: C_30  and  C_33
REMARK                            x       y       z     vdW  Elec       q    Type
REMARK                         _______ _______ _______ _____ _____    ______ ____
ROOT
ATOM      4  O   UNL     1       9.907   5.262   4.695  0.00  0.00    -0.336 OA
ATOM      7  N   UNL     1      10.315   6.315   2.761  0.00  0.00    -0.190 NA
ATOM      9  N   UNL     1      10.538   4.325   3.868  0.00  0.00    -0.056 NA
ATOM     16  C   UNL     1       9.814   6.405   3.967  0.00  0.00    +0.245 A 
ATOM     18  C   UNL     1      10.748   5.020   2.747  0.00  0.00    +0.202 A 
ENDROOT
BRANCH  18  23
ATOM      5  O   UNL     1       9.536   3.770  -4.491  0.00  0.00    -0.377 OA
ATOM      8  N   UNL     1      10.678   3.806  -1.923  0.00  0.00    -0.311 N 
ATOM     10  N   UNL     1      12.623   3.347  -0.656  0.00  0.00    -0.240 NA
ATOM     21  C   UNL     1      10.983   2.712  -2.857  0.00  0.00    +0.134 C 
ATOM     22  C   UNL     1      10.221   5.052  -2.549  0.00  0.00    +0.134 C 
ATOM     23  C   UNL     1      11.383   4.452   1.593  0.00  0.00    +0.027 A 
ATOM     24  C   UNL     1      11.369   3.847  -0.707  0.00  0.00    +0.122 A 
ATOM     27  C   UNL     1       9.828   2.535  -3.837  0.00  0.00    +0.178 C 
ATOM     28  C   UNL     1       9.109   4.751  -3.546  0.00  0.00    +0.178 C 
ATOM     29  C   UNL     1      10.710   4.405   0.377  0.00  0.00    +0.055 A 
ATOM     31  C   UNL     1      12.676   3.947   1.686  0.00  0.00    +0.031 A 
ATOM     32  C   UNL     1      13.246   3.410   0.542  0.00  0.00    +0.113 A 
ENDBRANCH  18  23
BRANCH  16  11
ATOM      6  N   UNL     1      10.053   8.762   4.732  0.00  0.00    -0.287 NA
ATOM     11  C   UNL     1       9.160   7.588   4.648  0.00  0.00    +0.146 C 
ATOM     12  C   UNL     1       7.917   8.095   3.894  0.00  0.00    +0.030 C 
ATOM     13  C   UNL     1       8.177   9.576   3.649  0.00  0.00    +0.017 C 
ATOM     14  C   UNL     1       9.188   9.941   4.717  0.00  0.00    +0.085 C 
BRANCH   6  15
ATOM     15  C   UNL     1      10.927   8.737   5.897  0.00  0.00    +0.120 C 
BRANCH  15  17
ATOM     17  C   UNL     1      10.491   7.705   6.903  0.00  0.00    -0.033 A 
ATOM     19  C   UNL     1      11.333   6.636   7.215  0.00  0.00    +0.005 A 
ATOM     20  C   UNL     1       9.248   7.817   7.525  0.00  0.00    +0.005 A 
ATOM     25  C   UNL     1      10.929   5.680   8.147  0.00  0.00    +0.012 A 
ATOM     26  C   UNL     1       8.846   6.862   8.457  0.00  0.00    +0.012 A 
ATOM     30  C   UNL     1       9.686   5.793   8.769  0.00  0.00    +0.055 A 
BRANCH  30  33
ATOM      1  F   UNL     1      10.178   4.549  10.753  0.00  0.00    -0.166 F 
ATOM      2  F   UNL     1       9.021   3.553   9.205  0.00  0.00    -0.166 F 
ATOM      3  F   UNL     1       8.106   5.102  10.426  0.00  0.00    -0.166 F 
ATOM     33  C   UNL     1       9.258   4.773   9.768  0.00  0.00    +0.417 C 
ENDBRANCH  30  33
ENDBRANCH  15  17
ENDBRANCH   6  15
ENDBRANCH  16  11
TORSDOF 5
ENDMDL
MODEL 4
REMARK VINA RESULT:      -7.9     19.834     21.376
REMARK  Name = 45783300
REMARK  5 active torsions:
REMARK  status: ('A' for Active; 'I' for Inactive)
REMARK    1  A    between atoms: N_6  and  C_15
REMARK    2  A    between atoms: C_11  and  C_16
REMARK    3  A    between atoms: C_15  and  C_17
REMARK    4  A    between atoms: C_18  and  C_23
REMARK    5  A    between atoms: C_30  and  C_33
REMARK                            x       y       z     vdW  Elec       q    Type
REMARK                         _______ _______ _______ _____ _____    ______ ____
ROOT
ATOM      4  O   UNL     1      -6.016  -8.059   9.106  0.00  0.00    -0.336 OA
ATOM      7  N   UNL     1      -5.397 -10.189   9.417  0.00  0.00    -0.190 NA
ATOM      9  N   UNL     1      -5.112  -8.050  10.176  0.00  0.00    -0.056 NA
ATOM     16  C   UNL     1      -6.127  -9.357   8.719  0.00  0.00    +0.245 A 
ATOM     18  C   UNL     1      -4.793  -9.342  10.299  0.00  0.00    +0.202 A 
ENDROOT
BRANCH  18  23
ATOM      5  O   UNL     1      -4.698 -12.327  17.117  0.00  0.00    -0.377 OA
ATOM      8  N   UNL     1      -3.914 -11.203  14.664  0.00  0.00    -0.311 N 
ATOM     10  N   UNL     1      -2.087 -10.751  13.230  0.00  0.00    -0.240 NA
ATOM     21  C   UNL     1      -3.066 -11.055  15.855  0.00  0.00    +0.134 C 
ATOM     22  C   UNL     1      -4.842 -12.339  14.696  0.00  0.00    +0.134 C 
ATOM     23  C   UNL     1      -3.875  -9.818  11.293  0.00  0.00    +0.027 A 
ATOM     24  C   UNL     1      -3.422 -10.737  13.440  0.00  0.00    +0.122 A 
ATOM     27  C   UNL     1      -3.924 -11.128  17.112  0.00  0.00    +0.178 C 
ATOM     28  C   UNL     1      -5.605 -12.346  16.015  0.00  0.00    +0.178 C 
ATOM     29  C   UNL     1      -4.350 -10.286  12.514  0.00  0.00    +0.055 A 
ATOM     31  C   UNL     1      -2.508  -9.817  11.039  0.00  0.00    +0.031 A 
ATOM     32  C   UNL     1      -1.664 -10.290  12.032  0.00  0.00    +0.113 A 
ENDBRANCH  18  23
BRANCH  16  11
ATOM      6  N   UNL     1      -8.052  -8.564   7.354  0.00  0.00    -0.287 NA
ATOM     11  C   UNL     1      -7.059  -9.637   7.559  0.00  0.00    +0.146 C 
ATOM     12  C   UNL     1      -6.317  -9.746   6.214  0.00  0.00    +0.030 C 
ATOM     13  C   UNL     1      -7.001  -8.739   5.300  0.00  0.00    +0.017 C 
ATOM     14  C   UNL     1      -8.369  -8.562   5.926  0.00  0.00    +0.085 C 
BRANCH   6  15
ATOM     15  C   UNL     1      -9.242  -8.716   8.180  0.00  0.00    +0.120 C 
BRANCH  15  17
ATOM     17  C   UNL     1      -9.861  -7.388   8.523  0.00  0.00    -0.033 A 
ATOM     19  C   UNL     1      -9.131  -6.212   8.347  0.00  0.00    +0.005 A 
ATOM     20  C   UNL     1     -11.166  -7.331   9.013  0.00  0.00    +0.005 A 
ATOM     25  C   UNL     1      -9.705  -4.980   8.664  0.00  0.00    +0.012 A 
ATOM     26  C   UNL     1     -11.739  -6.100   9.329  0.00  0.00    +0.012 A 
ATOM     30  C   UNL     1     -11.009  -4.925   9.154  0.00  0.00    +0.055 A 
BRANCH  30  33
ATOM      1  F   UNL     1     -12.964  -3.547   9.235  0.00  0.00    -0.166 F 
ATOM      2  F   UNL     1     -11.072  -2.577   8.785  0.00  0.00    -0.166 F 
ATOM      3  F   UNL     1     -11.494  -3.262  10.805  0.00  0.00    -0.166 F 
ATOM     33  C   UNL     1     -11.623  -3.607   9.489  0.00  0.00    +0.417 C 
ENDBRANCH  30  33
ENDBRANCH  15  17
ENDBRANCH   6  15
ENDBRANCH  16  11
TORSDOF 5
ENDMDL
MODEL 5
REMARK VINA RESULT:      -7.7     30.758     35.765
REMARK  Name = 45783300
REMARK  5 active torsions:
REMARK  status: ('A' for Active; 'I' for Inactive)
REMARK    1  A    between atoms: N_6  and  C_15
REMARK    2  A    between atoms: C_11  and  C_16
REMARK    3  A    between atoms: C_15  and  C_17
REMARK    4  A    between atoms: C_18  and  C_23
REMARK    5  A    between atoms: C_30  and  C_33
REMARK                            x       y       z     vdW  Elec       q    Type
REMARK                         _______ _______ _______ _____ _____    ______ ____
ROOT
ATOM      4  O   UNL     1      12.985   6.582   6.768  0.00  0.00    -0.336 OA
ATOM      7  N   UNL     1      12.973   8.783   6.353  0.00  0.00    -0.190 NA
ATOM      9  N   UNL     1      14.328   6.972   6.700  0.00  0.00    -0.056 NA
ATOM     16  C   UNL     1      12.255   7.707   6.552  0.00  0.00    +0.245 A 
ATOM     18  C   UNL     1      14.239   8.282   6.452  0.00  0.00    +0.202 A 
ENDROOT
BRANCH  18  23
ATOM      5  O   UNL     1      21.493   7.876   4.833  0.00  0.00    -0.377 OA
ATOM      8  N   UNL     1      18.953   8.823   5.574  0.00  0.00    -0.311 N 
ATOM     10  N   UNL     1      17.644  10.750   5.990  0.00  0.00    -0.240 NA
ATOM     21  C   UNL     1      20.167   9.498   6.054  0.00  0.00    +0.134 C 
ATOM     22  C   UNL     1      19.121   8.032   4.350  0.00  0.00    +0.134 C 
ATOM     23  C   UNL     1      15.394   9.119   6.297  0.00  0.00    +0.027 A 
ATOM     24  C   UNL     1      17.715   9.406   5.865  0.00  0.00    +0.122 A 
ATOM     27  C   UNL     1      21.323   8.506   6.103  0.00  0.00    +0.178 C 
ATOM     28  C   UNL     1      20.333   7.119   4.488  0.00  0.00    +0.178 C 
ATOM     29  C   UNL     1      16.631   8.554   6.007  0.00  0.00    +0.055 A 
ATOM     31  C   UNL     1      15.280  10.498   6.434  0.00  0.00    +0.031 A 
ATOM     32  C   UNL     1      16.425  11.262   6.272  0.00  0.00    +0.113 A 
ENDBRANCH  18  23
BRANCH  16  11
ATOM      6  N   UNL     1      10.285   6.386   5.794  0.00  0.00    -0.287 NA
ATOM     11  C   UNL     1      10.749   7.549   6.577  0.00  0.00    +0.146 C 
ATOM     12  C   UNL     1      10.201   7.309   7.997  0.00  0.00    +0.030 C 
ATOM     13  C   UNL     1       9.394   6.021   7.898  0.00  0.00    +0.017 C 
ATOM     14  C   UNL     1       9.048   5.929   6.425  0.00  0.00    +0.085 C 
BRANCH   6  15
ATOM     15  C   UNL     1      10.102   6.683   4.379  0.00  0.00    +0.120 C 
BRANCH  15  17
ATOM     17  C   UNL     1      11.035   5.880   3.512  0.00  0.00    -0.033 A 
ATOM     19  C   UNL     1      10.676   4.594   3.106  0.00  0.00    +0.005 A 
ATOM     20  C   UNL     1      12.257   6.421   3.114  0.00  0.00    +0.005 A 
ATOM     25  C   UNL     1      11.540   3.850   2.302  0.00  0.00    +0.012 A 
ATOM     26  C   UNL     1      13.120   5.677   2.310  0.00  0.00    +0.012 A 
ATOM     30  C   UNL     1      12.762   4.392   1.904  0.00  0.00    +0.055 A 
BRANCH  30  33
ATOM      1  F   UNL     1      14.807   3.169   1.689  0.00  0.00    -0.166 F 
ATOM      2  F   UNL     1      14.129   4.300  -0.040  0.00  0.00    -0.166 F 
ATOM      3  F   UNL     1      13.114   2.464   0.531  0.00  0.00    -0.166 F 
ATOM     33  C   UNL     1      13.683   3.597   1.041  0.00  0.00    +0.417 C 
ENDBRANCH  30  33
ENDBRANCH  15  17
ENDBRANCH   6  15
ENDBRANCH  16  11
TORSDOF 5
ENDMDL
MODEL 6
REMARK VINA RESULT:      -7.7     29.957     34.377
REMARK  Name = 45783300
REMARK  5 active torsions:
REMARK  status: ('A' for Active; 'I' for Inactive)
REMARK    1  A    between atoms: N_6  and  C_15
REMARK    2  A    between atoms: C_11  and  C_16
REMARK    3  A    between atoms: C_15  and  C_17
REMARK    4  A    between atoms: C_18  and  C_23
REMARK    5  A    between atoms: C_30  and  C_33
REMARK                            x       y       z     vdW  Elec       q    Type
REMARK                         _______ _______ _______ _____ _____    ______ ____
ROOT
ATOM      4  O   UNL     1      15.453   6.623   1.423  0.00  0.00    -0.336 OA
ATOM      7  N   UNL     1      13.987   5.825   2.916  0.00  0.00    -0.190 NA
ATOM      9  N   UNL     1      15.348   7.597   2.424  0.00  0.00    -0.056 NA
ATOM     16  C   UNL     1      14.620   5.615   1.789  0.00  0.00    +0.245 A 
ATOM     18  C   UNL     1      14.466   7.053   3.267  0.00  0.00    +0.202 A 
ENDROOT
BRANCH  18  23
ATOM      5  O   UNL     1       9.037   6.849   8.357  0.00  0.00    -0.377 OA
ATOM      8  N   UNL     1      11.303   7.597   6.872  0.00  0.00    -0.311 N 
ATOM     10  N   UNL     1      13.213   8.993   6.812  0.00  0.00    -0.240 NA
ATOM     21  C   UNL     1      10.543   8.604   7.625  0.00  0.00    +0.134 C 
ATOM     22  C   UNL     1      11.148   6.216   7.342  0.00  0.00    +0.134 C 
ATOM     23  C   UNL     1      14.040   7.712   4.469  0.00  0.00    +0.027 A 
ATOM     24  C   UNL     1      12.493   7.994   6.254  0.00  0.00    +0.122 A 
ATOM     27  C   UNL     1       9.095   8.151   7.774  0.00  0.00    +0.178 C 
ATOM     28  C   UNL     1       9.668   5.891   7.508  0.00  0.00    +0.178 C 
ATOM     29  C   UNL     1      12.860   7.327   5.095  0.00  0.00    +0.055 A 
ATOM     31  C   UNL     1      14.807   8.736   5.012  0.00  0.00    +0.031 A 
ATOM     32  C   UNL     1      14.353   9.339   6.175  0.00  0.00    +0.113 A 
ENDBRANCH  18  23
BRANCH  16  11
ATOM      6  N   UNL     1      13.266   4.334   0.139  0.00  0.00    -0.287 NA
ATOM     11  C   UNL     1      14.553   4.422   0.859  0.00  0.00    +0.146 C 
ATOM     12  C   UNL     1      15.620   4.473  -0.250  0.00  0.00    +0.030 C 
ATOM     13  C   UNL     1      14.844   4.348  -1.554  0.00  0.00    +0.017 C 
ATOM     14  C   UNL     1      13.551   3.676  -1.136  0.00  0.00    +0.085 C 
BRANCH   6  15
ATOM     15  C   UNL     1      12.231   3.641   0.894  0.00  0.00    +0.120 C 
BRANCH  15  17
ATOM     17  C   UNL     1      11.350   4.601   1.648  0.00  0.00    -0.033 A 
ATOM     19  C   UNL     1      10.895   5.765   1.027  0.00  0.00    +0.005 A 
ATOM     20  C   UNL     1      10.985   4.326   2.966  0.00  0.00    +0.005 A 
ATOM     25  C   UNL     1      10.078   6.655   1.725  0.00  0.00    +0.012 A 
ATOM     26  C   UNL     1      10.168   5.215   3.663  0.00  0.00    +0.012 A 
ATOM     30  C   UNL     1       9.714   6.379   3.043  0.00  0.00    +0.055 A 
BRANCH  30  33
ATOM      1  F   UNL     1       8.077   6.731   4.752  0.00  0.00    -0.166 F 
ATOM      2  F   UNL     1       7.953   7.975   2.973  0.00  0.00    -0.166 F 
ATOM      3  F   UNL     1       9.525   8.315   4.436  0.00  0.00    -0.166 F 
ATOM     33  C   UNL     1       8.837   7.328   3.787  0.00  0.00    +0.417 C 
ENDBRANCH  30  33
ENDBRANCH  15  17
ENDBRANCH   6  15
ENDBRANCH  16  11
TORSDOF 5
ENDMDL
MODEL 7
REMARK VINA RESULT:      -7.6     30.543     34.922
REMARK  Name = 45783300
REMARK  5 active torsions:
REMARK  status: ('A' for Active; 'I' for Inactive)
REMARK    1  A    between atoms: N_6  and  C_15
REMARK    2  A    between atoms: C_11  and  C_16
REMARK    3  A    between atoms: C_15  and  C_17
REMARK    4  A    between atoms: C_18  and  C_23
REMARK    5  A    between atoms: C_30  and  C_33
REMARK                            x       y       z     vdW  Elec       q    Type
REMARK                         _______ _______ _______ _____ _____    ______ ____
ROOT
ATOM      4  O   UNL     1      11.028   6.997   3.860  0.00  0.00    -0.336 OA
ATOM      7  N   UNL     1      10.897   4.777   3.597  0.00  0.00    -0.190 NA
ATOM      9  N   UNL     1      11.599   6.719   2.612  0.00  0.00    -0.056 NA
ATOM     16  C   UNL     1      10.642   5.800   4.373  0.00  0.00    +0.245 A 
ATOM     18  C   UNL     1      11.484   5.390   2.529  0.00  0.00    +0.202 A 
ENDROOT
BRANCH  18  23
ATOM      5  O   UNL     1       9.424   3.480  -4.365  0.00  0.00    -0.377 OA
ATOM      8  N   UNL     1      10.829   3.690  -1.940  0.00  0.00    -0.311 N 
ATOM     10  N   UNL     1      12.855   3.198  -0.819  0.00  0.00    -0.240 NA
ATOM     21  C   UNL     1      10.947   2.480  -2.765  0.00  0.00    +0.134 C 
ATOM     22  C   UNL     1      10.408   4.898  -2.659  0.00  0.00    +0.134 C 
ATOM     23  C   UNL     1      11.949   4.645   1.394  0.00  0.00    +0.027 A 
ATOM     24  C   UNL     1      11.645   3.800  -0.809  0.00  0.00    +0.122 A 
ATOM     27  C   UNL     1       9.686   2.302  -3.602  0.00  0.00    +0.178 C 
ATOM     28  C   UNL     1       9.177   4.592  -3.504  0.00  0.00    +0.178 C 
ATOM     29  C   UNL     1      11.150   4.529   0.261  0.00  0.00    +0.055 A 
ATOM     31  C   UNL     1      13.200   4.040   1.421  0.00  0.00    +0.031 A 
ATOM     32  C   UNL     1      13.603   3.334   0.298  0.00  0.00    +0.113 A 
ENDBRANCH  18  23
BRANCH  16  11
ATOM      6  N   UNL     1      10.501   6.915   6.594  0.00  0.00    -0.287 NA
ATOM     11  C   UNL     1       9.984   5.830   5.736  0.00  0.00    +0.146 C 
ATOM     12  C   UNL     1       8.467   6.081   5.659  0.00  0.00    +0.030 C 
ATOM     13  C   UNL     1       8.218   7.290   6.550  0.00  0.00    +0.017 C 
ATOM     14  C   UNL     1       9.407   7.291   7.489  0.00  0.00    +0.085 C 
BRANCH   6  15
ATOM     15  C   UNL     1      11.706   6.546   7.324  0.00  0.00    +0.120 C 
BRANCH  15  17
ATOM     17  C   UNL     1      12.872   7.430   6.967  0.00  0.00    -0.033 A 
ATOM     19  C   UNL     1      14.114   6.864   6.679  0.00  0.00    +0.005 A 
ATOM     20  C   UNL     1      12.710   8.814   6.923  0.00  0.00    +0.005 A 
ATOM     25  C   UNL     1      15.194   7.682   6.348  0.00  0.00    +0.012 A 
ATOM     26  C   UNL     1      13.790   9.633   6.591  0.00  0.00    +0.012 A 
ATOM     30  C   UNL     1      15.031   9.067   6.303  0.00  0.00    +0.055 A 
BRANCH  30  33
ATOM      1  F   UNL     1      16.280  10.203   4.608  0.00  0.00    -0.166 F 
ATOM      2  F   UNL     1      17.386   9.396   6.297  0.00  0.00    -0.166 F 
ATOM      3  F   UNL     1      16.149  11.167   6.547  0.00  0.00    -0.166 F 
ATOM     33  C   UNL     1      16.185   9.941   5.945  0.00  0.00    +0.417 C 
ENDBRANCH  30  33
ENDBRANCH  15  17
ENDBRANCH   6  15
ENDBRANCH  16  11
TORSDOF 5
ENDMDL
MODEL 8
REMARK VINA RESULT:      -7.5     18.886     21.239
REMARK  Name = 45783300
REMARK  5 active torsions:
REMARK  status: ('A' for Active; 'I' for Inactive)
REMARK    1  A    between atoms: N_6  and  C_15
REMARK    2  A    between atoms: C_11  and  C_16
REMARK    3  A    between atoms: C_15  and  C_17
REMARK    4  A    between atoms: C_18  and  C_23
REMARK    5  A    between atoms: C_30  and  C_33
REMARK                            x       y       z     vdW  Elec       q    Type
REMARK                         _______ _______ _______ _____ _____    ______ ____
ROOT
ATOM      4  O   UNL     1      -4.737 -12.033  16.668  0.00  0.00    -0.336 OA
ATOM      7  N   UNL     1      -5.296 -10.269  15.405  0.00  0.00    -0.190 NA
ATOM      9  N   UNL     1      -3.922 -12.094  15.531  0.00  0.00    -0.056 NA
ATOM     16  C   UNL     1      -5.516 -10.930  16.514  0.00  0.00    +0.245 A 
ATOM     18  C   UNL     1      -4.310 -11.021  14.836  0.00  0.00    +0.202 A 
ENDROOT
BRANCH  18  23
ATOM      5  O   UNL     1      -6.286  -8.809   8.008  0.00  0.00    -0.377 OA
ATOM      8  N   UNL     1      -4.793  -9.670  10.228  0.00  0.00    -0.311 N 
ATOM     10  N   UNL     1      -2.617  -9.994  11.098  0.00  0.00    -0.240 NA
ATOM     21  C   UNL     1      -4.333  -9.964   8.864  0.00  0.00    +0.134 C 
ATOM     22  C   UNL     1      -5.706  -8.527  10.347  0.00  0.00    +0.134 C 
ATOM     23  C   UNL     1      -3.736 -10.674  13.567  0.00  0.00    +0.027 A 
ATOM     24  C   UNL     1      -3.954 -10.007  11.295  0.00  0.00    +0.122 A 
ATOM     27  C   UNL     1      -5.527 -10.014   7.917  0.00  0.00    +0.178 C 
ATOM     28  C   UNL     1      -6.826  -8.652   9.321  0.00  0.00    +0.178 C 
ATOM     29  C   UNL     1      -4.558 -10.335  12.498  0.00  0.00    +0.055 A 
ATOM     31  C   UNL     1      -2.355 -10.672  13.404  0.00  0.00    +0.031 A 
ATOM     32  C   UNL     1      -1.850 -10.328  12.160  0.00  0.00    +0.113 A 
ENDBRANCH  18  23
BRANCH  16  11
ATOM      6  N   UNL     1      -7.358 -11.795  17.948  0.00  0.00    -0.287 NA
ATOM     11  C   UNL     1      -6.499 -10.637  17.627  0.00  0.00    +0.146 C 
ATOM     12  C   UNL     1      -5.804 -10.285  18.956  0.00  0.00    +0.030 C 
ATOM     13  C   UNL     1      -6.379 -11.259  19.975  0.00  0.00    +0.017 C 
ATOM     14  C   UNL     1      -7.703 -11.674  19.364  0.00  0.00    +0.085 C 
BRANCH   6  15
ATOM     15  C   UNL     1      -8.540 -11.885  17.101  0.00  0.00    +0.120 C 
BRANCH  15  17
ATOM     17  C   UNL     1      -9.091 -10.526  16.760  0.00  0.00    -0.033 A 
ATOM     19  C   UNL     1      -9.626  -9.718  17.763  0.00  0.00    +0.005 A 
ATOM     20  C   UNL     1      -9.064 -10.074  15.441  0.00  0.00    +0.005 A 
ATOM     25  C   UNL     1     -10.136  -8.459  17.448  0.00  0.00    +0.012 A 
ATOM     26  C   UNL     1      -9.574  -8.814  15.126  0.00  0.00    +0.012 A 
ATOM     30  C   UNL     1     -10.109  -8.007  16.129  0.00  0.00    +0.055 A 
BRANCH  30  33
ATOM      1  F   UNL     1     -11.208  -6.010  16.858  0.00  0.00    -0.166 F 
ATOM      2  F   UNL     1     -11.628  -6.707  14.842  0.00  0.00    -0.166 F 
ATOM      3  F   UNL     1      -9.709  -5.797  15.305  0.00  0.00    -0.166 F 
ATOM     33  C   UNL     1     -10.650  -6.658  15.793  0.00  0.00    +0.417 C 
ENDBRANCH  30  33
ENDBRANCH  15  17
ENDBRANCH   6  15
ENDBRANCH  16  11
TORSDOF 5
ENDMDL
MODEL 9
REMARK VINA RESULT:      -7.4     21.282     22.510
REMARK  Name = 45783300
REMARK  5 active torsions:
REMARK  status: ('A' for Active; 'I' for Inactive)
REMARK    1  A    between atoms: N_6  and  C_15
REMARK    2  A    between atoms: C_11  and  C_16
REMARK    3  A    between atoms: C_15  and  C_17
REMARK    4  A    between atoms: C_18  and  C_23
REMARK    5  A    between atoms: C_30  and  C_33
REMARK                            x       y       z     vdW  Elec       q    Type
REMARK                         _______ _______ _______ _____ _____    ______ ____
ROOT
ATOM      4  O   UNL     1      -4.581 -15.388  16.294  0.00  0.00    -0.336 OA
ATOM      7  N   UNL     1      -4.369 -13.598  14.964  0.00  0.00    -0.190 NA
ATOM      9  N   UNL     1      -5.293 -14.355  16.916  0.00  0.00    -0.056 NA
ATOM     16  C   UNL     1      -4.069 -14.859  15.152  0.00  0.00    +0.245 A 
ATOM     18  C   UNL     1      -5.121 -13.334  16.072  0.00  0.00    +0.202 A 
ENDROOT
BRANCH  18  23
ATOM      5  O   UNL     1     -10.736 -10.039  19.682  0.00  0.00    -0.377 OA
ATOM      8  N   UNL     1      -8.505 -10.511  18.038  0.00  0.00    -0.311 N 
ATOM     10  N   UNL     1      -6.780  -9.505  16.768  0.00  0.00    -0.240 NA
ATOM     21  C   UNL     1      -9.420  -9.398  17.748  0.00  0.00    +0.134 C 
ATOM     22  C   UNL     1      -8.514 -10.981  19.428  0.00  0.00    +0.134 C 
ATOM     23  C   UNL     1      -5.684 -12.035  16.307  0.00  0.00    +0.027 A 
ATOM     24  C   UNL     1      -7.343 -10.627  17.269  0.00  0.00    +0.122 A 
ATOM     27  C   UNL     1     -10.808  -9.716  18.293  0.00  0.00    +0.178 C 
ATOM     28  C   UNL     1      -9.950 -11.213  19.884  0.00  0.00    +0.178 C 
ATOM     29  C   UNL     1      -6.839 -11.903  17.071  0.00  0.00    +0.055 A 
ATOM     31  C   UNL     1      -5.077 -10.904  15.774  0.00  0.00    +0.031 A 
ATOM     32  C   UNL     1      -5.660  -9.673  16.032  0.00  0.00    +0.113 A 
ENDBRANCH  18  23
BRANCH  16  11
ATOM      6  N   UNL     1      -2.528 -15.078  13.209  0.00  0.00    -0.287 NA
ATOM     11  C   UNL     1      -3.247 -15.789  14.286  0.00  0.00    +0.146 C 
ATOM     12  C   UNL     1      -2.144 -16.518  15.077  0.00  0.00    +0.030 C 
ATOM     13  C   UNL     1      -0.851 -16.206  14.336  0.00  0.00    +0.017 C 
ATOM     14  C   UNL     1      -1.318 -15.853  12.938  0.00  0.00    +0.085 C 
BRANCH   6  15
ATOM     15  C   UNL     1      -3.335 -14.883  12.012  0.00  0.00    +0.120 C 
BRANCH  15  17
ATOM     17  C   UNL     1      -3.313 -13.451  11.548  0.00  0.00    -0.033 A 
ATOM     19  C   UNL     1      -4.024 -13.076  10.407  0.00  0.00    +0.005 A 
ATOM     20  C   UNL     1      -2.584 -12.498  12.258  0.00  0.00    +0.005 A 
ATOM     25  C   UNL     1      -4.004 -11.750   9.977  0.00  0.00    +0.012 A 
ATOM     26  C   UNL     1      -2.565 -11.171  11.828  0.00  0.00    +0.012 A 
ATOM     30  C   UNL     1      -3.275 -10.797  10.688  0.00  0.00    +0.055 A 
BRANCH  30  33
ATOM      1  F   UNL     1      -3.604  -9.221   8.918  0.00  0.00    -0.166 F 
ATOM      2  F   UNL     1      -2.028  -8.800  10.355  0.00  0.00    -0.166 F 
ATOM      3  F   UNL     1      -4.115  -8.569  10.922  0.00  0.00    -0.166 F 
ATOM     33  C   UNL     1      -3.258  -9.378  10.230  0.00  0.00    +0.417 C 
ENDBRANCH  30  33
ENDBRANCH  15  17
ENDBRANCH   6  15
ENDBRANCH  16  11
TORSDOF 5
ENDMDL
MODEL 10
REMARK VINA RESULT:      -7.3     20.443     21.601
REMARK  Name = 45783300
REMARK  5 active torsions:
REMARK  status: ('A' for Active; 'I' for Inactive)
REMARK    1  A    between atoms: N_6  and  C_15
REMARK    2  A    between atoms: C_11  and  C_16
REMARK    3  A    between atoms: C_15  and  C_17
REMARK    4  A    between atoms: C_18  and  C_23
REMARK    5  A    between atoms: C_30  and  C_33
REMARK                            x       y       z     vdW  Elec       q    Type
REMARK                         _______ _______ _______ _____ _____    ______ ____
ROOT
ATOM      4  O   UNL     1      -8.510 -10.067  10.425  0.00  0.00    -0.336 OA
ATOM      7  N   UNL     1      -6.987  -9.157  11.790  0.00  0.00    -0.190 NA
ATOM      9  N   UNL     1      -8.979 -10.280  11.727  0.00  0.00    -0.056 NA
ATOM     16  C   UNL     1      -7.333  -9.401  10.552  0.00  0.00    +0.245 A 
ATOM     18  C   UNL     1      -8.026  -9.715  12.475  0.00  0.00    +0.202 A 
ENDROOT
BRANCH  18  23
ATOM      5  O   UNL     1      -4.001 -11.606  18.445  0.00  0.00    -0.377 OA
ATOM      8  N   UNL     1      -6.082 -10.721  16.776  0.00  0.00    -0.311 N 
ATOM     10  N   UNL     1      -8.189  -9.647  16.702  0.00  0.00    -0.240 NA
ATOM     21  C   UNL     1      -6.380 -11.301  18.093  0.00  0.00    +0.134 C 
ATOM     22  C   UNL     1      -4.729 -10.174  16.626  0.00  0.00    +0.134 C 
ATOM     23  C   UNL     1      -8.082  -9.693  13.909  0.00  0.00    +0.027 A 
ATOM     24  C   UNL     1      -7.140 -10.180  16.038  0.00  0.00    +0.122 A 
ATOM     27  C   UNL     1      -5.268 -12.261  18.498  0.00  0.00    +0.178 C 
ATOM     28  C   UNL     1      -3.704 -11.193  17.110  0.00  0.00    +0.178 C 
ATOM     29  C   UNL     1      -7.038 -10.227  14.656  0.00  0.00    +0.055 A 
ATOM     31  C   UNL     1      -9.180  -9.137  14.556  0.00  0.00    +0.031 A 
ATOM     32  C   UNL     1      -9.185  -9.139  15.942  0.00  0.00    +0.113 A 
ENDBRANCH  18  23
BRANCH  16  11
ATOM      6  N   UNL     1      -5.350  -9.786   9.098  0.00  0.00    -0.287 NA
ATOM     11  C   UNL     1      -6.617  -9.045   9.267  0.00  0.00    +0.146 C 
ATOM     12  C   UNL     1      -7.441  -9.388   8.012  0.00  0.00    +0.030 C 
ATOM     13  C   UNL     1      -6.534 -10.277   7.171  0.00  0.00    +0.017 C 
ATOM     14  C   UNL     1      -5.142  -9.926   7.657  0.00  0.00    +0.085 C 
BRANCH   6  15
ATOM     15  C   UNL     1      -4.219  -9.146   9.756  0.00  0.00    +0.120 C 
BRANCH  15  17
ATOM     17  C   UNL     1      -3.592 -10.042  10.791  0.00  0.00    -0.033 A 
ATOM     19  C   UNL     1      -4.288 -11.155  11.263  0.00  0.00    +0.005 A 
ATOM     20  C   UNL     1      -2.316  -9.761  11.277  0.00  0.00    +0.005 A 
ATOM     25  C   UNL     1      -3.708 -11.986  12.222  0.00  0.00    +0.012 A 
ATOM     26  C   UNL     1      -1.735 -10.592  12.235  0.00  0.00    +0.012 A 
ATOM     30  C   UNL     1      -2.431 -11.704  12.707  0.00  0.00    +0.055 A 
BRANCH  30  33
ATOM      1  F   UNL     1      -2.691 -13.465  14.306  0.00  0.00    -0.166 F 
ATOM      2  F   UNL     1      -1.253 -11.900  14.763  0.00  0.00    -0.166 F 
ATOM      3  F   UNL     1      -0.807 -13.380  13.234  0.00  0.00    -0.166 F 
ATOM     33  C   UNL     1      -1.810 -12.595  13.730  0.00  0.00    +0.417 C 
ENDBRANCH  30  33
ENDBRANCH  15  17
ENDBRANCH   6  15
ENDBRANCH  16  11
TORSDOF 5
ENDMDL
