REMARK  Name = 25389540
REMARK  13 active torsions:
REMARK  status: ('A' for Active; 'I' for Inactive)
REMARK    1  A    between atoms: O_1  and  C_17
REMARK    2  A    between atoms: O_1  and  C_22
REMARK    3  A    between atoms: O_3  and  C_26
REMARK    4  A    between atoms: O_3  and  C_31
REMARK    5  A    between atoms: O_4  and  C_28
REMARK    6  A    between atoms: O_4  and  C_32
REMARK    7  A    between atoms: N_6  and  C_20
REMARK    8  A    between atoms: N_8  and  C_25
REMARK    9  A    between atoms: C_10  and  C_16
REMARK   10  A    between atoms: C_11  and  C_17
REMARK   11  A    between atoms: C_19  and  C_21
REMARK   12  A    between atoms: C_25  and  C_29
REMARK   13  A    between atoms: C_25  and  C_30
REMARK                            x       y       z     vdW  Elec       q    Type
REMARK                         _______ _______ _______ _____ _____    ______ ____
ROOT
ATOM      5  N   UNL     1      -3.635  -2.492   0.544  0.00  0.00    -0.296 NA
ATOM      9  C   UNL     1      -2.048  -2.628  -1.517  0.00  0.00    +0.002 C 
ATOM     10  C   UNL     1      -1.316  -3.110  -0.234  0.00  0.00    +0.055 C 
ATOM     11  C   UNL     1      -3.654  -1.204  -0.199  0.00  0.00    +0.095 C 
ATOM     12  C   UNL     1      -2.570  -1.192  -1.297  0.00  0.00    +0.026 C 
ATOM     13  C   UNL     1      -3.282  -3.538  -1.693  0.00  0.00    +0.019 C 
ATOM     14  C   UNL     1      -2.250  -2.811   0.973  0.00  0.00    +0.094 C 
ATOM     15  C   UNL     1      -4.089  -3.557  -0.383  0.00  0.00    +0.085 C 
ENDROOT
BRANCH  10  16
ATOM      6  N   UNL     1       1.041  -3.367   0.672  0.00  0.00    -0.270 N 
ATOM      7  N   UNL     1       2.237  -2.763   0.778  0.00  0.00    -0.171 NA
ATOM     16  C   UNL     1       0.108  -2.628   0.005  0.00  0.00    +0.044 A 
ATOM     18  C   UNL     1       0.737  -1.460  -0.349  0.00  0.00    +0.053 A 
ATOM     19  C   UNL     1       2.046  -1.599   0.152  0.00  0.00    +0.093 A 
ATOM     20  C   UNL     1       0.860  -4.679   1.248  0.00  0.00    +0.172 C 
BRANCH  19  21
ATOM     21  C   UNL     1       3.115  -0.640   0.046  0.00  0.00    +0.006 A 
ATOM     23  C   UNL     1       2.826   0.724  -0.006  0.00  0.00    +0.059 A 
ATOM     24  C   UNL     1       4.439  -1.075  -0.004  0.00  0.00    +0.014 A 
ATOM     26  C   UNL     1       3.861   1.652  -0.109  0.00  0.00    +0.162 A 
ATOM     27  C   UNL     1       5.474  -0.146  -0.108  0.00  0.00    +0.050 A 
ATOM     28  C   UNL     1       5.186   1.217  -0.160  0.00  0.00    +0.162 A 
BRANCH  26   3
ATOM      3  O   UNL     1       3.567   2.982  -0.159  0.00  0.00    -0.491 OA
ATOM     31  C   UNL     1       2.189   3.343  -0.102  0.00  0.00    +0.277 C 
ENDBRANCH  26   3
BRANCH  28   4
ATOM      4  O   UNL     1       6.206   2.115  -0.260  0.00  0.00    -0.491 OA
ATOM     32  C   UNL     1       7.531   1.587  -0.306  0.00  0.00    +0.277 C 
ENDBRANCH  28   4
ENDBRANCH  19  21
ENDBRANCH  10  16
BRANCH  11  17
ATOM     17  C   UNL     1      -3.538   0.006   0.731  0.00  0.00    +0.252 C 
BRANCH  17   1
ATOM      1  O   UNL     1      -3.675   1.180  -0.046  0.00  0.00    -0.449 OA
BRANCH   1  22
ATOM      2  O   UNL     1      -3.417   2.466   1.839  0.00  0.00    -0.226 OA
ATOM      8  N   UNL     1      -3.745   3.430  -0.245  0.00  0.00    -0.279 N 
ATOM     22  C   UNL     1      -3.596   2.375   0.629  0.00  0.00    +0.401 C 
ATOM     33  H   UNL     1      -3.841   3.215  -1.234  0.00  0.00    +0.152 HD
BRANCH   8  25
ATOM     25  C   UNL     1      -3.711   4.817   0.158  0.00  0.00    +0.070 C 
ATOM     29  C   UNL     1      -4.618   5.651  -0.737  0.00  0.00    +0.027 C 
ATOM     30  C   UNL     1      -2.281   5.344   0.139  0.00  0.00    +0.027 C 
ENDBRANCH   8  25
ENDBRANCH   1  22
ENDBRANCH  17   1
ENDBRANCH  11  17
TORSDOF 8
