MODEL 1
REMARK VINA RESULT:      -7.4      0.000      0.000
REMARK  Name = 38027350
REMARK  13 active torsions:
REMARK  status: ('A' for Active; 'I' for Inactive)
REMARK    1  A    between atoms: O_3  and  C_28
REMARK    2  A    between atoms: N_5  and  C_16
REMARK    3  A    between atoms: N_6  and  C_15
REMARK    4  A    between atoms: C_7  and  C_11
REMARK    5  A    between atoms: C_8  and  C_15
REMARK    6  A    between atoms: C_10  and  C_14
REMARK    7  A    between atoms: C_11  and  C_17
REMARK    8  A    between atoms: C_11  and  C_18
REMARK    9  A    between atoms: C_12  and  C_22
REMARK   10  A    between atoms: C_14  and  C_21
REMARK   11  A    between atoms: C_25  and  C_26
REMARK   12  A    between atoms: C_26  and  C_27
REMARK   13  A    between atoms: C_27  and  C_28
REMARK                            x       y       z     vdW  Elec       q    Type
REMARK                         _______ _______ _______ _____ _____    ______ ____
ROOT
ATOM      7  C   UNL     1      -1.027   0.564  24.658  0.00  0.00    +0.000 C 
ATOM      8  C   UNL     1      -0.290  -0.779  24.431  0.00  0.00    +0.032 C 
ATOM      9  C   UNL     1      -2.143   0.394  25.701  0.00  0.00    +0.012 C 
ATOM     10  C   UNL     1      -3.178  -0.665  25.278  0.00  0.00    +0.023 C 
ATOM     12  C   UNL     1      -2.514  -1.935  24.784  0.00  0.00    -0.073 C 
ATOM     13  C   UNL     1      -1.219  -1.970  24.422  0.00  0.00    -0.022 C 
ATOM     22  C   UNL     1      -3.363  -3.176  24.758  0.00  0.00    +0.039 C 
ENDROOT
BRANCH   7  11
ATOM     11  C   UNL     1      -0.067   1.673  25.102  0.00  0.00    -0.013 C 
ATOM     17  C   UNL     1      -0.141   2.857  24.142  0.00  0.00    +0.007 C 
ATOM     18  C   UNL     1      -0.383   2.110  26.528  0.00  0.00    +0.007 C 
ENDBRANCH   7  11
BRANCH  10  14
ATOM     14  C   UNL     1      -4.145  -0.106  24.227  0.00  0.00    +0.103 C 
BRANCH  14  21
ATOM      1  O   UNL     1      -5.821   1.207  25.376  0.00  0.00    -0.276 OA
ATOM      5  N   UNL     1      -4.112   2.285  24.227  0.00  0.00    -0.312 N 
ATOM     21  C   UNL     1      -4.805   1.174  24.687  0.00  0.00    +0.214 C 
ATOM     29  H   UNL     1      -3.252   2.142  23.704  0.00  0.00    +0.149 HD
BRANCH   5  16
ATOM     16  C   UNL     1      -4.517   3.638  24.511  0.00  0.00    +0.073 C 
ATOM     19  C   UNL     1      -3.458   4.645  24.077  0.00  0.00    +0.022 C 
ATOM     20  C   UNL     1      -4.631   3.895  26.009  0.00  0.00    +0.022 C 
ATOM     23  C   UNL     1      -2.445   4.652  25.217  0.00  0.00    +0.002 C 
ATOM     24  C   UNL     1      -3.208   4.210  26.467  0.00  0.00    +0.002 C 
ENDBRANCH   5  16
ENDBRANCH  14  21
ENDBRANCH  10  14
BRANCH   8  15
ATOM     15  C   UNL     1       0.519  -0.753  23.129  0.00  0.00    +0.112 C 
BRANCH  15   6
ATOM      2  O   UNL     1       2.501  -0.150  21.109  0.00  0.00    -0.276 OA
ATOM      6  N   UNL     1       1.733  -0.017  23.300  0.00  0.00    -0.315 N 
ATOM     25  C   UNL     1       2.639   0.231  22.269  0.00  0.00    +0.214 C 
ATOM     30  H   UNL     1       1.917   0.393  24.211  0.00  0.00    +0.149 HD
BRANCH  25  26
ATOM     26  C   UNL     1       3.837   1.035  22.741  0.00  0.00    +0.107 C 
BRANCH  26  27
ATOM     27  C   UNL     1       5.091   0.180  22.890  0.00  0.00    +0.129 C 
BRANCH  27  28
ATOM      4  O   UNL     1       4.243  -1.888  23.852  0.00  0.00    -0.251 OA
ATOM     28  C   UNL     1       4.929  -0.881  23.953  0.00  0.00    +0.305 C 
BRANCH  28   3
ATOM      3  O   UNL     1       5.651  -0.584  25.065  0.00  0.00    -0.481 OA
ATOM     31  H   UNL     1       5.902  -1.390  25.564  0.00  0.00    +0.295 HD
ENDBRANCH  28   3
ENDBRANCH  27  28
ENDBRANCH  26  27
ENDBRANCH  25  26
ENDBRANCH  15   6
ENDBRANCH   8  15
TORSDOF 10
ENDMDL
MODEL 2
REMARK VINA RESULT:      -6.9     14.154     18.095
REMARK  Name = 38027350
REMARK  13 active torsions:
REMARK  status: ('A' for Active; 'I' for Inactive)
REMARK    1  A    between atoms: O_3  and  C_28
REMARK    2  A    between atoms: N_5  and  C_16
REMARK    3  A    between atoms: N_6  and  C_15
REMARK    4  A    between atoms: C_7  and  C_11
REMARK    5  A    between atoms: C_8  and  C_15
REMARK    6  A    between atoms: C_10  and  C_14
REMARK    7  A    between atoms: C_11  and  C_17
REMARK    8  A    between atoms: C_11  and  C_18
REMARK    9  A    between atoms: C_12  and  C_22
REMARK   10  A    between atoms: C_14  and  C_21
REMARK   11  A    between atoms: C_25  and  C_26
REMARK   12  A    between atoms: C_26  and  C_27
REMARK   13  A    between atoms: C_27  and  C_28
REMARK                            x       y       z     vdW  Elec       q    Type
REMARK                         _______ _______ _______ _____ _____    ______ ____
ROOT
ATOM      7  C   UNL     1      13.857   9.380  19.065  0.00  0.00    +0.000 C 
ATOM      8  C   UNL     1      13.820   7.889  18.647  0.00  0.00    +0.032 C 
ATOM      9  C   UNL     1      15.282   9.788  19.473  0.00  0.00    +0.012 C 
ATOM     10  C   UNL     1      15.818   8.940  20.641  0.00  0.00    +0.023 C 
ATOM     12  C   UNL     1      15.573   7.460  20.422  0.00  0.00    -0.073 C 
ATOM     13  C   UNL     1      14.687   7.010  19.517  0.00  0.00    -0.022 C 
ATOM     22  C   UNL     1      16.406   6.509  21.236  0.00  0.00    +0.039 C 
ENDROOT
BRANCH   7  11
ATOM     11  C   UNL     1      13.356  10.298  17.945  0.00  0.00    -0.013 C 
ATOM     17  C   UNL     1      13.586  11.761  18.312  0.00  0.00    +0.007 C 
ATOM     18  C   UNL     1      14.045   9.954  16.628  0.00  0.00    +0.007 C 
ENDBRANCH   7  11
BRANCH  10  14
ATOM     14  C   UNL     1      15.224   9.402  21.978  0.00  0.00    +0.103 C 
BRANCH  14  21
ATOM      1  O   UNL     1      16.790  11.205  22.366  0.00  0.00    -0.276 OA
ATOM      5  N   UNL     1      14.509  11.608  22.562  0.00  0.00    -0.312 N 
ATOM     21  C   UNL     1      15.625  10.820  22.317  0.00  0.00    +0.214 C 
ATOM     29  H   UNL     1      13.586  11.198  22.444  0.00  0.00    +0.149 HD
BRANCH   5  16
ATOM     16  C   UNL     1      14.592  13.003  22.911  0.00  0.00    +0.073 C 
ATOM     19  C   UNL     1      14.063  13.264  24.316  0.00  0.00    +0.022 C 
ATOM     20  C   UNL     1      13.680  13.862  22.043  0.00  0.00    +0.022 C 
ATOM     23  C   UNL     1      12.548  13.341  24.147  0.00  0.00    +0.002 C 
ATOM     24  C   UNL     1      12.303  13.766  22.698  0.00  0.00    +0.002 C 
ENDBRANCH   5  16
ENDBRANCH  14  21
ENDBRANCH  10  14
BRANCH   8  15
ATOM     15  C   UNL     1      12.384   7.351  18.646  0.00  0.00    +0.112 C 
BRANCH  15   6
ATOM      2  O   UNL     1      11.428   5.805  20.897  0.00  0.00    -0.276 OA
ATOM      6  N   UNL     1      11.661   7.832  19.781  0.00  0.00    -0.315 N 
ATOM     25  C   UNL     1      11.235   7.016  20.830  0.00  0.00    +0.214 C 
ATOM     30  H   UNL     1      11.498   8.833  19.854  0.00  0.00    +0.149 HD
BRANCH  25  26
ATOM     26  C   UNL     1      10.491   7.798  21.897  0.00  0.00    +0.107 C 
BRANCH  26  27
ATOM     27  C   UNL     1      11.397   8.765  22.651  0.00  0.00    +0.129 C 
BRANCH  27  28
ATOM      4  O   UNL     1      11.687  10.751  21.274  0.00  0.00    -0.251 OA
ATOM     28  C   UNL     1      11.166  10.199  22.232  0.00  0.00    +0.305 C 
BRANCH  28   3
ATOM      3  O   UNL     1      10.290  10.823  23.062  0.00  0.00    -0.481 OA
ATOM     31  H   UNL     1      10.431  10.571  23.999  0.00  0.00    +0.295 HD
ENDBRANCH  28   3
ENDBRANCH  27  28
ENDBRANCH  26  27
ENDBRANCH  25  26
ENDBRANCH  15   6
ENDBRANCH   8  15
TORSDOF 10
ENDMDL
MODEL 3
REMARK VINA RESULT:      -6.8     14.140     17.023
REMARK  Name = 38027350
REMARK  13 active torsions:
REMARK  status: ('A' for Active; 'I' for Inactive)
REMARK    1  A    between atoms: O_3  and  C_28
REMARK    2  A    between atoms: N_5  and  C_16
REMARK    3  A    between atoms: N_6  and  C_15
REMARK    4  A    between atoms: C_7  and  C_11
REMARK    5  A    between atoms: C_8  and  C_15
REMARK    6  A    between atoms: C_10  and  C_14
REMARK    7  A    between atoms: C_11  and  C_17
REMARK    8  A    between atoms: C_11  and  C_18
REMARK    9  A    between atoms: C_12  and  C_22
REMARK   10  A    between atoms: C_14  and  C_21
REMARK   11  A    between atoms: C_25  and  C_26
REMARK   12  A    between atoms: C_26  and  C_27
REMARK   13  A    between atoms: C_27  and  C_28
REMARK                            x       y       z     vdW  Elec       q    Type
REMARK                         _______ _______ _______ _____ _____    ______ ____
ROOT
ATOM      7  C   UNL     1      -6.364 -10.406  15.782  0.00  0.00    +0.000 C 
ATOM      8  C   UNL     1      -6.951 -10.533  17.211  0.00  0.00    +0.032 C 
ATOM      9  C   UNL     1      -5.392 -11.561  15.498  0.00  0.00    +0.012 C 
ATOM     10  C   UNL     1      -4.226 -11.602  16.503  0.00  0.00    +0.023 C 
ATOM     12  C   UNL     1      -4.709 -11.462  17.932  0.00  0.00    -0.073 C 
ATOM     13  C   UNL     1      -5.935 -10.994  18.228  0.00  0.00    -0.022 C 
ATOM     22  C   UNL     1      -3.766 -11.913  19.013  0.00  0.00    +0.039 C 
ENDROOT
BRANCH   7  11
ATOM     11  C   UNL     1      -7.464 -10.378  14.716  0.00  0.00    -0.013 C 
ATOM     17  C   UNL     1      -6.852 -10.448  13.320  0.00  0.00    +0.007 C 
ATOM     18  C   UNL     1      -8.446 -11.524  14.935  0.00  0.00    +0.007 C 
ENDBRANCH   7  11
BRANCH  10  14
ATOM     14  C   UNL     1      -3.173 -10.538  16.172  0.00  0.00    +0.103 C 
BRANCH  14  21
ATOM      1  O   UNL     1      -1.072 -11.450  15.392  0.00  0.00    -0.276 OA
ATOM      5  N   UNL     1      -2.722 -10.896  13.851  0.00  0.00    -0.312 N 
ATOM     21  C   UNL     1      -2.190 -11.016  15.127  0.00  0.00    +0.214 C 
ATOM     29  H   UNL     1      -3.679 -10.570  13.750  0.00  0.00    +0.149 HD
BRANCH   5  16
ATOM     16  C   UNL     1      -2.004 -11.275  12.660  0.00  0.00    +0.073 C 
ATOM     19  C   UNL     1      -1.709 -10.071  11.774  0.00  0.00    +0.022 C 
ATOM     20  C   UNL     1      -2.842 -12.166  11.751  0.00  0.00    +0.022 C 
ATOM     23  C   UNL     1      -2.999  -9.847  10.990  0.00  0.00    +0.002 C 
ATOM     24  C   UNL     1      -3.707 -11.202  10.939  0.00  0.00    +0.002 C 
ENDBRANCH   5  16
ENDBRANCH  14  21
ENDBRANCH  10  14
BRANCH   8  15
ATOM     15  C   UNL     1      -7.573  -9.210  17.673  0.00  0.00    +0.112 C 
BRANCH  15   6
ATOM      2  O   UNL     1      -9.818  -7.884  16.419  0.00  0.00    -0.276 OA
ATOM      6  N   UNL     1      -8.958  -9.380  17.979  0.00  0.00    -0.315 N 
ATOM     25  C   UNL     1      -9.984  -8.699  17.322  0.00  0.00    +0.214 C 
ATOM     30  H   UNL     1      -9.212 -10.076  18.674  0.00  0.00    +0.149 HD
BRANCH  25  26
ATOM     26  C   UNL     1     -11.355  -9.077  17.856  0.00  0.00    +0.107 C 
BRANCH  26  27
ATOM     27  C   UNL     1     -11.330 -10.370  18.663  0.00  0.00    +0.129 C 
BRANCH  27  28
ATOM      4  O   UNL     1     -12.442  -9.907  20.777  0.00  0.00    -0.251 OA
ATOM     28  C   UNL     1     -11.413 -10.110  20.149  0.00  0.00    +0.305 C 
BRANCH  28   3
ATOM      3  O   UNL     1     -10.183 -10.129  20.726  0.00  0.00    -0.481 OA
ATOM     31  H   UNL     1     -10.236 -10.271  21.695  0.00  0.00    +0.295 HD
ENDBRANCH  28   3
ENDBRANCH  27  28
ENDBRANCH  26  27
ENDBRANCH  25  26
ENDBRANCH  15   6
ENDBRANCH   8  15
TORSDOF 10
ENDMDL
MODEL 4
REMARK VINA RESULT:      -6.5     21.005     25.121
REMARK  Name = 38027350
REMARK  13 active torsions:
REMARK  status: ('A' for Active; 'I' for Inactive)
REMARK    1  A    between atoms: O_3  and  C_28
REMARK    2  A    between atoms: N_5  and  C_16
REMARK    3  A    between atoms: N_6  and  C_15
REMARK    4  A    between atoms: C_7  and  C_11
REMARK    5  A    between atoms: C_8  and  C_15
REMARK    6  A    between atoms: C_10  and  C_14
REMARK    7  A    between atoms: C_11  and  C_17
REMARK    8  A    between atoms: C_11  and  C_18
REMARK    9  A    between atoms: C_12  and  C_22
REMARK   10  A    between atoms: C_14  and  C_21
REMARK   11  A    between atoms: C_25  and  C_26
REMARK   12  A    between atoms: C_26  and  C_27
REMARK   13  A    between atoms: C_27  and  C_28
REMARK                            x       y       z     vdW  Elec       q    Type
REMARK                         _______ _______ _______ _____ _____    ______ ____
ROOT
ATOM      7  C   UNL     1      11.840   8.345   5.045  0.00  0.00    +0.000 C 
ATOM      8  C   UNL     1      10.840   9.362   4.440  0.00  0.00    +0.032 C 
ATOM      9  C   UNL     1      12.638   7.649   3.932  0.00  0.00    +0.012 C 
ATOM     10  C   UNL     1      11.725   6.904   2.940  0.00  0.00    +0.023 C 
ATOM     12  C   UNL     1      10.554   7.760   2.500  0.00  0.00    -0.073 C 
ATOM     13  C   UNL     1      10.182   8.862   3.176  0.00  0.00    -0.022 C 
ATOM     22  C   UNL     1       9.848   7.344   1.240  0.00  0.00    +0.039 C 
ENDROOT
BRANCH   7  11
ATOM     11  C   UNL     1      12.803   9.013   6.033  0.00  0.00    -0.013 C 
ATOM     17  C   UNL     1      13.795   7.992   6.582  0.00  0.00    +0.007 C 
ATOM     18  C   UNL     1      13.533  10.171   5.362  0.00  0.00    +0.007 C 
ENDBRANCH   7  11
BRANCH  10  14
ATOM     14  C   UNL     1      11.241   5.572   3.527  0.00  0.00    +0.103 C 
BRANCH  14  21
ATOM      1  O   UNL     1      10.790   3.526   2.318  0.00  0.00    -0.276 OA
ATOM      5  N   UNL     1      12.922   4.450   2.250  0.00  0.00    -0.312 N 
ATOM     21  C   UNL     1      11.591   4.399   2.640  0.00  0.00    +0.214 C 
ATOM     29  H   UNL     1      13.485   5.247   2.535  0.00  0.00    +0.149 HD
BRANCH   5  16
ATOM     16  C   UNL     1      13.532   3.457   1.401  0.00  0.00    +0.073 C 
ATOM     19  C   UNL     1      15.052   3.491   1.498  0.00  0.00    +0.022 C 
ATOM     20  C   UNL     1      13.282   3.740  -0.076  0.00  0.00    +0.022 C 
ATOM     23  C   UNL     1      15.470   4.624   0.565  0.00  0.00    +0.002 C 
ATOM     24  C   UNL     1      14.353   4.755  -0.471  0.00  0.00    +0.002 C 
ENDBRANCH   5  16
ENDBRANCH  14  21
ENDBRANCH  10  14
BRANCH   8  15
ATOM     15  C   UNL     1       9.762   9.750   5.458  0.00  0.00    +0.112 C 
BRANCH  15   6
ATOM      2  O   UNL     1       9.892   9.341   8.319  0.00  0.00    -0.276 OA
ATOM      6  N   UNL     1       9.319   8.605   6.189  0.00  0.00    -0.315 N 
ATOM     25  C   UNL     1       9.418   8.487   7.576  0.00  0.00    +0.214 C 
ATOM     30  H   UNL     1       8.856   7.860   5.675  0.00  0.00    +0.149 HD
BRANCH  25  26
ATOM     26  C   UNL     1       8.869   7.163   8.078  0.00  0.00    +0.107 C 
BRANCH  26  27
ATOM     27  C   UNL     1       9.581   5.964   7.462  0.00  0.00    +0.129 C 
BRANCH  27  28
ATOM      4  O   UNL     1      10.294   5.292   9.689  0.00  0.00    -0.251 OA
ATOM     28  C   UNL     1      10.100   5.013   8.515  0.00  0.00    +0.305 C 
BRANCH  28   3
ATOM      3  O   UNL     1      10.332   3.778   7.998  0.00  0.00    -0.481 OA
ATOM     31  H   UNL     1       9.498   3.289   7.832  0.00  0.00    +0.295 HD
ENDBRANCH  28   3
ENDBRANCH  27  28
ENDBRANCH  26  27
ENDBRANCH  25  26
ENDBRANCH  15   6
ENDBRANCH   8  15
TORSDOF 10
ENDMDL
MODEL 5
REMARK VINA RESULT:      -6.4     21.001     24.957
REMARK  Name = 38027350
REMARK  13 active torsions:
REMARK  status: ('A' for Active; 'I' for Inactive)
REMARK    1  A    between atoms: O_3  and  C_28
REMARK    2  A    between atoms: N_5  and  C_16
REMARK    3  A    between atoms: N_6  and  C_15
REMARK    4  A    between atoms: C_7  and  C_11
REMARK    5  A    between atoms: C_8  and  C_15
REMARK    6  A    between atoms: C_10  and  C_14
REMARK    7  A    between atoms: C_11  and  C_17
REMARK    8  A    between atoms: C_11  and  C_18
REMARK    9  A    between atoms: C_12  and  C_22
REMARK   10  A    between atoms: C_14  and  C_21
REMARK   11  A    between atoms: C_25  and  C_26
REMARK   12  A    between atoms: C_26  and  C_27
REMARK   13  A    between atoms: C_27  and  C_28
REMARK                            x       y       z     vdW  Elec       q    Type
REMARK                         _______ _______ _______ _____ _____    ______ ____
ROOT
ATOM      7  C   UNL     1       9.343   8.755   3.159  0.00  0.00    +0.000 C 
ATOM      8  C   UNL     1       8.262   7.929   3.902  0.00  0.00    +0.032 C 
ATOM      9  C   UNL     1      10.174   7.846   2.240  0.00  0.00    +0.012 C 
ATOM     10  C   UNL     1      10.872   6.714   3.017  0.00  0.00    +0.023 C 
ATOM     12  C   UNL     1       9.925   6.022   3.976  0.00  0.00    -0.073 C 
ATOM     13  C   UNL     1       8.757   6.574   4.349  0.00  0.00    -0.022 C 
ATOM     22  C   UNL     1      10.331   4.658   4.462  0.00  0.00    +0.039 C 
ENDROOT
BRANCH   7  11
ATOM     11  C   UNL     1       8.726   9.894   2.341  0.00  0.00    -0.013 C 
ATOM     17  C   UNL     1       9.803  10.607   1.528  0.00  0.00    +0.007 C 
ATOM     18  C   UNL     1       7.624   9.361   1.432  0.00  0.00    +0.007 C 
ENDBRANCH   7  11
BRANCH  10  14
ATOM     14  C   UNL     1      12.115   7.232   3.751  0.00  0.00    +0.103 C 
BRANCH  14  21
ATOM      1  O   UNL     1      14.448   7.422   3.139  0.00  0.00    -0.276 OA
ATOM      5  N   UNL     1      13.215   5.596   2.399  0.00  0.00    -0.312 N 
ATOM     21  C   UNL     1      13.396   6.791   3.080  0.00  0.00    +0.214 C 
ATOM     29  H   UNL     1      12.313   5.132   2.457  0.00  0.00    +0.149 HD
BRANCH   5  16
ATOM     16  C   UNL     1      14.268   4.941   1.665  0.00  0.00    +0.073 C 
ATOM     19  C   UNL     1      14.261   5.340   0.194  0.00  0.00    +0.022 C 
ATOM     20  C   UNL     1      14.066   3.431   1.604  0.00  0.00    +0.022 C 
ATOM     23  C   UNL     1      13.194   4.452  -0.439  0.00  0.00    +0.002 C 
ATOM     24  C   UNL     1      13.099   3.207   0.443  0.00  0.00    +0.002 C 
ENDBRANCH   5  16
ENDBRANCH  14  21
ENDBRANCH  10  14
BRANCH   8  15
ATOM     15  C   UNL     1       7.713   8.697   5.109  0.00  0.00    +0.112 C 
BRANCH  15   6
ATOM      2  O   UNL     1       9.629   9.358   7.173  0.00  0.00    -0.276 OA
ATOM      6  N   UNL     1       7.960   7.981   6.321  0.00  0.00    -0.315 N 
ATOM     25  C   UNL     1       8.907   8.369   7.269  0.00  0.00    +0.214 C 
ATOM     30  H   UNL     1       7.375   7.176   6.528  0.00  0.00    +0.149 HD
BRANCH  25  26
ATOM     26  C   UNL     1       8.952   7.421   8.454  0.00  0.00    +0.107 C 
BRANCH  26  27
ATOM     27  C   UNL     1       9.886   6.238   8.219  0.00  0.00    +0.129 C 
BRANCH  27  28
ATOM      4  O   UNL     1       9.995   3.925   8.966  0.00  0.00    -0.251 OA
ATOM     28  C   UNL     1       9.499   5.039   9.053  0.00  0.00    +0.305 C 
BRANCH  28   3
ATOM      3  O   UNL     1       8.512   5.345   9.935  0.00  0.00    -0.481 OA
ATOM     31  H   UNL     1       8.378   6.314  10.010  0.00  0.00    +0.295 HD
ENDBRANCH  28   3
ENDBRANCH  27  28
ENDBRANCH  26  27
ENDBRANCH  25  26
ENDBRANCH  15   6
ENDBRANCH   8  15
TORSDOF 10
ENDMDL
MODEL 6
REMARK VINA RESULT:      -6.2     14.421     16.220
REMARK  Name = 38027350
REMARK  13 active torsions:
REMARK  status: ('A' for Active; 'I' for Inactive)
REMARK    1  A    between atoms: O_3  and  C_28
REMARK    2  A    between atoms: N_5  and  C_16
REMARK    3  A    between atoms: N_6  and  C_15
REMARK    4  A    between atoms: C_7  and  C_11
REMARK    5  A    between atoms: C_8  and  C_15
REMARK    6  A    between atoms: C_10  and  C_14
REMARK    7  A    between atoms: C_11  and  C_17
REMARK    8  A    between atoms: C_11  and  C_18
REMARK    9  A    between atoms: C_12  and  C_22
REMARK   10  A    between atoms: C_14  and  C_21
REMARK   11  A    between atoms: C_25  and  C_26
REMARK   12  A    between atoms: C_26  and  C_27
REMARK   13  A    between atoms: C_27  and  C_28
REMARK                            x       y       z     vdW  Elec       q    Type
REMARK                         _______ _______ _______ _____ _____    ______ ____
ROOT
ATOM      7  C   UNL     1      -6.764 -10.506  15.929  0.00  0.00    +0.000 C 
ATOM      8  C   UNL     1      -5.801 -10.328  14.729  0.00  0.00    +0.032 C 
ATOM      9  C   UNL     1      -6.142  -9.924  17.208  0.00  0.00    +0.012 C 
ATOM     10  C   UNL     1      -4.797 -10.589  17.557  0.00  0.00    +0.023 C 
ATOM     12  C   UNL     1      -3.889 -10.692  16.349  0.00  0.00    -0.073 C 
ATOM     13  C   UNL     1      -4.353 -10.559  15.093  0.00  0.00    -0.022 C 
ATOM     22  C   UNL     1      -2.426 -10.906  16.618  0.00  0.00    +0.039 C 
ENDROOT
BRANCH   7  11
ATOM     11  C   UNL     1      -8.125  -9.852  15.670  0.00  0.00    -0.013 C 
ATOM     17  C   UNL     1      -9.176 -10.915  15.362  0.00  0.00    +0.007 C 
ATOM     18  C   UNL     1      -8.544  -9.005  16.867  0.00  0.00    +0.007 C 
ENDBRANCH   7  11
BRANCH  10  14
ATOM     14  C   UNL     1      -5.012 -11.965  18.201  0.00  0.00    +0.103 C 
BRANCH  14  21
ATOM      1  O   UNL     1      -5.912 -11.229  20.323  0.00  0.00    -0.276 OA
ATOM      5  N   UNL     1      -7.111 -12.748  19.036  0.00  0.00    -0.312 N 
ATOM     21  C   UNL     1      -6.035 -11.917  19.313  0.00  0.00    +0.214 C 
ATOM     29  H   UNL     1      -7.134 -13.237  18.144  0.00  0.00    +0.149 HD
BRANCH   5  16
ATOM     16  C   UNL     1      -8.236 -12.904  19.924  0.00  0.00    +0.073 C 
ATOM     19  C   UNL     1      -9.053 -14.144  19.585  0.00  0.00    +0.022 C 
ATOM     20  C   UNL     1      -9.249 -11.777  19.760  0.00  0.00    +0.022 C 
ATOM     23  C   UNL     1      -9.954 -13.706  18.433  0.00  0.00    +0.002 C 
ATOM     24  C   UNL     1     -10.114 -12.192  18.571  0.00  0.00    +0.002 C 
ENDBRANCH   5  16
ENDBRANCH  14  21
ENDBRANCH  10  14
BRANCH   8  15
ATOM     15  C   UNL     1      -6.189 -11.248  13.567  0.00  0.00    +0.112 C 
BRANCH  15   6
ATOM      2  O   UNL     1      -5.723  -9.381  11.407  0.00  0.00    -0.276 OA
ATOM      6  N   UNL     1      -5.146 -11.298  12.590  0.00  0.00    -0.315 N 
ATOM     25  C   UNL     1      -4.991 -10.352  11.576  0.00  0.00    +0.214 C 
ATOM     30  H   UNL     1      -4.449 -12.032  12.672  0.00  0.00    +0.149 HD
BRANCH  25  26
ATOM     26  C   UNL     1      -3.801 -10.658  10.685  0.00  0.00    +0.107 C 
BRANCH  26  27
ATOM     27  C   UNL     1      -2.542  -9.915  11.117  0.00  0.00    +0.129 C 
BRANCH  27  28
ATOM      4  O   UNL     1      -1.483  -9.921  13.308  0.00  0.00    -0.251 OA
ATOM     28  C   UNL     1      -1.911 -10.536  12.342  0.00  0.00    +0.305 C 
BRANCH  28   3
ATOM      3  O   UNL     1      -1.874 -11.891  12.248  0.00  0.00    -0.481 OA
ATOM     31  H   UNL     1      -2.755 -12.292  12.403  0.00  0.00    +0.295 HD
ENDBRANCH  28   3
ENDBRANCH  27  28
ENDBRANCH  26  27
ENDBRANCH  25  26
ENDBRANCH  15   6
ENDBRANCH   8  15
TORSDOF 10
ENDMDL
MODEL 7
REMARK VINA RESULT:      -6.2     21.323     25.298
REMARK  Name = 38027350
REMARK  13 active torsions:
REMARK  status: ('A' for Active; 'I' for Inactive)
REMARK    1  A    between atoms: O_3  and  C_28
REMARK    2  A    between atoms: N_5  and  C_16
REMARK    3  A    between atoms: N_6  and  C_15
REMARK    4  A    between atoms: C_7  and  C_11
REMARK    5  A    between atoms: C_8  and  C_15
REMARK    6  A    between atoms: C_10  and  C_14
REMARK    7  A    between atoms: C_11  and  C_17
REMARK    8  A    between atoms: C_11  and  C_18
REMARK    9  A    between atoms: C_12  and  C_22
REMARK   10  A    between atoms: C_14  and  C_21
REMARK   11  A    between atoms: C_25  and  C_26
REMARK   12  A    between atoms: C_26  and  C_27
REMARK   13  A    between atoms: C_27  and  C_28
REMARK                            x       y       z     vdW  Elec       q    Type
REMARK                         _______ _______ _______ _____ _____    ______ ____
ROOT
ATOM      7  C   UNL     1      12.813   7.191   4.141  0.00  0.00    +0.000 C 
ATOM      8  C   UNL     1      11.933   8.283   4.799  0.00  0.00    +0.032 C 
ATOM      9  C   UNL     1      12.498   7.078   2.641  0.00  0.00    +0.012 C 
ATOM     10  C   UNL     1      11.019   6.736   2.381  0.00  0.00    +0.023 C 
ATOM     12  C   UNL     1      10.087   7.601   3.206  0.00  0.00    -0.073 C 
ATOM     13  C   UNL     1      10.517   8.296   4.274  0.00  0.00    -0.022 C 
ATOM     22  C   UNL     1       8.658   7.685   2.746  0.00  0.00    +0.039 C 
ENDROOT
BRANCH   7  11
ATOM     11  C   UNL     1      14.307   7.469   4.338  0.00  0.00    -0.013 C 
ATOM     17  C   UNL     1      15.135   6.642   3.359  0.00  0.00    +0.007 C 
ATOM     18  C   UNL     1      14.597   8.956   4.171  0.00  0.00    +0.007 C 
ENDBRANCH   7  11
BRANCH  10  14
ATOM     14  C   UNL     1      10.745   5.247   2.626  0.00  0.00    +0.103 C 
BRANCH  14  21
ATOM      1  O   UNL     1      12.394   3.563   2.076  0.00  0.00    -0.276 OA
ATOM      5  N   UNL     1      11.184   4.581   0.372  0.00  0.00    -0.312 N 
ATOM     21  C   UNL     1      11.543   4.362   1.694  0.00  0.00    +0.214 C 
ATOM     29  H   UNL     1      10.430   5.232   0.171  0.00  0.00    +0.149 HD
BRANCH   5  16
ATOM     16  C   UNL     1      11.785   3.877  -0.733  0.00  0.00    +0.073 C 
ATOM     19  C   UNL     1      13.094   4.524  -1.168  0.00  0.00    +0.022 C 
ATOM     20  C   UNL     1      10.932   3.964  -1.994  0.00  0.00    +0.022 C 
ATOM     23  C   UNL     1      12.670   5.682  -2.066  0.00  0.00    +0.002 C 
ATOM     24  C   UNL     1      11.299   5.303  -2.630  0.00  0.00    +0.002 C 
ENDBRANCH   5  16
ENDBRANCH  14  21
ENDBRANCH  10  14
BRANCH   8  15
ATOM     15  C   UNL     1      11.913   8.133   6.324  0.00  0.00    +0.112 C 
BRANCH  15   6
ATOM      2  O   UNL     1      11.902   5.829   8.074  0.00  0.00    -0.276 OA
ATOM      6  N   UNL     1      10.778   7.371   6.743  0.00  0.00    -0.315 N 
ATOM     25  C   UNL     1      10.860   6.268   7.594  0.00  0.00    +0.214 C 
ATOM     30  H   UNL     1       9.857   7.684   6.449  0.00  0.00    +0.149 HD
BRANCH  25  26
ATOM     26  C   UNL     1       9.499   5.654   7.867  0.00  0.00    +0.107 C 
BRANCH  26  27
ATOM     27  C   UNL     1       9.591   4.365   8.677  0.00  0.00    +0.129 C 
BRANCH  27  28
ATOM      4  O   UNL     1       8.275   4.600  10.710  0.00  0.00    -0.251 OA
ATOM     28  C   UNL     1       9.362   4.607  10.151  0.00  0.00    +0.305 C 
BRANCH  28   3
ATOM      3  O   UNL     1      10.531   4.837  10.803  0.00  0.00    -0.481 OA
ATOM     31  H   UNL     1      10.514   4.486  11.719  0.00  0.00    +0.295 HD
ENDBRANCH  28   3
ENDBRANCH  27  28
ENDBRANCH  26  27
ENDBRANCH  25  26
ENDBRANCH  15   6
ENDBRANCH   8  15
TORSDOF 10
ENDMDL
MODEL 8
REMARK VINA RESULT:      -6.2     14.233     16.028
REMARK  Name = 38027350
REMARK  13 active torsions:
REMARK  status: ('A' for Active; 'I' for Inactive)
REMARK    1  A    between atoms: O_3  and  C_28
REMARK    2  A    between atoms: N_5  and  C_16
REMARK    3  A    between atoms: N_6  and  C_15
REMARK    4  A    between atoms: C_7  and  C_11
REMARK    5  A    between atoms: C_8  and  C_15
REMARK    6  A    between atoms: C_10  and  C_14
REMARK    7  A    between atoms: C_11  and  C_17
REMARK    8  A    between atoms: C_11  and  C_18
REMARK    9  A    between atoms: C_12  and  C_22
REMARK   10  A    between atoms: C_14  and  C_21
REMARK   11  A    between atoms: C_25  and  C_26
REMARK   12  A    between atoms: C_26  and  C_27
REMARK   13  A    between atoms: C_27  and  C_28
REMARK                            x       y       z     vdW  Elec       q    Type
REMARK                         _______ _______ _______ _____ _____    ______ ____
ROOT
ATOM      7  C   UNL     1     -12.218   9.958  18.597  0.00  0.00    +0.000 C 
ATOM      8  C   UNL     1     -12.124   8.551  17.956  0.00  0.00    +0.032 C 
ATOM      9  C   UNL     1     -11.420  10.003  19.910  0.00  0.00    +0.012 C 
ATOM     10  C   UNL     1     -11.922   8.966  20.932  0.00  0.00    +0.023 C 
ATOM     12  C   UNL     1     -12.112   7.601  20.302  0.00  0.00    -0.073 C 
ATOM     13  C   UNL     1     -12.187   7.434  18.970  0.00  0.00    -0.022 C 
ATOM     22  C   UNL     1     -12.169   6.426  21.239  0.00  0.00    +0.039 C 
ENDROOT
BRANCH   7  11
ATOM     11  C   UNL     1     -11.716  11.051  17.648  0.00  0.00    -0.013 C 
ATOM     17  C   UNL     1     -12.507  12.340  17.855  0.00  0.00    +0.007 C 
ATOM     18  C   UNL     1     -10.225  11.292  17.855  0.00  0.00    +0.007 C 
ENDBRANCH   7  11
BRANCH  10  14
ATOM     14  C   UNL     1     -13.211   9.441  21.614  0.00  0.00    +0.103 C 
BRANCH  14  21
ATOM      1  O   UNL     1     -13.208  11.823  22.038  0.00  0.00    -0.276 OA
ATOM      5  N   UNL     1     -12.512  10.362  23.706  0.00  0.00    -0.312 N 
ATOM     21  C   UNL     1     -12.990  10.684  22.444  0.00  0.00    +0.214 C 
ATOM     29  H   UNL     1     -12.414   9.381  23.956  0.00  0.00    +0.149 HD
BRANCH   5  16
ATOM     16  C   UNL     1     -12.209  11.350  24.710  0.00  0.00    +0.073 C 
ATOM     19  C   UNL     1     -11.267  10.801  25.775  0.00  0.00    +0.022 C 
ATOM     20  C   UNL     1     -13.442  11.737  25.518  0.00  0.00    +0.022 C 
ATOM     23  C   UNL     1     -12.175  10.032  26.730  0.00  0.00    +0.002 C 
ATOM     24  C   UNL     1     -13.563  10.661  26.596  0.00  0.00    +0.002 C 
ENDBRANCH   5  16
ENDBRANCH  14  21
ENDBRANCH  10  14
BRANCH   8  15
ATOM     15  C   UNL     1     -13.221   8.349  16.904  0.00  0.00    +0.112 C 
BRANCH  15   6
ATOM      2  O   UNL     1     -13.699  10.187  14.722  0.00  0.00    -0.276 OA
ATOM      6  N   UNL     1     -12.660   8.296  15.590  0.00  0.00    -0.315 N 
ATOM     25  C   UNL     1     -12.944   9.228  14.591  0.00  0.00    +0.214 C 
ATOM     30  H   UNL     1     -11.976   7.572  15.392  0.00  0.00    +0.149 HD
BRANCH  25  26
ATOM     26  C   UNL     1     -12.208   8.922  13.299  0.00  0.00    +0.107 C 
BRANCH  26  27
ATOM     27  C   UNL     1     -10.711   8.726  13.512  0.00  0.00    +0.129 C 
BRANCH  27  28
ATOM      4  O   UNL     1     -10.713   6.329  13.090  0.00  0.00    -0.251 OA
ATOM     28  C   UNL     1     -10.219   7.432  12.906  0.00  0.00    +0.305 C 
BRANCH  28   3
ATOM      3  O   UNL     1      -9.136   7.637  12.111  0.00  0.00    -0.481 OA
ATOM     31  H   UNL     1      -8.712   6.793  11.847  0.00  0.00    +0.295 HD
ENDBRANCH  28   3
ENDBRANCH  27  28
ENDBRANCH  26  27
ENDBRANCH  25  26
ENDBRANCH  15   6
ENDBRANCH   8  15
TORSDOF 10
ENDMDL
MODEL 9
REMARK VINA RESULT:      -6.2     14.351     17.240
REMARK  Name = 38027350
REMARK  13 active torsions:
REMARK  status: ('A' for Active; 'I' for Inactive)
REMARK    1  A    between atoms: O_3  and  C_28
REMARK    2  A    between atoms: N_5  and  C_16
REMARK    3  A    between atoms: N_6  and  C_15
REMARK    4  A    between atoms: C_7  and  C_11
REMARK    5  A    between atoms: C_8  and  C_15
REMARK    6  A    between atoms: C_10  and  C_14
REMARK    7  A    between atoms: C_11  and  C_17
REMARK    8  A    between atoms: C_11  and  C_18
REMARK    9  A    between atoms: C_12  and  C_22
REMARK   10  A    between atoms: C_14  and  C_21
REMARK   11  A    between atoms: C_25  and  C_26
REMARK   12  A    between atoms: C_26  and  C_27
REMARK   13  A    between atoms: C_27  and  C_28
REMARK                            x       y       z     vdW  Elec       q    Type
REMARK                         _______ _______ _______ _____ _____    ______ ____
ROOT
ATOM      7  C   UNL     1      -6.716 -10.241  15.426  0.00  0.00    +0.000 C 
ATOM      8  C   UNL     1      -7.295 -10.267  16.863  0.00  0.00    +0.032 C 
ATOM      9  C   UNL     1      -5.850 -11.485  15.174  0.00  0.00    +0.012 C 
ATOM     10  C   UNL     1      -4.680 -11.592  16.171  0.00  0.00    +0.023 C 
ATOM     12  C   UNL     1      -5.133 -11.361  17.598  0.00  0.00    -0.073 C 
ATOM     13  C   UNL     1      -6.311 -10.779  17.888  0.00  0.00    -0.022 C 
ATOM     22  C   UNL     1      -4.221 -11.854  18.686  0.00  0.00    +0.039 C 
ENDROOT
BRANCH   7  11
ATOM     11  C   UNL     1      -7.821 -10.155  14.368  0.00  0.00    -0.013 C 
ATOM     17  C   UNL     1      -7.214 -10.080  12.970  0.00  0.00    +0.007 C 
ATOM     18  C   UNL     1      -8.763 -11.349  14.486  0.00  0.00    +0.007 C 
ENDBRANCH   7  11
BRANCH  10  14
ATOM     14  C   UNL     1      -3.543 -10.635  15.793  0.00  0.00    +0.103 C 
BRANCH  14  21
ATOM      1  O   UNL     1      -1.893 -12.145  14.871  0.00  0.00    -0.276 OA
ATOM      5  N   UNL     1      -2.841 -10.516  13.511  0.00  0.00    -0.312 N 
ATOM     21  C   UNL     1      -2.662 -11.202  14.704  0.00  0.00    +0.214 C 
ATOM     29  H   UNL     1      -3.542  -9.781  13.471  0.00  0.00    +0.149 HD
BRANCH   5  16
ATOM     16  C   UNL     1      -2.126 -10.839  12.302  0.00  0.00    +0.073 C 
ATOM     19  C   UNL     1      -2.059  -9.650  11.352  0.00  0.00    +0.022 C 
ATOM     20  C   UNL     1      -2.857 -11.890  11.474  0.00  0.00    +0.022 C 
ATOM     23  C   UNL     1      -3.401  -9.662  10.627  0.00  0.00    +0.002 C 
ATOM     24  C   UNL     1      -3.893 -11.109  10.668  0.00  0.00    +0.002 C 
ENDBRANCH   5  16
ENDBRANCH  14  21
ENDBRANCH  10  14
BRANCH   8  15
ATOM     15  C   UNL     1      -7.795  -8.880  17.283  0.00  0.00    +0.112 C 
BRANCH  15   6
ATOM      2  O   UNL     1     -10.056  -9.924  18.756  0.00  0.00    -0.276 OA
ATOM      6  N   UNL     1      -9.180  -8.723  16.966  0.00  0.00    -0.315 N 
ATOM     25  C   UNL     1     -10.214  -9.261  17.734  0.00  0.00    +0.214 C 
ATOM     30  H   UNL     1      -9.425  -8.142  16.170  0.00  0.00    +0.149 HD
BRANCH  25  26
ATOM     26  C   UNL     1     -11.581  -8.937  17.159  0.00  0.00    +0.107 C 
BRANCH  26  27
ATOM     27  C   UNL     1     -11.496  -8.117  15.877  0.00  0.00    +0.129 C 
BRANCH  27  28
ATOM      4  O   UNL     1     -13.015  -6.219  15.767  0.00  0.00    -0.251 OA
ATOM     28  C   UNL     1     -11.933  -6.686  16.091  0.00  0.00    +0.305 C 
BRANCH  28   3
ATOM      3  O   UNL     1     -10.962  -5.957  16.701  0.00  0.00    -0.481 OA
ATOM     31  H   UNL     1     -11.261  -5.043  16.897  0.00  0.00    +0.295 HD
ENDBRANCH  28   3
ENDBRANCH  27  28
ENDBRANCH  26  27
ENDBRANCH  25  26
ENDBRANCH  15   6
ENDBRANCH   8  15
TORSDOF 10
ENDMDL
MODEL 10
REMARK VINA RESULT:      -6.1     14.507     16.947
REMARK  Name = 38027350
REMARK  13 active torsions:
REMARK  status: ('A' for Active; 'I' for Inactive)
REMARK    1  A    between atoms: O_3  and  C_28
REMARK    2  A    between atoms: N_5  and  C_16
REMARK    3  A    between atoms: N_6  and  C_15
REMARK    4  A    between atoms: C_7  and  C_11
REMARK    5  A    between atoms: C_8  and  C_15
REMARK    6  A    between atoms: C_10  and  C_14
REMARK    7  A    between atoms: C_11  and  C_17
REMARK    8  A    between atoms: C_11  and  C_18
REMARK    9  A    between atoms: C_12  and  C_22
REMARK   10  A    between atoms: C_14  and  C_21
REMARK   11  A    between atoms: C_25  and  C_26
REMARK   12  A    between atoms: C_26  and  C_27
REMARK   13  A    between atoms: C_27  and  C_28
REMARK                            x       y       z     vdW  Elec       q    Type
REMARK                         _______ _______ _______ _____ _____    ______ ____
ROOT
ATOM      7  C   UNL     1      -1.249  11.870  37.656  0.00  0.00    +0.000 C 
ATOM      8  C   UNL     1      -0.663  11.327  36.328  0.00  0.00    +0.032 C 
ATOM      9  C   UNL     1      -0.719  11.057  38.848  0.00  0.00    +0.012 C 
ATOM     10  C   UNL     1      -1.069   9.562  38.735  0.00  0.00    +0.023 C 
ATOM     12  C   UNL     1      -0.765   9.015  37.354  0.00  0.00    -0.073 C 
ATOM     13  C   UNL     1      -0.574   9.820  36.294  0.00  0.00    -0.022 C 
ATOM     22  C   UNL     1      -0.642   7.522  37.230  0.00  0.00    +0.039 C 
ENDROOT
BRANCH   7  11
ATOM     11  C   UNL     1      -0.927  13.354  37.855  0.00  0.00    -0.013 C 
ATOM     17  C   UNL     1      -1.376  13.815  39.239  0.00  0.00    +0.007 C 
ATOM     18  C   UNL     1       0.565  13.605  37.659  0.00  0.00    +0.007 C 
ENDBRANCH   7  11
BRANCH  10  14
ATOM     14  C   UNL     1      -2.532   9.306  39.117  0.00  0.00    +0.103 C 
BRANCH  14  21
ATOM      1  O   UNL     1      -3.747   7.786  40.555  0.00  0.00    -0.276 OA
ATOM      5  N   UNL     1      -1.433   7.624  40.413  0.00  0.00    -0.312 N 
ATOM     21  C   UNL     1      -2.671   8.167  40.101  0.00  0.00    +0.214 C 
ATOM     29  H   UNL     1      -0.608   7.985  39.940  0.00  0.00    +0.149 HD
BRANCH   5  16
ATOM     16  C   UNL     1      -1.263   6.525  41.328  0.00  0.00    +0.073 C 
ATOM     19  C   UNL     1       0.210   6.221  41.576  0.00  0.00    +0.022 C 
ATOM     20  C   UNL     1      -1.784   5.215  40.748  0.00  0.00    +0.022 C 
ATOM     23  C   UNL     1       0.630   5.364  40.385  0.00  0.00    +0.002 C 
ATOM     24  C   UNL     1      -0.644   4.685  39.880  0.00  0.00    +0.002 C 
ENDBRANCH   5  16
ENDBRANCH  14  21
ENDBRANCH  10  14
BRANCH   8  15
ATOM     15  C   UNL     1      -1.475  11.818  35.124  0.00  0.00    +0.112 C 
BRANCH  15   6
ATOM      2  O   UNL     1      -1.387  14.651  34.540  0.00  0.00    -0.276 OA
ATOM      6  N   UNL     1      -0.630  12.481  34.180  0.00  0.00    -0.315 N 
ATOM     25  C   UNL     1      -0.650  13.859  33.958  0.00  0.00    +0.214 C 
ATOM     30  H   UNL     1       0.060  11.924  33.683  0.00  0.00    +0.149 HD
BRANCH  25  26
ATOM     26  C   UNL     1       0.352  14.282  32.900  0.00  0.00    +0.107 C 
BRANCH  26  27
ATOM     27  C   UNL     1       1.189  13.115  32.388  0.00  0.00    +0.129 C 
BRANCH  27  28
ATOM      4  O   UNL     1       1.747  14.380  30.385  0.00  0.00    -0.251 OA
ATOM     28  C   UNL     1       1.601  13.304  30.946  0.00  0.00    +0.305 C 
BRANCH  28   3
ATOM      3  O   UNL     1       1.796  12.111  30.326  0.00  0.00    -0.481 OA
ATOM     31  H   UNL     1       2.727  11.996  30.040  0.00  0.00    +0.295 HD
ENDBRANCH  28   3
ENDBRANCH  27  28
ENDBRANCH  26  27
ENDBRANCH  25  26
ENDBRANCH  15   6
ENDBRANCH   8  15
TORSDOF 10
ENDMDL
