MODEL 1
REMARK VINA RESULT:      -7.9      0.000      0.000
REMARK  Name = 11942317
REMARK  9 active torsions:
REMARK  status: ('A' for Active; 'I' for Inactive)
REMARK    1  A    between atoms: N_4  and  C_15
REMARK    2  A    between atoms: N_5  and  C_18
REMARK    3  A    between atoms: C_9  and  C_15
REMARK    4  A    between atoms: C_10  and  C_16
REMARK    5  A    between atoms: C_18  and  C_21
REMARK    6  A    between atoms: C_19  and  C_20
REMARK    7  A    between atoms: C_20  and  C_22
REMARK    8  A    between atoms: C_20  and  C_23
REMARK    9  A    between atoms: C_20  and  C_24
REMARK                            x       y       z     vdW  Elec       q    Type
REMARK                         _______ _______ _______ _____ _____    ______ ____
ROOT
ATOM      3  N   UNL     1      14.596   8.755  18.839  0.00  0.00    -0.297 NA
ATOM      8  C   UNL     1      12.083   8.281  18.354  0.00  0.00    +0.005 C 
ATOM      9  C   UNL     1      14.316   7.301  18.984  0.00  0.00    +0.078 C 
ATOM     10  C   UNL     1      12.248   9.397  19.404  0.00  0.00    +0.092 C 
ATOM     11  C   UNL     1      12.805   7.013  18.853  0.00  0.00    +0.025 C 
ATOM     12  C   UNL     1      12.813   8.753  17.084  0.00  0.00    +0.020 C 
ATOM     13  C   UNL     1      13.738   9.538  19.762  0.00  0.00    +0.097 C 
ATOM     14  C   UNL     1      14.256   9.147  17.448  0.00  0.00    +0.085 C 
ENDROOT
BRANCH  10  16
ATOM      2  O   UNL     1      10.542   8.258  20.625  0.00  0.00    -0.275 OA
ATOM      5  N   UNL     1      11.713   9.982  21.663  0.00  0.00    -0.311 N 
ATOM     16  C   UNL     1      11.407   9.131  20.615  0.00  0.00    +0.218 C 
ATOM     30  H   UNL     1      12.450  10.672  21.546  0.00  0.00    +0.149 HD
BRANCH   5  18
ATOM     18  C   UNL     1      11.030   9.947  22.936  0.00  0.00    +0.139 C 
BRANCH  18  21
ATOM      1  F   UNL     1      10.640  15.056  25.247  0.00  0.00    -0.205 F 
ATOM     21  C   UNL     1      10.925  11.312  23.554  0.00  0.00    -0.030 A 
ATOM     25  C   UNL     1      11.011  11.450  24.934  0.00  0.00    +0.008 A 
ATOM     26  C   UNL     1      10.743  12.423  22.739  0.00  0.00    +0.008 A 
ATOM     27  C   UNL     1      10.914  12.718  25.508  0.00  0.00    +0.038 A 
ATOM     28  C   UNL     1      10.647  13.691  23.313  0.00  0.00    +0.038 A 
ATOM     29  C   UNL     1      10.732  13.838  24.697  0.00  0.00    +0.123 A 
ENDBRANCH  18  21
ENDBRANCH   5  18
ENDBRANCH  10  16
BRANCH   9  15
ATOM     15  C   UNL     1      14.895   6.724  20.278  0.00  0.00    +0.164 C 
BRANCH  15   4
ATOM      4  N   UNL     1      16.313   6.427  20.150  0.00  0.00    -0.250 N 
ATOM      6  N   UNL     1      16.780   5.842  19.042  0.00  0.00    -0.065 NA
ATOM      7  N   UNL     1      18.089   5.694  19.211  0.00  0.00    -0.134 NA
ATOM     17  C   UNL     1      17.286   6.673  21.057  0.00  0.00    +0.134 A 
ATOM     19  C   UNL     1      18.415   6.196  20.439  0.00  0.00    +0.088 A 
BRANCH  19  20
ATOM     20  C   UNL     1      19.800   6.180  20.927  0.00  0.00    +0.008 C 
ATOM     22  C   UNL     1      20.589   4.900  20.468  0.00  0.00    +0.017 C 
ATOM     23  C   UNL     1      19.890   6.215  22.496  0.00  0.00    +0.017 C 
ATOM     24  C   UNL     1      20.710   7.381  20.463  0.00  0.00    +0.017 C 
ENDBRANCH  19  20
ENDBRANCH  15   4
ENDBRANCH   9  15
TORSDOF 6
ENDMDL
MODEL 2
REMARK VINA RESULT:      -7.2      3.190      8.871
REMARK  Name = 11942317
REMARK  9 active torsions:
REMARK  status: ('A' for Active; 'I' for Inactive)
REMARK    1  A    between atoms: N_4  and  C_15
REMARK    2  A    between atoms: N_5  and  C_18
REMARK    3  A    between atoms: C_9  and  C_15
REMARK    4  A    between atoms: C_10  and  C_16
REMARK    5  A    between atoms: C_18  and  C_21
REMARK    6  A    between atoms: C_19  and  C_20
REMARK    7  A    between atoms: C_20  and  C_22
REMARK    8  A    between atoms: C_20  and  C_23
REMARK    9  A    between atoms: C_20  and  C_24
REMARK                            x       y       z     vdW  Elec       q    Type
REMARK                         _______ _______ _______ _____ _____    ______ ____
ROOT
ATOM      3  N   UNL     1      12.087   9.145  22.081  0.00  0.00    -0.297 NA
ATOM      8  C   UNL     1      11.997   7.398  20.155  0.00  0.00    +0.005 C 
ATOM      9  C   UNL     1      11.663   9.805  20.817  0.00  0.00    +0.078 C 
ATOM     10  C   UNL     1      13.357   7.360  20.879  0.00  0.00    +0.092 C 
ATOM     11  C   UNL     1      11.748   8.824  19.626  0.00  0.00    +0.025 C 
ATOM     12  C   UNL     1      10.920   7.108  21.216  0.00  0.00    +0.020 C 
ATOM     13  C   UNL     1      13.414   8.504  21.907  0.00  0.00    +0.097 C 
ATOM     14  C   UNL     1      11.099   8.083  22.395  0.00  0.00    +0.085 C 
ENDROOT
BRANCH  10  16
ATOM      2  O   UNL     1      14.577   8.331  19.071  0.00  0.00    -0.275 OA
ATOM      5  N   UNL     1      15.377   6.377  20.050  0.00  0.00    -0.311 N 
ATOM     16  C   UNL     1      14.492   7.431  19.903  0.00  0.00    +0.218 C 
ATOM     30  H   UNL     1      15.210   5.684  20.774  0.00  0.00    +0.149 HD
BRANCH   5  18
ATOM     18  C   UNL     1      16.544   6.201  19.217  0.00  0.00    +0.139 C 
BRANCH  18  21
ATOM      1  F   UNL     1      21.293   6.214  22.223  0.00  0.00    -0.205 F 
ATOM     21  C   UNL     1      17.813   6.205  20.020  0.00  0.00    -0.030 A 
ATOM     25  C   UNL     1      17.969   7.119  21.055  0.00  0.00    +0.008 A 
ATOM     26  C   UNL     1      18.819   5.294  19.720  0.00  0.00    +0.008 A 
ATOM     27  C   UNL     1      19.148   7.122  21.801  0.00  0.00    +0.038 A 
ATOM     28  C   UNL     1      19.998   5.297  20.466  0.00  0.00    +0.038 A 
ATOM     29  C   UNL     1      20.162   6.212  21.506  0.00  0.00    +0.123 A 
ENDBRANCH  18  21
ENDBRANCH   5  18
ENDBRANCH  10  16
BRANCH   9  15
ATOM     15  C   UNL     1      12.437  11.097  20.547  0.00  0.00    +0.164 C 
BRANCH  15   4
ATOM      4  N   UNL     1      12.320  12.037  21.649  0.00  0.00    -0.250 N 
ATOM      6  N   UNL     1      13.418  12.505  22.252  0.00  0.00    -0.065 NA
ATOM      7  N   UNL     1      13.007  13.328  23.211  0.00  0.00    -0.134 NA
ATOM     17  C   UNL     1      11.182  12.532  22.187  0.00  0.00    +0.134 A 
ATOM     19  C   UNL     1      11.641  13.356  23.185  0.00  0.00    +0.088 A 
BRANCH  19  20
ATOM     20  C   UNL     1      10.877  14.180  24.130  0.00  0.00    +0.008 C 
ATOM     22  C   UNL     1      10.543  13.419  25.464  0.00  0.00    +0.017 C 
ATOM     23  C   UNL     1       9.501  14.660  23.539  0.00  0.00    +0.017 C 
ATOM     24  C   UNL     1      11.575  15.510  24.608  0.00  0.00    +0.017 C 
ENDBRANCH  19  20
ENDBRANCH  15   4
ENDBRANCH   9  15
TORSDOF 6
ENDMDL
MODEL 3
REMARK VINA RESULT:      -7.2     28.665     31.716
REMARK  Name = 11942317
REMARK  9 active torsions:
REMARK  status: ('A' for Active; 'I' for Inactive)
REMARK    1  A    between atoms: N_4  and  C_15
REMARK    2  A    between atoms: N_5  and  C_18
REMARK    3  A    between atoms: C_9  and  C_15
REMARK    4  A    between atoms: C_10  and  C_16
REMARK    5  A    between atoms: C_18  and  C_21
REMARK    6  A    between atoms: C_19  and  C_20
REMARK    7  A    between atoms: C_20  and  C_22
REMARK    8  A    between atoms: C_20  and  C_23
REMARK    9  A    between atoms: C_20  and  C_24
REMARK                            x       y       z     vdW  Elec       q    Type
REMARK                         _______ _______ _______ _____ _____    ______ ____
ROOT
ATOM      3  N   UNL     1     -17.966   3.158  26.327  0.00  0.00    -0.297 NA
ATOM      8  C   UNL     1     -18.080   0.662  27.055  0.00  0.00    +0.005 C 
ATOM      9  C   UNL     1     -17.089   2.333  25.453  0.00  0.00    +0.078 C 
ATOM     10  C   UNL     1     -17.756   1.578  28.251  0.00  0.00    +0.092 C 
ATOM     11  C   UNL     1     -17.020   0.875  25.957  0.00  0.00    +0.025 C 
ATOM     12  C   UNL     1     -19.430   1.135  26.486  0.00  0.00    +0.020 C 
ATOM     13  C   UNL     1     -17.555   3.017  27.745  0.00  0.00    +0.097 C 
ATOM     14  C   UNL     1     -19.353   2.646  26.194  0.00  0.00    +0.085 C 
ENDROOT
BRANCH  10  16
ATOM      2  O   UNL     1     -16.524  -0.046  29.494  0.00  0.00    -0.275 OA
ATOM      5  N   UNL     1     -15.560   2.034  29.090  0.00  0.00    -0.311 N 
ATOM     16  C   UNL     1     -16.560   1.081  29.006  0.00  0.00    +0.218 C 
ATOM     30  H   UNL     1     -15.695   2.939  28.648  0.00  0.00    +0.149 HD
BRANCH   5  18
ATOM     18  C   UNL     1     -14.312   1.813  29.785  0.00  0.00    +0.139 C 
BRANCH  18  21
ATOM      1  F   UNL     1     -14.442   3.841  35.025  0.00  0.00    -0.205 F 
ATOM     21  C   UNL     1     -14.347   2.355  31.185  0.00  0.00    -0.030 A 
ATOM     25  C   UNL     1     -14.032   3.690  31.413  0.00  0.00    +0.008 A 
ATOM     26  C   UNL     1     -14.692   1.517  32.238  0.00  0.00    +0.008 A 
ATOM     27  C   UNL     1     -14.064   4.193  32.714  0.00  0.00    +0.038 A 
ATOM     28  C   UNL     1     -14.724   2.020  33.539  0.00  0.00    +0.038 A 
ATOM     29  C   UNL     1     -14.410   3.358  33.777  0.00  0.00    +0.123 A 
ENDBRANCH  18  21
ENDBRANCH   5  18
ENDBRANCH  10  16
BRANCH   9  15
ATOM     15  C   UNL     1     -15.697   2.944  25.282  0.00  0.00    +0.164 C 
BRANCH  15   4
ATOM      4  N   UNL     1     -15.599   3.735  24.067  0.00  0.00    -0.250 N 
ATOM      6  N   UNL     1     -16.272   3.371  22.971  0.00  0.00    -0.065 NA
ATOM      7  N   UNL     1     -15.989   4.267  22.032  0.00  0.00    -0.134 NA
ATOM     17  C   UNL     1     -14.871   4.860  23.878  0.00  0.00    +0.134 A 
ATOM     19  C   UNL     1     -15.133   5.185  22.571  0.00  0.00    +0.088 A 
BRANCH  19  20
ATOM     20  C   UNL     1     -14.628   6.315  21.780  0.00  0.00    +0.008 C 
ATOM     22  C   UNL     1     -13.108   6.163  21.409  0.00  0.00    +0.017 C 
ATOM     23  C   UNL     1     -14.765   7.689  22.530  0.00  0.00    +0.017 C 
ATOM     24  C   UNL     1     -15.340   6.560  20.395  0.00  0.00    +0.017 C 
ENDBRANCH  19  20
ENDBRANCH  15   4
ENDBRANCH   9  15
TORSDOF 6
ENDMDL
MODEL 4
REMARK VINA RESULT:      -7.0     27.517     29.370
REMARK  Name = 11942317
REMARK  9 active torsions:
REMARK  status: ('A' for Active; 'I' for Inactive)
REMARK    1  A    between atoms: N_4  and  C_15
REMARK    2  A    between atoms: N_5  and  C_18
REMARK    3  A    between atoms: C_9  and  C_15
REMARK    4  A    between atoms: C_10  and  C_16
REMARK    5  A    between atoms: C_18  and  C_21
REMARK    6  A    between atoms: C_19  and  C_20
REMARK    7  A    between atoms: C_20  and  C_22
REMARK    8  A    between atoms: C_20  and  C_23
REMARK    9  A    between atoms: C_20  and  C_24
REMARK                            x       y       z     vdW  Elec       q    Type
REMARK                         _______ _______ _______ _____ _____    ______ ____
ROOT
ATOM      3  N   UNL     1      -5.615 -12.273  16.677  0.00  0.00    -0.297 NA
ATOM      8  C   UNL     1      -5.928 -10.975  18.910  0.00  0.00    +0.005 C 
ATOM      9  C   UNL     1      -5.654 -10.810  16.412  0.00  0.00    +0.078 C 
ATOM     10  C   UNL     1      -7.000 -12.070  18.746  0.00  0.00    +0.092 C 
ATOM     11  C   UNL     1      -5.991 -10.024  17.699  0.00  0.00    +0.025 C 
ATOM     12  C   UNL     1      -4.561 -11.681  18.867  0.00  0.00    +0.020 C 
ATOM     13  C   UNL     1      -6.862 -12.707  17.352  0.00  0.00    +0.097 C 
ATOM     14  C   UNL     1      -4.477 -12.540  17.591  0.00  0.00    +0.085 C 
ENDROOT
BRANCH  10  16
ATOM      2  O   UNL     1      -8.719 -11.065  20.062  0.00  0.00    -0.275 OA
ATOM      5  N   UNL     1      -9.171 -11.613  17.846  0.00  0.00    -0.311 N 
ATOM     16  C   UNL     1      -8.375 -11.520  18.974  0.00  0.00    +0.218 C 
ATOM     30  H   UNL     1      -8.783 -12.010  16.994  0.00  0.00    +0.149 HD
BRANCH   5  18
ATOM     18  C   UNL     1     -10.547 -11.175  17.809  0.00  0.00    +0.139 C 
BRANCH  18  21
ATOM      1  F   UNL     1     -11.009  -5.850  16.070  0.00  0.00    -0.205 F 
ATOM     21  C   UNL     1     -10.670  -9.752  17.345  0.00  0.00    -0.030 A 
ATOM     25  C   UNL     1      -9.523  -8.997  17.129  0.00  0.00    +0.008 A 
ATOM     26  C   UNL     1     -11.930  -9.204  17.136  0.00  0.00    +0.008 A 
ATOM     27  C   UNL     1      -9.638  -7.675  16.698  0.00  0.00    +0.038 A 
ATOM     28  C   UNL     1     -12.045  -7.882  16.704  0.00  0.00    +0.038 A 
ATOM     29  C   UNL     1     -10.899  -7.118  16.485  0.00  0.00    +0.123 A 
ENDBRANCH  18  21
ENDBRANCH   5  18
ENDBRANCH  10  16
BRANCH   9  15
ATOM     15  C   UNL     1      -6.598 -10.451  15.263  0.00  0.00    +0.164 C 
BRANCH  15   4
ATOM      4  N   UNL     1      -5.879 -10.248  14.016  0.00  0.00    -0.250 N 
ATOM      6  N   UNL     1      -6.415  -9.502  13.044  0.00  0.00    -0.065 NA
ATOM      7  N   UNL     1      -5.545  -9.499  12.040  0.00  0.00    -0.134 NA
ATOM     17  C   UNL     1      -4.665 -10.743  13.680  0.00  0.00    +0.134 A 
ATOM     19  C   UNL     1      -4.469 -10.254  12.412  0.00  0.00    +0.088 A 
BRANCH  19  20
ATOM     20  C   UNL     1      -3.325 -10.449  11.513  0.00  0.00    +0.008 C 
ATOM     22  C   UNL     1      -3.389 -11.815  10.738  0.00  0.00    +0.017 C 
ATOM     23  C   UNL     1      -1.948 -10.435  12.272  0.00  0.00    +0.017 C 
ATOM     24  C   UNL     1      -3.148  -9.369  10.377  0.00  0.00    +0.017 C 
ENDBRANCH  19  20
ENDBRANCH  15   4
ENDBRANCH   9  15
TORSDOF 6
ENDMDL
MODEL 5
REMARK VINA RESULT:      -6.9     26.696     30.013
REMARK  Name = 11942317
REMARK  9 active torsions:
REMARK  status: ('A' for Active; 'I' for Inactive)
REMARK    1  A    between atoms: N_4  and  C_15
REMARK    2  A    between atoms: N_5  and  C_18
REMARK    3  A    between atoms: C_9  and  C_15
REMARK    4  A    between atoms: C_10  and  C_16
REMARK    5  A    between atoms: C_18  and  C_21
REMARK    6  A    between atoms: C_19  and  C_20
REMARK    7  A    between atoms: C_20  and  C_22
REMARK    8  A    between atoms: C_20  and  C_23
REMARK    9  A    between atoms: C_20  and  C_24
REMARK                            x       y       z     vdW  Elec       q    Type
REMARK                         _______ _______ _______ _____ _____    ______ ____
ROOT
ATOM      3  N   UNL     1     -16.480   4.674  21.888  0.00  0.00    -0.297 NA
ATOM      8  C   UNL     1     -16.563   7.265  22.121  0.00  0.00    +0.005 C 
ATOM      9  C   UNL     1     -16.427   5.057  23.325  0.00  0.00    +0.078 C 
ATOM     10  C   UNL     1     -15.457   6.828  21.141  0.00  0.00    +0.092 C 
ATOM     11  C   UNL     1     -16.321   6.589  23.486  0.00  0.00    +0.025 C 
ATOM     12  C   UNL     1     -17.890   6.716  21.567  0.00  0.00    +0.020 C 
ATOM     13  C   UNL     1     -15.352   5.292  21.150  0.00  0.00    +0.097 C 
ATOM     14  C   UNL     1     -17.747   5.202  21.323  0.00  0.00    +0.085 C 
ENDROOT
BRANCH  10  16
ATOM      2  O   UNL     1     -14.083   8.463  22.207  0.00  0.00    -0.275 OA
ATOM      5  N   UNL     1     -13.080   6.854  20.856  0.00  0.00    -0.311 N 
ATOM     16  C   UNL     1     -14.149   7.478  21.476  0.00  0.00    +0.218 C 
ATOM     30  H   UNL     1     -13.249   6.043  20.268  0.00  0.00    +0.149 HD
BRANCH   5  18
ATOM     18  C   UNL     1     -11.713   7.301  20.997  0.00  0.00    +0.139 C 
BRANCH  18  21
ATOM      1  F   UNL     1      -9.818   9.767  16.315  0.00  0.00    -0.205 F 
ATOM     21  C   UNL     1     -11.207   7.960  19.746  0.00  0.00    -0.030 A 
ATOM     25  C   UNL     1     -10.611   9.214  19.822  0.00  0.00    +0.008 A 
ATOM     26  C   UNL     1     -11.340   7.310  18.525  0.00  0.00    +0.008 A 
ATOM     27  C   UNL     1     -10.141   9.825  18.660  0.00  0.00    +0.038 A 
ATOM     28  C   UNL     1     -10.870   7.922  17.363  0.00  0.00    +0.038 A 
ATOM     29  C   UNL     1     -10.270   9.180  17.430  0.00  0.00    +0.123 A 
ENDBRANCH  18  21
ENDBRANCH   5  18
ENDBRANCH  10  16
BRANCH   9  15
ATOM     15  C   UNL     1     -15.316   4.327  24.081  0.00  0.00    +0.164 C 
BRANCH  15   4
ATOM      4  N   UNL     1     -15.846   3.299  24.962  0.00  0.00    -0.250 N 
ATOM      6  N   UNL     1     -16.078   2.068  24.494  0.00  0.00    -0.065 NA
ATOM      7  N   UNL     1     -16.558   1.357  25.510  0.00  0.00    -0.134 NA
ATOM     17  C   UNL     1     -16.161   3.424  26.272  0.00  0.00    +0.134 A 
ATOM     19  C   UNL     1     -16.615   2.172  26.604  0.00  0.00    +0.088 A 
BRANCH  19  20
ATOM     20  C   UNL     1     -17.106   1.680  27.898  0.00  0.00    +0.008 C 
ATOM     22  C   UNL     1     -15.999   0.923  28.717  0.00  0.00    +0.017 C 
ATOM     23  C   UNL     1     -18.308   0.678  27.747  0.00  0.00    +0.017 C 
ATOM     24  C   UNL     1     -17.642   2.776  28.896  0.00  0.00    +0.017 C 
ENDBRANCH  19  20
ENDBRANCH  15   4
ENDBRANCH   9  15
TORSDOF 6
ENDMDL
MODEL 6
REMARK VINA RESULT:      -6.8     28.003     31.162
REMARK  Name = 11942317
REMARK  9 active torsions:
REMARK  status: ('A' for Active; 'I' for Inactive)
REMARK    1  A    between atoms: N_4  and  C_15
REMARK    2  A    between atoms: N_5  and  C_18
REMARK    3  A    between atoms: C_9  and  C_15
REMARK    4  A    between atoms: C_10  and  C_16
REMARK    5  A    between atoms: C_18  and  C_21
REMARK    6  A    between atoms: C_19  and  C_20
REMARK    7  A    between atoms: C_20  and  C_22
REMARK    8  A    between atoms: C_20  and  C_23
REMARK    9  A    between atoms: C_20  and  C_24
REMARK                            x       y       z     vdW  Elec       q    Type
REMARK                         _______ _______ _______ _____ _____    ______ ____
ROOT
ATOM      3  N   UNL     1     -18.184   3.183  24.591  0.00  0.00    -0.297 NA
ATOM      8  C   UNL     1     -16.426   2.262  26.274  0.00  0.00    +0.005 C 
ATOM      9  C   UNL     1     -16.820   3.620  24.190  0.00  0.00    +0.078 C 
ATOM     10  C   UNL     1     -17.561   3.006  27.004  0.00  0.00    +0.092 C 
ATOM     11  C   UNL     1     -15.775   3.216  25.253  0.00  0.00    +0.025 C 
ATOM     12  C   UNL     1     -17.083   1.120  25.479  0.00  0.00    +0.020 C 
ATOM     13  C   UNL     1     -18.491   3.654  25.964  0.00  0.00    +0.097 C 
ATOM     14  C   UNL     1     -18.204   1.699  24.596  0.00  0.00    +0.085 C 
ENDROOT
BRANCH  10  16
ATOM      2  O   UNL     1     -17.313   5.205  27.900  0.00  0.00    -0.275 OA
ATOM      5  N   UNL     1     -16.149   3.448  28.888  0.00  0.00    -0.311 N 
ATOM     16  C   UNL     1     -17.014   4.016  27.968  0.00  0.00    +0.218 C 
ATOM     30  H   UNL     1     -15.971   2.448  28.853  0.00  0.00    +0.149 HD
BRANCH   5  18
ATOM     18  C   UNL     1     -15.471   4.210  29.911  0.00  0.00    +0.139 C 
BRANCH  18  21
ATOM      1  F   UNL     1     -14.349   1.091  34.450  0.00  0.00    -0.205 F 
ATOM     21  C   UNL     1     -15.171   3.377  31.124  0.00  0.00    -0.030 A 
ATOM     25  C   UNL     1     -15.111   3.981  32.375  0.00  0.00    +0.008 A 
ATOM     26  C   UNL     1     -14.956   2.011  30.983  0.00  0.00    +0.008 A 
ATOM     27  C   UNL     1     -14.832   3.206  33.501  0.00  0.00    +0.038 A 
ATOM     28  C   UNL     1     -14.677   1.237  32.110  0.00  0.00    +0.038 A 
ATOM     29  C   UNL     1     -14.615   1.835  33.369  0.00  0.00    +0.123 A 
ENDBRANCH  18  21
ENDBRANCH   5  18
ENDBRANCH  10  16
BRANCH   9  15
ATOM     15  C   UNL     1     -16.757   5.115  23.869  0.00  0.00    +0.164 C 
BRANCH  15   4
ATOM      4  N   UNL     1     -15.686   5.423  22.936  0.00  0.00    -0.250 N 
ATOM      6  N   UNL     1     -15.090   4.443  22.250  0.00  0.00    -0.065 NA
ATOM      7  N   UNL     1     -14.161   5.016  21.492  0.00  0.00    -0.134 NA
ATOM     17  C   UNL     1     -15.173   6.642  22.651  0.00  0.00    +0.134 A 
ATOM     19  C   UNL     1     -14.198   6.362  21.726  0.00  0.00    +0.088 A 
BRANCH  19  20
ATOM     20  C   UNL     1     -13.286   7.282  21.036  0.00  0.00    +0.008 C 
ATOM     22  C   UNL     1     -11.823   6.718  20.930  0.00  0.00    +0.017 C 
ATOM     23  C   UNL     1     -13.172   8.675  21.755  0.00  0.00    +0.017 C 
ATOM     24  C   UNL     1     -13.667   7.647  19.550  0.00  0.00    +0.017 C 
ENDBRANCH  19  20
ENDBRANCH  15   4
ENDBRANCH   9  15
TORSDOF 6
ENDMDL
MODEL 7
REMARK VINA RESULT:      -6.8      2.024      2.559
REMARK  Name = 11942317
REMARK  9 active torsions:
REMARK  status: ('A' for Active; 'I' for Inactive)
REMARK    1  A    between atoms: N_4  and  C_15
REMARK    2  A    between atoms: N_5  and  C_18
REMARK    3  A    between atoms: C_9  and  C_15
REMARK    4  A    between atoms: C_10  and  C_16
REMARK    5  A    between atoms: C_18  and  C_21
REMARK    6  A    between atoms: C_19  and  C_20
REMARK    7  A    between atoms: C_20  and  C_22
REMARK    8  A    between atoms: C_20  and  C_23
REMARK    9  A    between atoms: C_20  and  C_24
REMARK                            x       y       z     vdW  Elec       q    Type
REMARK                         _______ _______ _______ _____ _____    ______ ____
ROOT
ATOM      3  N   UNL     1      13.046   7.490  19.658  0.00  0.00    -0.297 NA
ATOM      8  C   UNL     1      12.076   8.350  21.915  0.00  0.00    +0.005 C 
ATOM      9  C   UNL     1      14.141   7.659  20.649  0.00  0.00    +0.078 C 
ATOM     10  C   UNL     1      11.620   9.235  20.738  0.00  0.00    +0.092 C 
ATOM     11  C   UNL     1      13.617   8.312  21.947  0.00  0.00    +0.025 C 
ATOM     12  C   UNL     1      11.589   6.922  21.611  0.00  0.00    +0.020 C 
ATOM     13  C   UNL     1      12.334   8.776  19.454  0.00  0.00    +0.097 C 
ATOM     14  C   UNL     1      12.079   6.509  20.210  0.00  0.00    +0.085 C 
ENDROOT
BRANCH  10  16
ATOM      2  O   UNL     1      12.714  11.332  20.412  0.00  0.00    -0.275 OA
ATOM      5  N   UNL     1      11.060  11.164  22.041  0.00  0.00    -0.311 N 
ATOM     16  C   UNL     1      11.867  10.685  21.024  0.00  0.00    +0.218 C 
ATOM     30  H   UNL     1      10.390  10.539  22.482  0.00  0.00    +0.149 HD
BRANCH   5  18
ATOM     18  C   UNL     1      11.117  12.525  22.524  0.00  0.00    +0.139 C 
BRANCH  18  21
ATOM      1  F   UNL     1      15.325  13.282  26.173  0.00  0.00    -0.205 F 
ATOM     21  C   UNL     1      12.241  12.727  23.499  0.00  0.00    -0.030 A 
ATOM     25  C   UNL     1      12.475  11.776  24.486  0.00  0.00    +0.008 A 
ATOM     26  C   UNL     1      13.036  13.863  23.405  0.00  0.00    +0.008 A 
ATOM     27  C   UNL     1      13.519  11.965  25.391  0.00  0.00    +0.038 A 
ATOM     28  C   UNL     1      14.081  14.051  24.311  0.00  0.00    +0.038 A 
ATOM     29  C   UNL     1      14.322  13.102  25.304  0.00  0.00    +0.123 A 
ENDBRANCH  18  21
ENDBRANCH   5  18
ENDBRANCH  10  16
BRANCH   9  15
ATOM     15  C   UNL     1      15.337   8.421  20.072  0.00  0.00    +0.164 C 
BRANCH  15   4
ATOM      4  N   UNL     1      16.560   7.638  20.141  0.00  0.00    -0.250 N 
ATOM      6  N   UNL     1      16.688   6.526  19.410  0.00  0.00    -0.065 NA
ATOM      7  N   UNL     1      17.891   6.028  19.679  0.00  0.00    -0.134 NA
ATOM     17  C   UNL     1      17.655   7.893  20.894  0.00  0.00    +0.134 A 
ATOM     19  C   UNL     1      18.495   6.853  20.586  0.00  0.00    +0.088 A 
BRANCH  19  20
ATOM     20  C   UNL     1      19.846   6.574  21.089  0.00  0.00    +0.008 C 
ATOM     22  C   UNL     1      20.409   5.197  20.582  0.00  0.00    +0.017 C 
ATOM     23  C   UNL     1      19.908   6.526  22.659  0.00  0.00    +0.017 C 
ATOM     24  C   UNL     1      20.960   7.617  20.692  0.00  0.00    +0.017 C 
ENDBRANCH  19  20
ENDBRANCH  15   4
ENDBRANCH   9  15
TORSDOF 6
ENDMDL
MODEL 8
REMARK VINA RESULT:      -6.7     15.498     18.667
REMARK  Name = 11942317
REMARK  9 active torsions:
REMARK  status: ('A' for Active; 'I' for Inactive)
REMARK    1  A    between atoms: N_4  and  C_15
REMARK    2  A    between atoms: N_5  and  C_18
REMARK    3  A    between atoms: C_9  and  C_15
REMARK    4  A    between atoms: C_10  and  C_16
REMARK    5  A    between atoms: C_18  and  C_21
REMARK    6  A    between atoms: C_19  and  C_20
REMARK    7  A    between atoms: C_20  and  C_22
REMARK    8  A    between atoms: C_20  and  C_23
REMARK    9  A    between atoms: C_20  and  C_24
REMARK                            x       y       z     vdW  Elec       q    Type
REMARK                         _______ _______ _______ _____ _____    ______ ____
ROOT
ATOM      3  N   UNL     1       9.445   5.219   5.816  0.00  0.00    -0.297 NA
ATOM      8  C   UNL     1      10.295   7.152   7.337  0.00  0.00    +0.005 C 
ATOM      9  C   UNL     1      10.676   5.818   5.235  0.00  0.00    +0.078 C 
ATOM     10  C   UNL     1       8.807   7.335   6.981  0.00  0.00    +0.092 C 
ATOM     11  C   UNL     1      11.115   7.064   6.035  0.00  0.00    +0.025 C 
ATOM     12  C   UNL     1      10.418   5.793   8.048  0.00  0.00    +0.020 C 
ATOM     13  C   UNL     1       8.392   6.253   5.968  0.00  0.00    +0.097 C 
ATOM     14  C   UNL     1       9.783   4.702   7.166  0.00  0.00    +0.085 C 
ENDROOT
BRANCH  10  16
ATOM      2  O   UNL     1       9.061   9.708   6.964  0.00  0.00    -0.275 OA
ATOM      5  N   UNL     1       7.646   8.715   5.406  0.00  0.00    -0.311 N 
ATOM     16  C   UNL     1       8.539   8.716   6.463  0.00  0.00    +0.218 C 
ATOM     30  H   UNL     1       7.272   7.832   5.070  0.00  0.00    +0.149 HD
BRANCH   5  18
ATOM     18  C   UNL     1       7.204   9.920   4.742  0.00  0.00    +0.139 C 
BRANCH  18  21
ATOM      1  F   UNL     1       6.806   9.227  -0.822  0.00  0.00    -0.205 F 
ATOM     21  C   UNL     1       7.099   9.735   3.255  0.00  0.00    -0.030 A 
ATOM     25  C   UNL     1       8.206   9.302   2.535  0.00  0.00    +0.008 A 
ATOM     26  C   UNL     1       5.894   9.998   2.614  0.00  0.00    +0.008 A 
ATOM     27  C   UNL     1       8.107   9.131   1.155  0.00  0.00    +0.038 A 
ATOM     28  C   UNL     1       5.795   9.826   1.233  0.00  0.00    +0.038 A 
ATOM     29  C   UNL     1       6.902   9.393   0.504  0.00  0.00    +0.123 A 
ENDBRANCH  18  21
ENDBRANCH   5  18
ENDBRANCH  10  16
BRANCH   9  15
ATOM     15  C   UNL     1      10.528   6.122   3.743  0.00  0.00    +0.164 C 
BRANCH  15   4
ATOM      4  N   UNL     1      11.432   5.321   2.936  0.00  0.00    -0.250 N 
ATOM      6  N   UNL     1      11.276   3.995   2.867  0.00  0.00    -0.065 NA
ATOM      7  N   UNL     1      12.237   3.537   2.072  0.00  0.00    -0.134 NA
ATOM     17  C   UNL     1      12.480   5.758   2.200  0.00  0.00    +0.134 A 
ATOM     19  C   UNL     1      12.983   4.603   1.655  0.00  0.00    +0.088 A 
BRANCH  19  20
ATOM     20  C   UNL     1      14.131   4.427   0.757  0.00  0.00    +0.008 C 
ATOM     22  C   UNL     1      15.268   3.547   1.392  0.00  0.00    +0.017 C 
ATOM     23  C   UNL     1      14.801   5.792   0.355  0.00  0.00    +0.017 C 
ATOM     24  C   UNL     1      13.828   3.728  -0.623  0.00  0.00    +0.017 C 
ENDBRANCH  19  20
ENDBRANCH  15   4
ENDBRANCH   9  15
TORSDOF 6
ENDMDL
MODEL 9
REMARK VINA RESULT:      -6.7      3.543      5.264
REMARK  Name = 11942317
REMARK  9 active torsions:
REMARK  status: ('A' for Active; 'I' for Inactive)
REMARK    1  A    between atoms: N_4  and  C_15
REMARK    2  A    between atoms: N_5  and  C_18
REMARK    3  A    between atoms: C_9  and  C_15
REMARK    4  A    between atoms: C_10  and  C_16
REMARK    5  A    between atoms: C_18  and  C_21
REMARK    6  A    between atoms: C_19  and  C_20
REMARK    7  A    between atoms: C_20  and  C_22
REMARK    8  A    between atoms: C_20  and  C_23
REMARK    9  A    between atoms: C_20  and  C_24
REMARK                            x       y       z     vdW  Elec       q    Type
REMARK                         _______ _______ _______ _____ _____    ______ ____
ROOT
ATOM      3  N   UNL     1      11.824   7.717  19.313  0.00  0.00    -0.297 NA
ATOM      8  C   UNL     1      13.907   8.587  20.607  0.00  0.00    +0.005 C 
ATOM      9  C   UNL     1      12.848   8.209  18.353  0.00  0.00    +0.078 C 
ATOM     10  C   UNL     1      12.611   9.233  21.136  0.00  0.00    +0.092 C 
ATOM     11  C   UNL     1      14.030   8.871  19.097  0.00  0.00    +0.025 C 
ATOM     12  C   UNL     1      13.745   7.066  20.776  0.00  0.00    +0.020 C 
ATOM     13  C   UNL     1      11.432   8.801  20.247  0.00  0.00    +0.097 C 
ATOM     14  C   UNL     1      12.432   6.620  20.106  0.00  0.00    +0.085 C 
ENDROOT
BRANCH  10  16
ATOM      2  O   UNL     1      13.832  11.284  21.166  0.00  0.00    -0.275 OA
ATOM      5  N   UNL     1      11.511  11.351  21.336  0.00  0.00    -0.311 N 
ATOM     16  C   UNL     1      12.739  10.725  21.205  0.00  0.00    +0.218 C 
ATOM     30  H   UNL     1      10.665  10.788  21.358  0.00  0.00    +0.149 HD
BRANCH   5  18
ATOM     18  C   UNL     1      11.361  12.783  21.446  0.00  0.00    +0.139 C 
BRANCH  18  21
ATOM      1  F   UNL     1      10.611  14.407  26.775  0.00  0.00    -0.205 F 
ATOM     21  C   UNL     1      11.161  13.218  22.870  0.00  0.00    -0.030 A 
ATOM     25  C   UNL     1      11.422  14.535  23.231  0.00  0.00    +0.008 A 
ATOM     26  C   UNL     1      10.718  12.298  23.813  0.00  0.00    +0.008 A 
ATOM     27  C   UNL     1      11.236  14.937  24.554  0.00  0.00    +0.038 A 
ATOM     28  C   UNL     1      10.532  12.701  25.136  0.00  0.00    +0.038 A 
ATOM     29  C   UNL     1      10.791  14.020  25.506  0.00  0.00    +0.123 A 
ENDBRANCH  18  21
ENDBRANCH   5  18
ENDBRANCH  10  16
BRANCH   9  15
ATOM     15  C   UNL     1      12.254   9.136  17.291  0.00  0.00    +0.164 C 
BRANCH  15   4
ATOM      4  N   UNL     1      13.258   9.583  16.340  0.00  0.00    -0.250 N 
ATOM      6  N   UNL     1      13.804   8.715  15.482  0.00  0.00    -0.065 NA
ATOM      7  N   UNL     1      14.679   9.398  14.752  0.00  0.00    -0.134 NA
ATOM     17  C   UNL     1      13.752  10.834  16.196  0.00  0.00    +0.134 A 
ATOM     19  C   UNL     1      14.660  10.696  15.176  0.00  0.00    +0.088 A 
BRANCH  19  20
ATOM     20  C   UNL     1      15.524  11.713  14.562  0.00  0.00    +0.008 C 
ATOM     22  C   UNL     1      15.066  13.179  14.898  0.00  0.00    +0.017 C 
ATOM     23  C   UNL     1      15.561  11.609  12.994  0.00  0.00    +0.017 C 
ATOM     24  C   UNL     1      17.042  11.676  14.986  0.00  0.00    +0.017 C 
ENDBRANCH  19  20
ENDBRANCH  15   4
ENDBRANCH   9  15
TORSDOF 6
ENDMDL
MODEL 10
REMARK VINA RESULT:      -6.7     15.597     19.145
REMARK  Name = 11942317
REMARK  9 active torsions:
REMARK  status: ('A' for Active; 'I' for Inactive)
REMARK    1  A    between atoms: N_4  and  C_15
REMARK    2  A    between atoms: N_5  and  C_18
REMARK    3  A    between atoms: C_9  and  C_15
REMARK    4  A    between atoms: C_10  and  C_16
REMARK    5  A    between atoms: C_18  and  C_21
REMARK    6  A    between atoms: C_19  and  C_20
REMARK    7  A    between atoms: C_20  and  C_22
REMARK    8  A    between atoms: C_20  and  C_23
REMARK    9  A    between atoms: C_20  and  C_24
REMARK                            x       y       z     vdW  Elec       q    Type
REMARK                         _______ _______ _______ _____ _____    ______ ____
ROOT
ATOM      3  N   UNL     1       9.898   6.834   3.693  0.00  0.00    -0.297 NA
ATOM      8  C   UNL     1       9.578   5.702   6.015  0.00  0.00    +0.005 C 
ATOM      9  C   UNL     1      10.219   5.385   3.600  0.00  0.00    +0.078 C 
ATOM     10  C   UNL     1      10.485   6.943   6.119  0.00  0.00    +0.092 C 
ATOM     11  C   UNL     1      10.186   4.720   4.994  0.00  0.00    +0.025 C 
ATOM     12  C   UNL     1       8.232   6.182   5.443  0.00  0.00    +0.020 C 
ATOM     13  C   UNL     1      10.761   7.488   4.707  0.00  0.00    +0.097 C 
ATOM     14  C   UNL     1       8.487   6.960   4.138  0.00  0.00    +0.085 C 
ENDROOT
BRANCH  10  16
ATOM      2  O   UNL     1      11.752   6.011   7.915  0.00  0.00    -0.275 OA
ATOM      5  N   UNL     1      12.872   7.121   6.203  0.00  0.00    -0.311 N 
ATOM     16  C   UNL     1      11.754   6.626   6.852  0.00  0.00    +0.218 C 
ATOM     30  H   UNL     1      12.758   7.620   5.325  0.00  0.00    +0.149 HD
BRANCH   5  18
ATOM     18  C   UNL     1      14.215   6.971   6.714  0.00  0.00    +0.139 C 
BRANCH  18  21
ATOM      1  F   UNL     1      18.047   9.128   3.213  0.00  0.00    -0.205 F 
ATOM     21  C   UNL     1      15.239   7.547   5.778  0.00  0.00    -0.030 A 
ATOM     25  C   UNL     1      15.213   7.200   4.432  0.00  0.00    +0.008 A 
ATOM     26  C   UNL     1      16.202   8.421   6.268  0.00  0.00    +0.008 A 
ATOM     27  C   UNL     1      16.164   7.736   3.564  0.00  0.00    +0.038 A 
ATOM     28  C   UNL     1      17.153   8.956   5.399  0.00  0.00    +0.038 A 
ATOM     29  C   UNL     1      17.134   8.614   4.047  0.00  0.00    +0.123 A 
ENDBRANCH  18  21
ENDBRANCH   5  18
ENDBRANCH  10  16
BRANCH   9  15
ATOM     15  C   UNL     1      11.544   5.127   2.879  0.00  0.00    +0.164 C 
BRANCH  15   4
ATOM      4  N   UNL     1      11.337   4.693   1.507  0.00  0.00    -0.250 N 
ATOM      6  N   UNL     1      10.107   4.395   1.075  0.00  0.00    -0.065 NA
ATOM      7  N   UNL     1      10.226   4.031  -0.198  0.00  0.00    -0.134 NA
ATOM     17  C   UNL     1      12.276   4.535   0.546  0.00  0.00    +0.134 A 
ATOM     19  C   UNL     1      11.548   4.111  -0.536  0.00  0.00    +0.088 A 
BRANCH  19  20
ATOM     20  C   UNL     1      12.011   3.770  -1.888  0.00  0.00    +0.008 C 
ATOM     22  C   UNL     1      11.302   4.620  -3.003  0.00  0.00    +0.017 C 
ATOM     23  C   UNL     1      11.757   2.262  -2.252  0.00  0.00    +0.017 C 
ATOM     24  C   UNL     1      13.549   3.978  -2.163  0.00  0.00    +0.017 C 
ENDBRANCH  19  20
ENDBRANCH  15   4
ENDBRANCH   9  15
TORSDOF 6
ENDMDL
