REMARK  Name = 38027937
REMARK  12 active torsions:
REMARK  status: ('A' for Active; 'I' for Inactive)
REMARK    1  A    between atoms: O_3  and  C_30
REMARK    2  A    between atoms: O_3  and  C_33
REMARK    3  A    between atoms: N_5  and  C_16
REMARK    4  A    between atoms: N_6  and  C_26
REMARK    5  A    between atoms: N_7  and  C_27
REMARK    6  A    between atoms: C_8  and  C_12
REMARK    7  A    between atoms: C_9  and  C_16
REMARK    8  A    between atoms: C_11  and  C_15
REMARK    9  A    between atoms: C_12  and  C_17
REMARK   10  A    between atoms: C_12  and  C_18
REMARK   11  A    between atoms: C_13  and  C_19
REMARK   12  A    between atoms: C_15  and  C_20
REMARK                            x       y       z     vdW  Elec       q    Type
REMARK                         _______ _______ _______ _____ _____    ______ ____
ROOT
ATOM      8  C   UNL     1       2.501   1.762   0.732  0.00  0.00    +0.000 C 
ATOM      9  C   UNL     1       2.570   2.926  -0.289  0.00  0.00    +0.032 C 
ATOM     10  C   UNL     1       3.563   0.701   0.407  0.00  0.00    +0.012 C 
ATOM     11  C   UNL     1       3.392   0.119  -1.008  0.00  0.00    +0.023 C 
ATOM     13  C   UNL     1       3.184   1.207  -2.043  0.00  0.00    -0.073 C 
ATOM     14  C   UNL     1       2.830   2.458  -1.702  0.00  0.00    -0.022 C 
ATOM     19  C   UNL     1       3.438   0.834  -3.477  0.00  0.00    +0.039 C 
ENDROOT
BRANCH   8  12
ATOM     12  C   UNL     1       2.683   2.256   2.170  0.00  0.00    -0.013 C 
ATOM     17  C   UNL     1       2.040   1.283   3.153  0.00  0.00    +0.007 C 
ATOM     18  C   UNL     1       4.164   2.443   2.485  0.00  0.00    +0.007 C 
ENDBRANCH   8  12
BRANCH  11  15
ATOM     15  C   UNL     1       2.252  -0.904  -1.051  0.00  0.00    +0.103 C 
BRANCH  15  20
ATOM      1  O   UNL     1       3.833  -2.275   0.061  0.00  0.00    -0.276 OA
ATOM      4  N   UNL     1       1.751  -3.218  -0.350  0.00  0.00    -0.299 N 
ATOM      6  N   UNL     1      -0.299  -5.044   0.469  0.00  0.00    -0.302 NA
ATOM     20  C   UNL     1       2.691  -2.190  -0.397  0.00  0.00    +0.216 C 
ATOM     21  C   UNL     1       2.098  -4.495   0.272  0.00  0.00    +0.123 C 
ATOM     22  C   UNL     1       0.437  -3.196  -0.999  0.00  0.00    +0.123 C 
ATOM     23  C   UNL     1       0.980  -4.987   1.191  0.00  0.00    +0.103 C 
ATOM     24  C   UNL     1      -0.651  -3.718  -0.059  0.00  0.00    +0.103 C 
ATOM     26  C   UNL     1      -1.359  -5.547   1.342  0.00  0.00    +0.105 C 
ENDBRANCH  15  20
ENDBRANCH  11  15
BRANCH   9  16
ATOM     16  C   UNL     1       1.288   3.766  -0.257  0.00  0.00    +0.113 C 
BRANCH  16   5
ATOM      2  O   UNL     1      -1.082   3.162   1.234  0.00  0.00    -0.253 OA
ATOM      5  N   UNL     1       0.168   3.001  -0.706  0.00  0.00    -0.299 N 
ATOM      7  N   UNL     1      -1.897   1.971  -0.618  0.00  0.00    -0.269 N 
ATOM     25  C   UNL     1      -0.967   2.743   0.085  0.00  0.00    +0.304 C 
ATOM     34  H   UNL     1       0.156   2.679  -1.669  0.00  0.00    +0.150 HD
ATOM     35  H   UNL     1      -1.644   1.704  -1.566  0.00  0.00    +0.156 HD
BRANCH   7  27
ATOM     27  C   UNL     1      -3.155   1.507  -0.169  0.00  0.00    +0.038 A 
ATOM     28  C   UNL     1      -3.958   0.741  -1.015  0.00  0.00    +0.069 A 
ATOM     29  C   UNL     1      -3.595   1.817   1.118  0.00  0.00    +0.023 A 
ATOM     30  C   UNL     1      -5.199   0.284  -0.573  0.00  0.00    +0.122 A 
ATOM     31  C   UNL     1      -4.837   1.360   1.559  0.00  0.00    +0.005 A 
ATOM     32  C   UNL     1      -5.639   0.594   0.714  0.00  0.00    +0.046 A 
BRANCH  30   3
ATOM      3  O   UNL     1      -5.982  -0.464  -1.398  0.00  0.00    -0.495 OA
ATOM     33  C   UNL     1      -7.240  -0.898  -0.881  0.00  0.00    +0.277 C 
ENDBRANCH  30   3
ENDBRANCH   7  27
ENDBRANCH  16   5
ENDBRANCH   9  16
TORSDOF 7
