REMARK  Name = 38027148
REMARK  14 active torsions:
REMARK  status: ('A' for Active; 'I' for Inactive)
REMARK    1  A    between atoms: N_3  and  C_13
REMARK    2  A    between atoms: N_4  and  C_20
REMARK    3  A    between atoms: N_4  and  C_21
REMARK    4  A    between atoms: N_5  and  C_22
REMARK    5  A    between atoms: C_6  and  C_10
REMARK    6  A    between atoms: C_7  and  C_13
REMARK    7  A    between atoms: C_9  and  C_14
REMARK    8  A    between atoms: C_10  and  C_15
REMARK    9  A    between atoms: C_10  and  C_16
REMARK   10  A    between atoms: C_11  and  C_17
REMARK   11  A    between atoms: C_14  and  C_18
REMARK   12  A    between atoms: C_20  and  C_23
REMARK   13  A    between atoms: C_22  and  C_24
REMARK   14  A    between atoms: C_22  and  C_25
REMARK                            x       y       z     vdW  Elec       q    Type
REMARK                         _______ _______ _______ _____ _____    ______ ____
ROOT
ATOM      6  C   UNL     1       1.768   1.334  -1.112  0.00  0.00    +0.000 C 
ATOM      7  C   UNL     1       3.197   1.603  -0.580  0.00  0.00    +0.032 C 
ATOM      8  C   UNL     1       0.788   2.389  -0.576  0.00  0.00    +0.012 C 
ATOM      9  C   UNL     1       0.741   2.411   0.964  0.00  0.00    +0.023 C 
ATOM     11  C   UNL     1       2.129   2.406   1.571  0.00  0.00    -0.073 C 
ATOM     12  C   UNL     1       3.217   2.055   0.862  0.00  0.00    -0.022 C 
ATOM     17  C   UNL     1       2.245   2.858   3.000  0.00  0.00    +0.039 C 
ENDROOT
BRANCH   6  10
ATOM     10  C   UNL     1       1.724   1.317  -2.643  0.00  0.00    -0.013 C 
ATOM     15  C   UNL     1       0.537   0.494  -3.132  0.00  0.00    +0.007 C 
ATOM     16  C   UNL     1       1.659   2.739  -3.189  0.00  0.00    +0.007 C 
ENDBRANCH   6  10
BRANCH   7  13
ATOM     13  C   UNL     1       4.089   0.366  -0.739  0.00  0.00    +0.113 C 
BRANCH  13   3
ATOM      2  O   UNL     1       3.221  -2.248  -1.599  0.00  0.00    -0.253 OA
ATOM      3  N   UNL     1       3.626  -0.703   0.089  0.00  0.00    -0.299 N 
ATOM      5  N   UNL     1       2.817  -2.804   0.617  0.00  0.00    -0.297 N 
ATOM     19  C   UNL     1       3.220  -1.949  -0.406  0.00  0.00    +0.300 C 
ATOM     31  H   UNL     1       3.653  -0.582   1.097  0.00  0.00    +0.150 HD
ATOM     32  H   UNL     1       2.777  -2.439   1.563  0.00  0.00    +0.150 HD
BRANCH   5  22
ATOM     22  C   UNL     1       2.351  -4.149   0.374  0.00  0.00    +0.068 C 
ATOM     24  C   UNL     1       0.849  -4.153   0.121  0.00  0.00    +0.027 C 
ATOM     25  C   UNL     1       2.717  -5.060   1.540  0.00  0.00    +0.027 C 
ENDBRANCH   5  22
ENDBRANCH  13   3
ENDBRANCH   7  13
BRANCH   9  14
ATOM     14  C   UNL     1      -0.100   1.250   1.507  0.00  0.00    +0.103 C 
BRANCH  14  18
ATOM      1  O   UNL     1      -2.005   2.500   0.764  0.00  0.00    -0.276 OA
ATOM      4  N   UNL     1      -2.424   0.457   1.780  0.00  0.00    -0.300 N 
ATOM     18  C   UNL     1      -1.587   1.475   1.309  0.00  0.00    +0.216 C 
ATOM     21  C   UNL     1      -1.907  -0.746   2.421  0.00  0.00    +0.132 C 
BRANCH   4  20
ATOM     20  C   UNL     1      -3.879   0.523   1.665  0.00  0.00    +0.142 C 
BRANCH  20  23
ATOM     23  C   UNL     1      -4.373  -0.125   0.404  0.00  0.00    -0.030 A 
ATOM     26  C   UNL     1      -4.509   0.629  -0.762  0.00  0.00    +0.005 A 
ATOM     27  C   UNL     1      -4.696  -1.482   0.398  0.00  0.00    +0.005 A 
ATOM     28  C   UNL     1      -4.968   0.027  -1.933  0.00  0.00    +0.000 A 
ATOM     29  C   UNL     1      -5.155  -2.084  -0.773  0.00  0.00    +0.000 A 
ATOM     30  C   UNL     1      -5.291  -1.330  -1.938  0.00  0.00    +0.000 A 
ENDBRANCH  20  23
ENDBRANCH   4  20
ENDBRANCH  14  18
ENDBRANCH   9  14
TORSDOF 8
