MODEL 1
REMARK VINA RESULT:      -7.1      0.000      0.000
REMARK  Name = 9424612
REMARK  6 active torsions:
REMARK  status: ('A' for Active; 'I' for Inactive)
REMARK    1  A    between atoms: O_4  and  C_29
REMARK    2  A    between atoms: O_4  and  C_34
REMARK    3  A    between atoms: N_5  and  C_14
REMARK    4  A    between atoms: N_8  and  C_21
REMARK    5  A    between atoms: C_25  and  C_26
REMARK    6  A    between atoms: C_27  and  C_28
REMARK                            x       y       z     vdW  Elec       q    Type
REMARK                         _______ _______ _______ _____ _____    ______ ____
ROOT
ATOM      1  O   UNL     1       7.109   9.883   4.935  0.00  0.00    -0.268 OA
ATOM      5  N   UNL     1      11.352   7.677   6.453  0.00  0.00    -0.298 NA
ATOM      6  N   UNL     1       8.479   7.990   5.098  0.00  0.00    -0.310 N 
ATOM      9  C   UNL     1       9.126   6.964   7.356  0.00  0.00    +0.024 C 
ATOM     10  C   UNL     1       9.960   5.968   5.283  0.00  0.00    +0.052 C 
ATOM     11  C   UNL     1       9.200   5.665   6.572  0.00  0.00    +0.017 C 
ATOM     12  C   UNL     1      10.545   7.483   7.664  0.00  0.00    +0.090 C 
ATOM     13  C   UNL     1      11.385   6.460   5.630  0.00  0.00    +0.094 C 
ATOM     15  C   UNL     1       8.289   7.965   6.556  0.00  0.00    +0.130 C 
ATOM     16  C   UNL     1       9.231   7.006   4.432  0.00  0.00    +0.047 A 
ATOM     21  C   UNL     1       9.309   7.022   3.083  0.00  0.00    +0.054 A 
ATOM     22  C   UNL     1       7.793   9.007   4.408  0.00  0.00    +0.252 A 
ATOM     23  C   UNL     1       8.621   8.041   2.326  0.00  0.00    +0.030 A 
ATOM     24  C   UNL     1       7.907   8.994   2.928  0.00  0.00    +0.072 A 
ENDROOT
BRANCH   5  14
ATOM      2  O   UNL     1      16.458  10.598   4.705  0.00  0.00    -0.276 OA
ATOM      7  N   UNL     1      15.335   9.009   5.975  0.00  0.00    -0.302 N 
ATOM     14  C   UNL     1      12.705   8.116   6.791  0.00  0.00    +0.060 C 
ATOM     17  C   UNL     1      13.735   7.146   6.200  0.00  0.00    +0.038 C 
ATOM     18  C   UNL     1      12.945   9.538   6.265  0.00  0.00    +0.038 C 
ATOM     19  C   UNL     1      15.160   7.634   6.460  0.00  0.00    +0.109 C 
ATOM     20  C   UNL     1      14.384   9.979   6.524  0.00  0.00    +0.109 C 
ATOM     25  C   UNL     1      16.331   9.435   5.098  0.00  0.00    +0.212 C 
ATOM     26  C   UNL     1      17.299   8.386   4.613  0.00  0.00    +0.109 C 
ENDBRANCH   5  14
BRANCH  21   8
ATOM      3  O   UNL     1      12.001   7.359   2.195  0.00  0.00    -0.270 OA
ATOM      8  N   UNL     1      10.037   6.121   2.353  0.00  0.00    -0.280 N 
ATOM     27  C   UNL     1      11.345   6.349   1.953  0.00  0.00    +0.252 C 
ATOM     35  H   UNL     1       9.628   5.205   2.226  0.00  0.00    +0.155 HD
BRANCH  27  28
ATOM     28  C   UNL     1      11.981   5.245   1.189  0.00  0.00    +0.079 A 
ATOM     29  C   UNL     1      11.365   4.749   0.058  0.00  0.00    +0.132 A 
ATOM     30  C   UNL     1      13.185   4.748   1.647  0.00  0.00    +0.017 A 
ATOM     31  C   UNL     1      11.979   3.713  -0.645  0.00  0.00    +0.046 A 
ATOM     32  C   UNL     1      13.798   3.711   0.944  0.00  0.00    +0.001 A 
ATOM     33  C   UNL     1      13.195   3.193  -0.202  0.00  0.00    +0.004 A 
BRANCH  29   4
ATOM      4  O   UNL     1      10.176   5.242  -0.390  0.00  0.00    -0.494 OA
ATOM     34  C   UNL     1       9.909   5.121  -1.786  0.00  0.00    +0.277 C 
ENDBRANCH  29   4
ENDBRANCH  27  28
ENDBRANCH  21   8
TORSDOF 4
ENDMDL
MODEL 2
REMARK VINA RESULT:      -7.0     24.884     28.097
REMARK  Name = 9424612
REMARK  6 active torsions:
REMARK  status: ('A' for Active; 'I' for Inactive)
REMARK    1  A    between atoms: O_4  and  C_29
REMARK    2  A    between atoms: O_4  and  C_34
REMARK    3  A    between atoms: N_5  and  C_14
REMARK    4  A    between atoms: N_8  and  C_21
REMARK    5  A    between atoms: C_25  and  C_26
REMARK    6  A    between atoms: C_27  and  C_28
REMARK                            x       y       z     vdW  Elec       q    Type
REMARK                         _______ _______ _______ _____ _____    ______ ____
ROOT
ATOM      1  O   UNL     1      -4.929 -15.133  17.346  0.00  0.00    -0.268 OA
ATOM      5  N   UNL     1      -7.349 -10.742  17.143  0.00  0.00    -0.298 NA
ATOM      6  N   UNL     1      -5.030 -12.888  16.685  0.00  0.00    -0.310 N 
ATOM      9  C   UNL     1      -5.182 -10.971  18.381  0.00  0.00    +0.024 C 
ATOM     10  C   UNL     1      -5.154 -10.477  15.985  0.00  0.00    +0.052 C 
ATOM     11  C   UNL     1      -4.461 -10.170  17.310  0.00  0.00    +0.017 C 
ATOM     12  C   UNL     1      -6.671 -10.572  18.434  0.00  0.00    +0.090 C 
ATOM     13  C   UNL     1      -6.635 -10.041  16.066  0.00  0.00    +0.094 C 
ATOM     15  C   UNL     1      -4.977 -12.460  18.091  0.00  0.00    +0.130 C 
ATOM     16  C   UNL     1      -5.055 -11.959  15.629  0.00  0.00    +0.047 A 
ATOM     21  C   UNL     1      -5.019 -12.398  14.351  0.00  0.00    +0.054 A 
ATOM     22  C   UNL     1      -4.968 -14.276  16.464  0.00  0.00    +0.252 A 
ATOM     23  C   UNL     1      -4.951 -13.811  14.069  0.00  0.00    +0.030 A 
ATOM     24  C   UNL     1      -4.936 -14.719  15.048  0.00  0.00    +0.072 A 
ENDROOT
BRANCH   5  14
ATOM      2  O   UNL     1     -12.118  -8.064  14.361  0.00  0.00    -0.276 OA
ATOM      7  N   UNL     1     -10.911  -8.645  16.259  0.00  0.00    -0.302 N 
ATOM     14  C   UNL     1      -8.741 -10.302  17.221  0.00  0.00    +0.060 C 
ATOM     17  C   UNL     1      -8.801  -8.800  17.527  0.00  0.00    +0.038 C 
ATOM     18  C   UNL     1      -9.466 -10.611  15.905  0.00  0.00    +0.038 C 
ATOM     19  C   UNL     1     -10.244  -8.296  17.520  0.00  0.00    +0.109 C 
ATOM     20  C   UNL     1     -10.895 -10.072  15.930  0.00  0.00    +0.109 C 
ATOM     25  C   UNL     1     -11.564  -7.746  15.417  0.00  0.00    +0.212 C 
ATOM     26  C   UNL     1     -11.574  -6.302  15.847  0.00  0.00    +0.109 C 
ENDBRANCH   5  14
BRANCH  21   8
ATOM      3  O   UNL     1      -2.900 -10.733  13.410  0.00  0.00    -0.270 OA
ATOM      8  N   UNL     1      -5.065 -11.570  13.262  0.00  0.00    -0.280 N 
ATOM     27  C   UNL     1      -3.997 -10.785  12.858  0.00  0.00    +0.252 C 
ATOM     35  H   UNL     1      -5.879 -11.650  12.667  0.00  0.00    +0.155 HD
BRANCH  27  28
ATOM     28  C   UNL     1      -4.227  -9.969  11.638  0.00  0.00    +0.079 A 
ATOM     29  C   UNL     1      -5.365  -9.195  11.535  0.00  0.00    +0.132 A 
ATOM     30  C   UNL     1      -3.278 -10.017  10.637  0.00  0.00    +0.017 A 
ATOM     31  C   UNL     1      -5.563  -8.437  10.381  0.00  0.00    +0.046 A 
ATOM     32  C   UNL     1      -3.476  -9.259   9.483  0.00  0.00    +0.001 A 
ATOM     33  C   UNL     1      -4.619  -8.469   9.355  0.00  0.00    +0.004 A 
BRANCH  29   4
ATOM      4  O   UNL     1      -6.300  -9.152  12.525  0.00  0.00    -0.494 OA
ATOM     34  C   UNL     1      -7.644  -9.459  12.161  0.00  0.00    +0.277 C 
ENDBRANCH  29   4
ENDBRANCH  27  28
ENDBRANCH  21   8
TORSDOF 4
ENDMDL
MODEL 3
REMARK VINA RESULT:      -6.7      2.993      8.747
REMARK  Name = 9424612
REMARK  6 active torsions:
REMARK  status: ('A' for Active; 'I' for Inactive)
REMARK    1  A    between atoms: O_4  and  C_29
REMARK    2  A    between atoms: O_4  and  C_34
REMARK    3  A    between atoms: N_5  and  C_14
REMARK    4  A    between atoms: N_8  and  C_21
REMARK    5  A    between atoms: C_25  and  C_26
REMARK    6  A    between atoms: C_27  and  C_28
REMARK                            x       y       z     vdW  Elec       q    Type
REMARK                         _______ _______ _______ _____ _____    ______ ____
ROOT
ATOM      1  O   UNL     1      17.363   8.332   0.252  0.00  0.00    -0.268 OA
ATOM      5  N   UNL     1      13.490   5.309  -0.768  0.00  0.00    -0.298 NA
ATOM      6  N   UNL     1      15.947   6.560   0.840  0.00  0.00    -0.310 N 
ATOM      9  C   UNL     1      15.815   4.403  -0.539  0.00  0.00    +0.024 C 
ATOM     10  C   UNL     1      14.420   4.660   1.455  0.00  0.00    +0.052 C 
ATOM     11  C   UNL     1      15.456   3.758   0.789  0.00  0.00    +0.017 C 
ATOM     12  C   UNL     1      14.559   4.544  -1.422  0.00  0.00    +0.090 C 
ATOM     13  C   UNL     1      13.166   4.757   0.555  0.00  0.00    +0.094 C 
ATOM     15  C   UNL     1      16.494   5.746  -0.256  0.00  0.00    +0.130 C 
ATOM     16  C   UNL     1      14.985   6.053   1.731  0.00  0.00    +0.047 A 
ATOM     21  C   UNL     1      14.573   6.809   2.773  0.00  0.00    +0.054 A 
ATOM     22  C   UNL     1      16.508   7.842   0.990  0.00  0.00    +0.252 A 
ATOM     23  C   UNL     1      15.120   8.129   2.975  0.00  0.00    +0.030 A 
ATOM     24  C   UNL     1      16.027   8.644   2.142  0.00  0.00    +0.072 A 
ENDROOT
BRANCH   5  14
ATOM      2  O   UNL     1       8.996   2.284  -3.650  0.00  0.00    -0.276 OA
ATOM      7  N   UNL     1      10.428   4.099  -3.419  0.00  0.00    -0.302 N 
ATOM     14  C   UNL     1      12.299   5.372  -1.614  0.00  0.00    +0.060 C 
ATOM     17  C   UNL     1      12.670   5.064  -3.069  0.00  0.00    +0.038 C 
ATOM     18  C   UNL     1      11.242   4.381  -1.109  0.00  0.00    +0.038 C 
ATOM     19  C   UNL     1      11.427   5.031  -3.957  0.00  0.00    +0.109 C 
ATOM     20  C   UNL     1      10.027   4.362  -2.034  0.00  0.00    +0.109 C 
ATOM     25  C   UNL     1       9.835   3.054  -4.126  0.00  0.00    +0.212 C 
ATOM     26  C   UNL     1      10.267   2.877  -5.559  0.00  0.00    +0.109 C 
ENDBRANCH   5  14
BRANCH  21   8
ATOM      3  O   UNL     1      11.778   7.371   2.637  0.00  0.00    -0.270 OA
ATOM      8  N   UNL     1      13.624   6.408   3.674  0.00  0.00    -0.280 N 
ATOM     27  C   UNL     1      12.278   6.717   3.548  0.00  0.00    +0.252 C 
ATOM     35  H   UNL     1      13.921   5.749   4.382  0.00  0.00    +0.155 HD
BRANCH  27  28
ATOM     28  C   UNL     1      11.394   6.174   4.611  0.00  0.00    +0.079 A 
ATOM     29  C   UNL     1      11.420   6.728   5.874  0.00  0.00    +0.132 A 
ATOM     30  C   UNL     1      10.567   5.116   4.290  0.00  0.00    +0.017 A 
ATOM     31  C   UNL     1      10.583   6.204   6.859  0.00  0.00    +0.046 A 
ATOM     32  C   UNL     1       9.730   4.591   5.275  0.00  0.00    +0.001 A 
ATOM     33  C   UNL     1       9.739   5.135   6.560  0.00  0.00    +0.004 A 
BRANCH  29   4
ATOM      4  O   UNL     1      12.239   7.772   6.187  0.00  0.00    -0.494 OA
ATOM     34  C   UNL     1      13.389   7.478   6.978  0.00  0.00    +0.277 C 
ENDBRANCH  29   4
ENDBRANCH  27  28
ENDBRANCH  21   8
TORSDOF 4
ENDMDL
MODEL 4
REMARK VINA RESULT:      -6.7      2.885      6.471
REMARK  Name = 9424612
REMARK  6 active torsions:
REMARK  status: ('A' for Active; 'I' for Inactive)
REMARK    1  A    between atoms: O_4  and  C_29
REMARK    2  A    between atoms: O_4  and  C_34
REMARK    3  A    between atoms: N_5  and  C_14
REMARK    4  A    between atoms: N_8  and  C_21
REMARK    5  A    between atoms: C_25  and  C_26
REMARK    6  A    between atoms: C_27  and  C_28
REMARK                            x       y       z     vdW  Elec       q    Type
REMARK                         _______ _______ _______ _____ _____    ______ ____
ROOT
ATOM      1  O   UNL     1      11.149  10.158   7.982  0.00  0.00    -0.268 OA
ATOM      5  N   UNL     1      10.513   6.876   4.239  0.00  0.00    -0.298 NA
ATOM      6  N   UNL     1       9.764   8.778   6.692  0.00  0.00    -0.310 N 
ATOM      9  C   UNL     1      10.059   6.233   6.619  0.00  0.00    +0.024 C 
ATOM     10  C   UNL     1       8.291   7.291   5.299  0.00  0.00    +0.052 C 
ATOM     11  C   UNL     1       8.563   6.220   6.352  0.00  0.00    +0.017 C 
ATOM     12  C   UNL     1      10.835   5.935   5.319  0.00  0.00    +0.090 C 
ATOM     13  C   UNL     1       9.063   6.947   4.004  0.00  0.00    +0.094 C 
ATOM     15  C   UNL     1      10.430   7.585   7.234  0.00  0.00    +0.130 C 
ATOM     16  C   UNL     1       8.682   8.681   5.798  0.00  0.00    +0.047 A 
ATOM     21  C   UNL     1       8.048   9.803   5.390  0.00  0.00    +0.054 A 
ATOM     22  C   UNL     1      10.220  10.013   7.188  0.00  0.00    +0.252 A 
ATOM     23  C   UNL     1       8.473  11.095   5.872  0.00  0.00    +0.030 A 
ATOM     24  C   UNL     1       9.502  11.222   6.714  0.00  0.00    +0.072 A 
ENDROOT
BRANCH   5  14
ATOM      2  O   UNL     1      13.198   2.527   0.843  0.00  0.00    -0.276 OA
ATOM      7  N   UNL     1      12.944   4.734   1.525  0.00  0.00    -0.302 N 
ATOM     14  C   UNL     1      11.225   6.528   3.011  0.00  0.00    +0.060 C 
ATOM     17  C   UNL     1      12.733   6.453   3.281  0.00  0.00    +0.038 C 
ATOM     18  C   UNL     1      10.711   5.189   2.466  0.00  0.00    +0.038 C 
ATOM     19  C   UNL     1      13.491   5.998   2.035  0.00  0.00    +0.109 C 
ATOM     20  C   UNL     1      11.508   4.760   1.236  0.00  0.00    +0.109 C 
ATOM     25  C   UNL     1      13.682   3.578   1.273  0.00  0.00    +0.212 C 
ATOM     26  C   UNL     1      15.161   3.646   1.554  0.00  0.00    +0.109 C 
ENDBRANCH   5  14
BRANCH  21   8
ATOM      3  O   UNL     1       8.162  10.623   2.659  0.00  0.00    -0.270 OA
ATOM      8  N   UNL     1       7.005   9.806   4.504  0.00  0.00    -0.280 N 
ATOM     27  C   UNL     1       7.129  10.219   3.187  0.00  0.00    +0.252 C 
ATOM     35  H   UNL     1       6.150   9.361   4.809  0.00  0.00    +0.155 HD
BRANCH  27  28
ATOM     28  C   UNL     1       5.892  10.129   2.368  0.00  0.00    +0.079 A 
ATOM     29  C   UNL     1       4.705  10.629   2.862  0.00  0.00    +0.132 A 
ATOM     30  C   UNL     1       5.979   9.537   1.124  0.00  0.00    +0.017 A 
ATOM     31  C   UNL     1       3.554  10.534   2.079  0.00  0.00    +0.046 A 
ATOM     32  C   UNL     1       4.829   9.442   0.341  0.00  0.00    +0.001 A 
ATOM     33  C   UNL     1       3.616   9.940   0.819  0.00  0.00    +0.004 A 
BRANCH  29   4
ATOM      4  O   UNL     1       4.623  11.211   4.092  0.00  0.00    -0.494 OA
ATOM     34  C   UNL     1       4.289  12.597   4.132  0.00  0.00    +0.277 C 
ENDBRANCH  29   4
ENDBRANCH  27  28
ENDBRANCH  21   8
TORSDOF 4
ENDMDL
MODEL 5
REMARK VINA RESULT:      -6.7     25.550     28.797
REMARK  Name = 9424612
REMARK  6 active torsions:
REMARK  status: ('A' for Active; 'I' for Inactive)
REMARK    1  A    between atoms: O_4  and  C_29
REMARK    2  A    between atoms: O_4  and  C_34
REMARK    3  A    between atoms: N_5  and  C_14
REMARK    4  A    between atoms: N_8  and  C_21
REMARK    5  A    between atoms: C_25  and  C_26
REMARK    6  A    between atoms: C_27  and  C_28
REMARK                            x       y       z     vdW  Elec       q    Type
REMARK                         _______ _______ _______ _____ _____    ______ ____
ROOT
ATOM      1  O   UNL     1      -8.214 -15.162  17.782  0.00  0.00    -0.268 OA
ATOM      5  N   UNL     1      -7.693 -10.199  17.253  0.00  0.00    -0.298 NA
ATOM      6  N   UNL     1      -6.858 -13.260  17.611  0.00  0.00    -0.310 N 
ATOM      9  C   UNL     1      -6.937 -11.367  19.338  0.00  0.00    +0.024 C 
ATOM     10  C   UNL     1      -5.416 -11.208  17.428  0.00  0.00    +0.052 C 
ATOM     11  C   UNL     1      -5.482 -11.160  18.952  0.00  0.00    +0.017 C 
ATOM     12  C   UNL     1      -7.817 -10.264  18.715  0.00  0.00    +0.090 C 
ATOM     13  C   UNL     1      -6.287 -10.074  16.839  0.00  0.00    +0.094 C 
ATOM     15  C   UNL     1      -7.356 -12.775  18.906  0.00  0.00    +0.130 C 
ATOM     16  C   UNL     1      -5.872 -12.563  16.889  0.00  0.00    +0.047 A 
ATOM     21  C   UNL     1      -5.383 -13.090  15.744  0.00  0.00    +0.054 A 
ATOM     22  C   UNL     1      -7.365 -14.501  17.185  0.00  0.00    +0.252 A 
ATOM     23  C   UNL     1      -5.867 -14.362  15.264  0.00  0.00    +0.030 A 
ATOM     24  C   UNL     1      -6.808 -15.044  15.921  0.00  0.00    +0.072 A 
ENDROOT
BRANCH   5  14
ATOM      2  O   UNL     1     -13.266  -7.792  16.364  0.00  0.00    -0.276 OA
ATOM      7  N   UNL     1     -11.037  -8.081  15.774  0.00  0.00    -0.302 N 
ATOM     14  C   UNL     1      -8.497  -9.108  16.707  0.00  0.00    +0.060 C 
ATOM     17  C   UNL     1      -9.074  -9.510  15.344  0.00  0.00    +0.038 C 
ATOM     18  C   UNL     1      -9.626  -8.747  17.682  0.00  0.00    +0.038 C 
ATOM     19  C   UNL     1      -9.996  -8.421  14.796  0.00  0.00    +0.109 C 
ATOM     20  C   UNL     1     -10.536  -7.674  17.089  0.00  0.00    +0.109 C 
ATOM     25  C   UNL     1     -12.409  -8.082  15.525  0.00  0.00    +0.212 C 
ATOM     26  C   UNL     1     -12.843  -8.470  14.134  0.00  0.00    +0.109 C 
ENDBRANCH   5  14
BRANCH  21   8
ATOM      3  O   UNL     1      -5.902 -11.273  13.605  0.00  0.00    -0.270 OA
ATOM      8  N   UNL     1      -4.444 -12.472  14.964  0.00  0.00    -0.280 N 
ATOM     27  C   UNL     1      -4.765 -11.598  13.937  0.00  0.00    +0.252 C 
ATOM     35  H   UNL     1      -3.479 -12.571  15.252  0.00  0.00    +0.155 HD
BRANCH  27  28
ATOM     28  C   UNL     1      -3.609 -11.005  13.216  0.00  0.00    +0.079 A 
ATOM     29  C   UNL     1      -2.532 -10.518  13.928  0.00  0.00    +0.132 A 
ATOM     30  C   UNL     1      -3.657 -10.963  11.836  0.00  0.00    +0.017 A 
ATOM     31  C   UNL     1      -1.457  -9.965  13.232  0.00  0.00    +0.046 A 
ATOM     32  C   UNL     1      -2.582 -10.410  11.141  0.00  0.00    +0.001 A 
ATOM     33  C   UNL     1      -1.483  -9.910  11.839  0.00  0.00    +0.004 A 
BRANCH  29   4
ATOM      4  O   UNL     1      -2.489 -10.560  15.290  0.00  0.00    -0.494 OA
ATOM     34  C   UNL     1      -1.219 -10.353  15.904  0.00  0.00    +0.277 C 
ENDBRANCH  29   4
ENDBRANCH  27  28
ENDBRANCH  21   8
TORSDOF 4
ENDMDL
MODEL 6
REMARK VINA RESULT:      -6.6     24.154     27.136
REMARK  Name = 9424612
REMARK  6 active torsions:
REMARK  status: ('A' for Active; 'I' for Inactive)
REMARK    1  A    between atoms: O_4  and  C_29
REMARK    2  A    between atoms: O_4  and  C_34
REMARK    3  A    between atoms: N_5  and  C_14
REMARK    4  A    between atoms: N_8  and  C_21
REMARK    5  A    between atoms: C_25  and  C_26
REMARK    6  A    between atoms: C_27  and  C_28
REMARK                            x       y       z     vdW  Elec       q    Type
REMARK                         _______ _______ _______ _____ _____    ______ ____
ROOT
ATOM      1  O   UNL     1      -1.445 -15.223  13.833  0.00  0.00    -0.268 OA
ATOM      5  N   UNL     1      -4.332 -11.193  14.609  0.00  0.00    -0.298 NA
ATOM      6  N   UNL     1      -2.237 -13.121  13.167  0.00  0.00    -0.310 N 
ATOM      9  C   UNL     1      -1.833 -11.007  14.558  0.00  0.00    +0.024 C 
ATOM     10  C   UNL     1      -3.095 -10.864  12.466  0.00  0.00    +0.052 C 
ATOM     11  C   UNL     1      -1.892 -10.297  13.216  0.00  0.00    +0.017 C 
ATOM     12  C   UNL     1      -3.136 -10.766  15.347  0.00  0.00    +0.090 C 
ATOM     13  C   UNL     1      -4.384 -10.582  13.273  0.00  0.00    +0.094 C 
ATOM     15  C   UNL     1      -1.557 -12.492  14.308  0.00  0.00    +0.130 C 
ATOM     16  C   UNL     1      -2.943 -12.364  12.215  0.00  0.00    +0.047 A 
ATOM     21  C   UNL     1      -3.481 -12.976  11.137  0.00  0.00    +0.054 A 
ATOM     22  C   UNL     1      -2.065 -14.513  13.042  0.00  0.00    +0.252 A 
ATOM     23  C   UNL     1      -3.330 -14.401  10.959  0.00  0.00    +0.030 A 
ATOM     24  C   UNL     1      -2.674 -15.150  11.848  0.00  0.00    +0.072 A 
ENDROOT
BRANCH   5  14
ATOM      2  O   UNL     1      -7.045 -10.672  20.088  0.00  0.00    -0.276 OA
ATOM      7  N   UNL     1      -7.099 -11.085  17.802  0.00  0.00    -0.302 N 
ATOM     14  C   UNL     1      -5.547 -10.897  15.366  0.00  0.00    +0.060 C 
ATOM     17  C   UNL     1      -6.241 -12.202  15.778  0.00  0.00    +0.038 C 
ATOM     18  C   UNL     1      -5.206 -10.057  16.604  0.00  0.00    +0.038 C 
ATOM     19  C   UNL     1      -7.463 -11.921  16.651  0.00  0.00    +0.109 C 
ATOM     20  C   UNL     1      -6.448  -9.819  17.460  0.00  0.00    +0.109 C 
ATOM     25  C   UNL     1      -7.361 -11.392  19.137  0.00  0.00    +0.212 C 
ATOM     26  C   UNL     1      -8.075 -12.692  19.404  0.00  0.00    +0.109 C 
ENDBRANCH   5  14
BRANCH  21   8
ATOM      3  O   UNL     1      -6.321 -12.700  11.065  0.00  0.00    -0.270 OA
ATOM      8  N   UNL     1      -4.205 -12.325  10.175  0.00  0.00    -0.280 N 
ATOM     27  C   UNL     1      -5.587 -12.228  10.200  0.00  0.00    +0.252 C 
ATOM     35  H   UNL     1      -3.679 -11.787   9.499  0.00  0.00    +0.155 HD
BRANCH  27  28
ATOM     28  C   UNL     1      -6.196 -11.460   9.083  0.00  0.00    +0.079 A 
ATOM     29  C   UNL     1      -6.016 -10.094   9.010  0.00  0.00    +0.132 A 
ATOM     30  C   UNL     1      -6.933 -12.155   8.144  0.00  0.00    +0.017 A 
ATOM     31  C   UNL     1      -6.596  -9.392   7.954  0.00  0.00    +0.046 A 
ATOM     32  C   UNL     1      -7.513 -11.453   7.088  0.00  0.00    +0.001 A 
ATOM     33  C   UNL     1      -7.345 -10.071   6.994  0.00  0.00    +0.004 A 
BRANCH  29   4
ATOM      4  O   UNL     1      -5.289  -9.412   9.940  0.00  0.00    -0.494 OA
ATOM     34  C   UNL     1      -4.082  -8.797   9.495  0.00  0.00    +0.277 C 
ENDBRANCH  29   4
ENDBRANCH  27  28
ENDBRANCH  21   8
TORSDOF 4
ENDMDL
MODEL 7
REMARK VINA RESULT:      -6.5     16.450     20.384
REMARK  Name = 9424612
REMARK  6 active torsions:
REMARK  status: ('A' for Active; 'I' for Inactive)
REMARK    1  A    between atoms: O_4  and  C_29
REMARK    2  A    between atoms: O_4  and  C_34
REMARK    3  A    between atoms: N_5  and  C_14
REMARK    4  A    between atoms: N_8  and  C_21
REMARK    5  A    between atoms: C_25  and  C_26
REMARK    6  A    between atoms: C_27  and  C_28
REMARK                            x       y       z     vdW  Elec       q    Type
REMARK                         _______ _______ _______ _____ _____    ______ ____
ROOT
ATOM      1  O   UNL     1      18.912  12.581  25.228  0.00  0.00    -0.268 OA
ATOM      5  N   UNL     1      16.790   9.499  21.884  0.00  0.00    -0.298 NA
ATOM      6  N   UNL     1      19.053  11.240  23.312  0.00  0.00    -0.310 N 
ATOM      9  C   UNL     1      17.692  11.734  21.197  0.00  0.00    +0.024 C 
ATOM     10  C   UNL     1      19.187   9.798  21.257  0.00  0.00    +0.052 C 
ATOM     11  C   UNL     1      18.854  11.068  20.478  0.00  0.00    +0.017 C 
ATOM     12  C   UNL     1      16.478  10.784  21.245  0.00  0.00    +0.090 C 
ATOM     13  C   UNL     1      17.958   8.859  21.262  0.00  0.00    +0.094 C 
ATOM     15  C   UNL     1      18.166  12.161  22.588  0.00  0.00    +0.130 C 
ATOM     16  C   UNL     1      19.620  10.115  22.687  0.00  0.00    +0.047 A 
ATOM     21  C   UNL     1      20.497   9.342  23.368  0.00  0.00    +0.054 A 
ATOM     22  C   UNL     1      19.364  11.601  24.636  0.00  0.00    +0.252 A 
ATOM     23  C   UNL     1      20.853   9.670  24.727  0.00  0.00    +0.030 A 
ATOM     24  C   UNL     1      20.326  10.726  25.351  0.00  0.00    +0.072 A 
ENDROOT
BRANCH   5  14
ATOM      2  O   UNL     1      12.248   6.964  18.628  0.00  0.00    -0.276 OA
ATOM      7  N   UNL     1      13.171   7.717  20.623  0.00  0.00    -0.302 N 
ATOM     14  C   UNL     1      15.631   8.608  21.860  0.00  0.00    +0.060 C 
ATOM     17  C   UNL     1      14.337   9.424  21.967  0.00  0.00    +0.038 C 
ATOM     18  C   UNL     1      15.635   7.774  20.572  0.00  0.00    +0.038 C 
ATOM     19  C   UNL     1      13.109   8.523  21.850  0.00  0.00    +0.109 C 
ATOM     20  C   UNL     1      14.382   6.906  20.482  0.00  0.00    +0.109 C 
ATOM     25  C   UNL     1      12.173   7.650  19.651  0.00  0.00    +0.212 C 
ATOM     26  C   UNL     1      10.938   8.481  19.892  0.00  0.00    +0.109 C 
ENDBRANCH   5  14
BRANCH  21   8
ATOM      3  O   UNL     1      19.832   6.647  24.035  0.00  0.00    -0.270 OA
ATOM      8  N   UNL     1      21.077   8.215  22.850  0.00  0.00    -0.280 N 
ATOM     27  C   UNL     1      20.706   6.932  23.219  0.00  0.00    +0.252 C 
ATOM     35  H   UNL     1      21.709   8.348  22.072  0.00  0.00    +0.155 HD
BRANCH  27  28
ATOM     28  C   UNL     1      21.432   5.833  22.532  0.00  0.00    +0.079 A 
ATOM     29  C   UNL     1      21.157   5.550  21.210  0.00  0.00    +0.132 A 
ATOM     30  C   UNL     1      22.370   5.123  23.255  0.00  0.00    +0.017 A 
ATOM     31  C   UNL     1      21.849   4.514  20.583  0.00  0.00    +0.046 A 
ATOM     32  C   UNL     1      23.062   4.087  22.629  0.00  0.00    +0.001 A 
ATOM     33  C   UNL     1      22.801   3.782  21.293  0.00  0.00    +0.004 A 
BRANCH  29   4
ATOM      4  O   UNL     1      20.229   6.252  20.500  0.00  0.00    -0.494 OA
ATOM     34  C   UNL     1      19.015   5.578  20.176  0.00  0.00    +0.277 C 
ENDBRANCH  29   4
ENDBRANCH  27  28
ENDBRANCH  21   8
TORSDOF 4
ENDMDL
MODEL 8
REMARK VINA RESULT:      -6.4     25.154     28.307
REMARK  Name = 9424612
REMARK  6 active torsions:
REMARK  status: ('A' for Active; 'I' for Inactive)
REMARK    1  A    between atoms: O_4  and  C_29
REMARK    2  A    between atoms: O_4  and  C_34
REMARK    3  A    between atoms: N_5  and  C_14
REMARK    4  A    between atoms: N_8  and  C_21
REMARK    5  A    between atoms: C_25  and  C_26
REMARK    6  A    between atoms: C_27  and  C_28
REMARK                            x       y       z     vdW  Elec       q    Type
REMARK                         _______ _______ _______ _____ _____    ______ ____
ROOT
ATOM      1  O   UNL     1      -5.579 -15.480  17.089  0.00  0.00    -0.268 OA
ATOM      5  N   UNL     1      -6.483 -10.545  17.166  0.00  0.00    -0.298 NA
ATOM      6  N   UNL     1      -4.966 -13.285  16.548  0.00  0.00    -0.310 N 
ATOM      9  C   UNL     1      -4.495 -11.517  18.344  0.00  0.00    +0.024 C 
ATOM     10  C   UNL     1      -4.321 -10.923  15.977  0.00  0.00    +0.052 C 
ATOM     11  C   UNL     1      -3.562 -10.926  17.301  0.00  0.00    +0.017 C 
ATOM     12  C   UNL     1      -5.781 -10.671  18.450  0.00  0.00    +0.090 C 
ATOM     13  C   UNL     1      -5.588 -10.046  16.112  0.00  0.00    +0.094 C 
ATOM     15  C   UNL     1      -4.775 -12.976  17.973  0.00  0.00    +0.130 C 
ATOM     16  C   UNL     1      -4.699 -12.338  15.543  0.00  0.00    +0.047 A 
ATOM     21  C   UNL     1      -4.809 -12.693  14.243  0.00  0.00    +0.054 A 
ATOM     22  C   UNL     1      -5.348 -14.606  16.253  0.00  0.00    +0.252 A 
ATOM     23  C   UNL     1      -5.194 -14.037  13.886  0.00  0.00    +0.030 A 
ATOM     24  C   UNL     1      -5.463 -14.956  14.816  0.00  0.00    +0.072 A 
ENDROOT
BRANCH   5  14
ATOM      2  O   UNL     1     -12.604 -10.115  17.239  0.00  0.00    -0.276 OA
ATOM      7  N   UNL     1     -10.488  -9.227  16.871  0.00  0.00    -0.302 N 
ATOM     14  C   UNL     1      -7.663  -9.692  17.297  0.00  0.00    +0.060 C 
ATOM     17  C   UNL     1      -8.220  -9.349  15.910  0.00  0.00    +0.038 C 
ATOM     18  C   UNL     1      -8.730 -10.396  18.145  0.00  0.00    +0.038 C 
ATOM     19  C   UNL     1      -9.509  -8.535  16.023  0.00  0.00    +0.109 C 
ATOM     20  C   UNL     1     -10.008  -9.562  18.214  0.00  0.00    +0.109 C 
ATOM     25  C   UNL     1     -11.799  -9.532  16.507  0.00  0.00    +0.212 C 
ATOM     26  C   UNL     1     -12.230  -9.115  15.124  0.00  0.00    +0.109 C 
ENDBRANCH   5  14
BRANCH  21   8
ATOM      3  O   UNL     1      -6.805 -11.196  12.858  0.00  0.00    -0.270 OA
ATOM      8  N   UNL     1      -4.594 -11.833  13.200  0.00  0.00    -0.280 N 
ATOM     27  C   UNL     1      -5.612 -11.135  12.570  0.00  0.00    +0.252 C 
ATOM     35  H   UNL     1      -3.631 -11.614  12.984  0.00  0.00    +0.155 HD
BRANCH  27  28
ATOM     28  C   UNL     1      -5.184 -10.229  11.473  0.00  0.00    +0.079 A 
ATOM     29  C   UNL     1      -4.391 -10.714  10.453  0.00  0.00    +0.132 A 
ATOM     30  C   UNL     1      -5.601  -8.913  11.517  0.00  0.00    +0.017 A 
ATOM     31  C   UNL     1      -3.998  -9.848   9.433  0.00  0.00    +0.046 A 
ATOM     32  C   UNL     1      -5.208  -8.047  10.497  0.00  0.00    +0.001 A 
ATOM     33  C   UNL     1      -4.406  -8.514   9.455  0.00  0.00    +0.004 A 
BRANCH  29   4
ATOM      4  O   UNL     1      -3.980 -12.013  10.414  0.00  0.00    -0.494 OA
ATOM     34  C   UNL     1      -4.083 -12.688   9.161  0.00  0.00    +0.277 C 
ENDBRANCH  29   4
ENDBRANCH  27  28
ENDBRANCH  21   8
TORSDOF 4
ENDMDL
MODEL 9
REMARK VINA RESULT:      -6.4     23.855     26.433
REMARK  Name = 9424612
REMARK  6 active torsions:
REMARK  status: ('A' for Active; 'I' for Inactive)
REMARK    1  A    between atoms: O_4  and  C_29
REMARK    2  A    between atoms: O_4  and  C_34
REMARK    3  A    between atoms: N_5  and  C_14
REMARK    4  A    between atoms: N_8  and  C_21
REMARK    5  A    between atoms: C_25  and  C_26
REMARK    6  A    between atoms: C_27  and  C_28
REMARK                            x       y       z     vdW  Elec       q    Type
REMARK                         _______ _______ _______ _____ _____    ______ ____
ROOT
ATOM      1  O   UNL     1      19.477  -5.431  21.419  0.00  0.00    -0.268 OA
ATOM      5  N   UNL     1      18.707  -2.038  25.034  0.00  0.00    -0.298 NA
ATOM      6  N   UNL     1      18.083  -4.426  23.010  0.00  0.00    -0.310 N 
ATOM      9  C   UNL     1      17.426  -1.952  22.881  0.00  0.00    +0.024 C 
ATOM     10  C   UNL     1      16.599  -3.336  24.722  0.00  0.00    +0.052 C 
ATOM     11  C   UNL     1      16.162  -2.408  23.591  0.00  0.00    +0.017 C 
ATOM     12  C   UNL     1      18.356  -1.217  23.868  0.00  0.00    +0.090 C 
ATOM     13  C   UNL     1      17.507  -2.560  25.703  0.00  0.00    +0.094 C 
ATOM     15  C   UNL     1      18.089  -3.174  22.240  0.00  0.00    +0.130 C 
ATOM     16  C   UNL     1      17.325  -4.569  24.187  0.00  0.00    +0.047 A 
ATOM     21  C   UNL     1      17.284  -5.765  24.816  0.00  0.00    +0.054 A 
ATOM     22  C   UNL     1      18.811  -5.493  22.452  0.00  0.00    +0.252 A 
ATOM     23  C   UNL     1      18.010  -6.893  24.283  0.00  0.00    +0.030 A 
ATOM     24  C   UNL     1      18.746  -6.788  23.173  0.00  0.00    +0.072 A 
ENDROOT
BRANCH   5  14
ATOM      2  O   UNL     1      24.225  -1.260  27.603  0.00  0.00    -0.276 OA
ATOM      7  N   UNL     1      21.908  -1.091  27.627  0.00  0.00    -0.302 N 
ATOM     14  C   UNL     1      19.543  -1.287  25.970  0.00  0.00    +0.060 C 
ATOM     17  C   UNL     1      19.658  -2.047  27.297  0.00  0.00    +0.038 C 
ATOM     18  C   UNL     1      20.932  -1.052  25.363  0.00  0.00    +0.038 C 
ATOM     19  C   UNL     1      20.604  -1.328  28.259  0.00  0.00    +0.109 C 
ATOM     20  C   UNL     1      21.852  -0.353  26.363  0.00  0.00    +0.109 C 
ATOM     25  C   UNL     1      23.141  -1.471  28.154  0.00  0.00    +0.212 C 
ATOM     26  C   UNL     1      23.117  -2.187  29.481  0.00  0.00    +0.109 C 
ENDBRANCH   5  14
BRANCH  21   8
ATOM      3  O   UNL     1      18.359  -5.654  27.457  0.00  0.00    -0.270 OA
ATOM      8  N   UNL     1      16.596  -5.989  25.978  0.00  0.00    -0.280 N 
ATOM     27  C   UNL     1      17.181  -5.919  27.232  0.00  0.00    +0.252 C 
ATOM     35  H   UNL     1      15.592  -6.078  25.899  0.00  0.00    +0.155 HD
BRANCH  27  28
ATOM     28  C   UNL     1      16.270  -6.169  28.378  0.00  0.00    +0.079 A 
ATOM     29  C   UNL     1      15.436  -7.269  28.365  0.00  0.00    +0.132 A 
ATOM     30  C   UNL     1      16.290  -5.276  29.432  0.00  0.00    +0.017 A 
ATOM     31  C   UNL     1      14.587  -7.486  29.450  0.00  0.00    +0.046 A 
ATOM     32  C   UNL     1      15.441  -5.493  30.517  0.00  0.00    +0.001 A 
ATOM     33  C   UNL     1      14.589  -6.598  30.525  0.00  0.00    +0.004 A 
BRANCH  29   4
ATOM      4  O   UNL     1      15.418  -8.147  27.323  0.00  0.00    -0.494 OA
ATOM     34  C   UNL     1      15.711  -9.511  27.620  0.00  0.00    +0.277 C 
ENDBRANCH  29   4
ENDBRANCH  27  28
ENDBRANCH  21   8
TORSDOF 4
ENDMDL
MODEL 10
REMARK VINA RESULT:      -6.3     24.650     27.016
REMARK  Name = 9424612
REMARK  6 active torsions:
REMARK  status: ('A' for Active; 'I' for Inactive)
REMARK    1  A    between atoms: O_4  and  C_29
REMARK    2  A    between atoms: O_4  and  C_34
REMARK    3  A    between atoms: N_5  and  C_14
REMARK    4  A    between atoms: N_8  and  C_21
REMARK    5  A    between atoms: C_25  and  C_26
REMARK    6  A    between atoms: C_27  and  C_28
REMARK                            x       y       z     vdW  Elec       q    Type
REMARK                         _______ _______ _______ _____ _____    ______ ____
ROOT
ATOM      1  O   UNL     1      -1.742 -15.239  13.010  0.00  0.00    -0.268 OA
ATOM      5  N   UNL     1      -4.338 -11.427  14.987  0.00  0.00    -0.298 NA
ATOM      6  N   UNL     1      -2.456 -13.008  12.951  0.00  0.00    -0.310 N 
ATOM      9  C   UNL     1      -1.842 -11.329  14.787  0.00  0.00    +0.024 C 
ATOM     10  C   UNL     1      -3.230 -10.617  12.902  0.00  0.00    +0.052 C 
ATOM     11  C   UNL     1      -1.950 -10.302  13.672  0.00  0.00    +0.017 C 
ATOM     12  C   UNL     1      -3.074 -11.245  15.711  0.00  0.00    +0.090 C 
ATOM     13  C   UNL     1      -4.444 -10.498  13.852  0.00  0.00    +0.094 C 
ATOM     15  C   UNL     1      -1.667 -12.713  14.156  0.00  0.00    +0.130 C 
ATOM     16  C   UNL     1      -3.179 -12.009  12.275  0.00  0.00    +0.047 A 
ATOM     21  C   UNL     1      -3.822 -12.310  11.124  0.00  0.00    +0.054 A 
ATOM     22  C   UNL     1      -2.371 -14.329  12.471  0.00  0.00    +0.252 A 
ATOM     23  C   UNL     1      -3.764 -13.648  10.587  0.00  0.00    +0.030 A 
ATOM     24  C   UNL     1      -3.094 -14.621  11.209  0.00  0.00    +0.072 A 
ENDROOT
BRANCH   5  14
ATOM      2  O   UNL     1     -10.308 -10.169  15.648  0.00  0.00    -0.276 OA
ATOM      7  N   UNL     1      -8.127 -10.252  16.446  0.00  0.00    -0.302 N 
ATOM     14  C   UNL     1      -5.482 -11.285  15.886  0.00  0.00    +0.060 C 
ATOM     17  C   UNL     1      -5.713  -9.805  16.215  0.00  0.00    +0.038 C 
ATOM     18  C   UNL     1      -6.735 -11.895  15.245  0.00  0.00    +0.038 C 
ATOM     19  C   UNL     1      -6.960  -9.623  17.078  0.00  0.00    +0.109 C 
ATOM     20  C   UNL     1      -7.961 -11.672  16.127  0.00  0.00    +0.109 C 
ATOM     25  C   UNL     1      -9.340  -9.618  16.181  0.00  0.00    +0.212 C 
ATOM     26  C   UNL     1      -9.446  -8.168  16.579  0.00  0.00    +0.109 C 
ENDBRANCH   5  14
BRANCH  21   8
ATOM      3  O   UNL     1      -6.661 -12.034  11.221  0.00  0.00    -0.270 OA
ATOM      8  N   UNL     1      -4.570 -11.410  10.415  0.00  0.00    -0.280 N 
ATOM     27  C   UNL     1      -5.950 -11.329  10.508  0.00  0.00    +0.252 C 
ATOM     35  H   UNL     1      -4.061 -10.698   9.907  0.00  0.00    +0.155 HD
BRANCH  27  28
ATOM     28  C   UNL     1      -6.587 -10.273   9.679  0.00  0.00    +0.079 A 
ATOM     29  C   UNL     1      -6.270 -10.167   8.341  0.00  0.00    +0.132 A 
ATOM     30  C   UNL     1      -7.487  -9.422  10.291  0.00  0.00    +0.017 A 
ATOM     31  C   UNL     1      -6.878  -9.168   7.580  0.00  0.00    +0.046 A 
ATOM     32  C   UNL     1      -8.095  -8.424   9.530  0.00  0.00    +0.001 A 
ATOM     33  C   UNL     1      -7.790  -8.296   8.175  0.00  0.00    +0.004 A 
BRANCH  29   4
ATOM      4  O   UNL     1      -5.380 -11.008   7.742  0.00  0.00    -0.494 OA
ATOM     34  C   UNL     1      -5.777 -11.597   6.505  0.00  0.00    +0.277 C 
ENDBRANCH  29   4
ENDBRANCH  27  28
ENDBRANCH  21   8
TORSDOF 4
ENDMDL
