MODEL 1
REMARK VINA RESULT:      -5.6      0.000      0.000
REMARK  Name = 38030170
REMARK  10 active torsions:
REMARK  status: ('A' for Active; 'I' for Inactive)
REMARK    1  A    between atoms: O_1  and  C_13
REMARK    2  A    between atoms: N_3  and  C_18
REMARK    3  A    between atoms: C_5  and  C_9
REMARK    4  A    between atoms: C_7  and  C_13
REMARK    5  A    between atoms: C_8  and  C_12
REMARK    6  A    between atoms: C_9  and  C_14
REMARK    7  A    between atoms: C_9  and  C_15
REMARK    8  A    between atoms: C_10  and  C_16
REMARK    9  A    between atoms: C_12  and  C_17
REMARK   10  A    between atoms: C_18  and  C_19
REMARK                            x       y       z     vdW  Elec       q    Type
REMARK                         _______ _______ _______ _____ _____    ______ ____
ROOT
ATOM      5  C   UNL     1      -5.868 -10.552  15.203  0.00  0.00    +0.001 C 
ATOM      6  C   UNL     1      -4.863 -11.715  15.193  0.00  0.00    +0.012 C 
ATOM      7  C   UNL     1      -6.750 -10.611  16.476  0.00  0.00    +0.040 C 
ATOM      8  C   UNL     1      -3.942 -11.699  16.428  0.00  0.00    +0.023 C 
ATOM     10  C   UNL     1      -4.721 -11.489  17.710  0.00  0.00    -0.073 C 
ATOM     11  C   UNL     1      -5.980 -11.015  17.711  0.00  0.00    -0.022 C 
ATOM     16  C   UNL     1      -4.037 -11.880  18.990  0.00  0.00    +0.039 C 
ENDROOT
BRANCH   5   9
ATOM      9  C   UNL     1      -6.712 -10.585  13.925  0.00  0.00    -0.013 C 
ATOM     14  C   UNL     1      -6.138  -9.628  12.885  0.00  0.00    +0.007 C 
ATOM     15  C   UNL     1      -6.786 -12.004  13.372  0.00  0.00    +0.007 C 
ENDBRANCH   5   9
BRANCH   8  12
ATOM     12  C   UNL     1      -2.838 -10.646  16.278  0.00  0.00    +0.103 C 
BRANCH  12  17
ATOM      2  O   UNL     1      -1.023 -11.716  15.089  0.00  0.00    -0.276 OA
ATOM      3  N   UNL     1      -2.334 -10.141  13.996  0.00  0.00    -0.311 N 
ATOM     17  C   UNL     1      -1.953 -10.915  15.081  0.00  0.00    +0.214 C 
ATOM     25  H   UNL     1      -3.123  -9.506  14.086  0.00  0.00    +0.149 HD
BRANCH   3  18
ATOM     18  C   UNL     1      -1.664 -10.189  12.717  0.00  0.00    +0.141 C 
BRANCH  18  19
ATOM      4  N   UNL     1      -3.765  -9.809   9.595  0.00  0.00    -0.263 NA
ATOM     19  C   UNL     1      -2.611 -10.516  11.599  0.00  0.00    -0.012 A 
ATOM     20  C   UNL     1      -3.206 -11.769  11.509  0.00  0.00    +0.008 A 
ATOM     21  C   UNL     1      -2.920  -9.579  10.626  0.00  0.00    +0.115 A 
ATOM     22  C   UNL     1      -4.081 -12.043  10.463  0.00  0.00    +0.020 A 
ATOM     23  C   UNL     1      -4.325 -11.039   9.541  0.00  0.00    +0.111 A 
ENDBRANCH  18  19
ENDBRANCH   3  18
ENDBRANCH  12  17
ENDBRANCH   8  12
BRANCH   7  13
ATOM     13  C   UNL     1      -7.450  -9.271  16.726  0.00  0.00    +0.163 C 
BRANCH  13   1
ATOM      1  O   UNL     1      -7.807  -9.206  18.093  0.00  0.00    -0.394 OA
ATOM     24  H   UNL     1      -7.566 -10.058  18.494  0.00  0.00    +0.209 HD
ENDBRANCH  13   1
ENDBRANCH   7  13
TORSDOF 7
ENDMDL
MODEL 2
REMARK VINA RESULT:      -5.6     26.725     28.899
REMARK  Name = 38030170
REMARK  10 active torsions:
REMARK  status: ('A' for Active; 'I' for Inactive)
REMARK    1  A    between atoms: O_1  and  C_13
REMARK    2  A    between atoms: N_3  and  C_18
REMARK    3  A    between atoms: C_5  and  C_9
REMARK    4  A    between atoms: C_7  and  C_13
REMARK    5  A    between atoms: C_8  and  C_12
REMARK    6  A    between atoms: C_9  and  C_14
REMARK    7  A    between atoms: C_9  and  C_15
REMARK    8  A    between atoms: C_10  and  C_16
REMARK    9  A    between atoms: C_12  and  C_17
REMARK   10  A    between atoms: C_18  and  C_19
REMARK                            x       y       z     vdW  Elec       q    Type
REMARK                         _______ _______ _______ _____ _____    ______ ____
ROOT
ATOM      5  C   UNL     1      19.366   6.832  21.321  0.00  0.00    +0.001 C 
ATOM      6  C   UNL     1      18.344   6.583  20.200  0.00  0.00    +0.012 C 
ATOM      7  C   UNL     1      19.737   8.335  21.389  0.00  0.00    +0.040 C 
ATOM      8  C   UNL     1      17.052   7.397  20.400  0.00  0.00    +0.023 C 
ATOM     10  C   UNL     1      17.344   8.844  20.740  0.00  0.00    -0.073 C 
ATOM     11  C   UNL     1      18.554   9.247  21.167  0.00  0.00    -0.022 C 
ATOM     16  C   UNL     1      16.226   9.827  20.532  0.00  0.00    +0.039 C 
ENDROOT
BRANCH   5   9
ATOM      9  C   UNL     1      20.601   5.952  21.103  0.00  0.00    -0.013 C 
ATOM     14  C   UNL     1      21.162   5.482  22.441  0.00  0.00    +0.007 C 
ATOM     15  C   UNL     1      20.256   4.762  20.213  0.00  0.00    +0.007 C 
ENDBRANCH   5   9
BRANCH   8  12
ATOM     12  C   UNL     1      16.154   6.754  21.462  0.00  0.00    +0.103 C 
BRANCH  12  17
ATOM      2  O   UNL     1      13.957   7.575  22.056  0.00  0.00    -0.276 OA
ATOM      3  N   UNL     1      14.300   6.643  19.956  0.00  0.00    -0.311 N 
ATOM     17  C   UNL     1      14.690   7.048  21.223  0.00  0.00    +0.214 C 
ATOM     25  H   UNL     1      14.982   6.218  19.334  0.00  0.00    +0.149 HD
BRANCH   3  18
ATOM     18  C   UNL     1      12.954   6.798  19.456  0.00  0.00    +0.141 C 
BRANCH  18  19
ATOM      4  N   UNL     1      14.023   8.357  16.180  0.00  0.00    -0.263 NA
ATOM     19  C   UNL     1      12.913   7.611  18.195  0.00  0.00    -0.012 A 
ATOM     20  C   UNL     1      11.788   8.356  17.859  0.00  0.00    +0.008 A 
ATOM     21  C   UNL     1      13.994   7.645  17.329  0.00  0.00    +0.115 A 
ATOM     22  C   UNL     1      11.779   9.102  16.685  0.00  0.00    +0.020 A 
ATOM     23  C   UNL     1      12.911   9.069  15.888  0.00  0.00    +0.111 A 
ENDBRANCH  18  19
ENDBRANCH   3  18
ENDBRANCH  12  17
ENDBRANCH   8  12
BRANCH   7  13
ATOM     13  C   UNL     1      20.404   8.680  22.726  0.00  0.00    +0.163 C 
BRANCH  13   1
ATOM      1  O   UNL     1      19.513   8.333  23.768  0.00  0.00    -0.394 OA
ATOM     24  H   UNL     1      18.627   8.257  23.375  0.00  0.00    +0.209 HD
ENDBRANCH  13   1
ENDBRANCH   7  13
TORSDOF 7
ENDMDL
MODEL 3
REMARK VINA RESULT:      -5.5     27.282     29.285
REMARK  Name = 38030170
REMARK  10 active torsions:
REMARK  status: ('A' for Active; 'I' for Inactive)
REMARK    1  A    between atoms: O_1  and  C_13
REMARK    2  A    between atoms: N_3  and  C_18
REMARK    3  A    between atoms: C_5  and  C_9
REMARK    4  A    between atoms: C_7  and  C_13
REMARK    5  A    between atoms: C_8  and  C_12
REMARK    6  A    between atoms: C_9  and  C_14
REMARK    7  A    between atoms: C_9  and  C_15
REMARK    8  A    between atoms: C_10  and  C_16
REMARK    9  A    between atoms: C_12  and  C_17
REMARK   10  A    between atoms: C_18  and  C_19
REMARK                            x       y       z     vdW  Elec       q    Type
REMARK                         _______ _______ _______ _____ _____    ______ ____
ROOT
ATOM      5  C   UNL     1      13.712   8.843  20.389  0.00  0.00    +0.001 C 
ATOM      6  C   UNL     1      14.986   9.415  19.746  0.00  0.00    +0.012 C 
ATOM      7  C   UNL     1      13.497   7.374  19.948  0.00  0.00    +0.040 C 
ATOM      8  C   UNL     1      16.241   8.604  20.120  0.00  0.00    +0.023 C 
ATOM     10  C   UNL     1      16.015   7.114  19.966  0.00  0.00    -0.073 C 
ATOM     11  C   UNL     1      14.782   6.583  19.877  0.00  0.00    -0.022 C 
ATOM     16  C   UNL     1      17.241   6.249  19.869  0.00  0.00    +0.039 C 
ENDROOT
BRANCH   5   9
ATOM      9  C   UNL     1      12.511   9.725  20.034  0.00  0.00    -0.013 C 
ATOM     14  C   UNL     1      12.594  11.058  20.770  0.00  0.00    +0.007 C 
ATOM     15  C   UNL     1      12.438   9.944  18.526  0.00  0.00    +0.007 C 
ENDBRANCH   5   9
BRANCH   8  12
ATOM     12  C   UNL     1      16.715   8.943  21.537  0.00  0.00    +0.103 C 
BRANCH  12  17
ATOM      2  O   UNL     1      18.859   9.919  20.987  0.00  0.00    -0.276 OA
ATOM      3  N   UNL     1      18.761   8.143  22.482  0.00  0.00    -0.311 N 
ATOM     17  C   UNL     1      18.219   9.081  21.616  0.00  0.00    +0.214 C 
ATOM     25  H   UNL     1      18.147   7.490  22.961  0.00  0.00    +0.149 HD
BRANCH   3  18
ATOM     18  C   UNL     1      20.177   8.041  22.750  0.00  0.00    +0.141 C 
BRANCH  18  19
ATOM      4  N   UNL     1      21.826   4.641  22.895  0.00  0.00    -0.263 NA
ATOM     19  C   UNL     1      20.738   6.719  22.312  0.00  0.00    -0.012 A 
ATOM     20  C   UNL     1      20.710   6.338  20.975  0.00  0.00    +0.008 A 
ATOM     21  C   UNL     1      21.302   5.843  23.224  0.00  0.00    +0.115 A 
ATOM     22  C   UNL     1      21.240   5.108  20.597  0.00  0.00    +0.020 A 
ATOM     23  C   UNL     1      21.781   4.304  21.586  0.00  0.00    +0.111 A 
ENDBRANCH  18  19
ENDBRANCH   3  18
ENDBRANCH  12  17
ENDBRANCH   8  12
BRANCH   7  13
ATOM     13  C   UNL     1      12.507   6.657  20.874  0.00  0.00    +0.163 C 
BRANCH  13   1
ATOM      1  O   UNL     1      11.690   5.817  20.084  0.00  0.00    -0.394 OA
ATOM     24  H   UNL     1      10.789   6.183  20.113  0.00  0.00    +0.209 HD
ENDBRANCH  13   1
ENDBRANCH   7  13
TORSDOF 7
ENDMDL
MODEL 4
REMARK VINA RESULT:      -5.5      1.575      1.955
REMARK  Name = 38030170
REMARK  10 active torsions:
REMARK  status: ('A' for Active; 'I' for Inactive)
REMARK    1  A    between atoms: O_1  and  C_13
REMARK    2  A    between atoms: N_3  and  C_18
REMARK    3  A    between atoms: C_5  and  C_9
REMARK    4  A    between atoms: C_7  and  C_13
REMARK    5  A    between atoms: C_8  and  C_12
REMARK    6  A    between atoms: C_9  and  C_14
REMARK    7  A    between atoms: C_9  and  C_15
REMARK    8  A    between atoms: C_10  and  C_16
REMARK    9  A    between atoms: C_12  and  C_17
REMARK   10  A    between atoms: C_18  and  C_19
REMARK                            x       y       z     vdW  Elec       q    Type
REMARK                         _______ _______ _______ _____ _____    ______ ____
ROOT
ATOM      5  C   UNL     1      -6.888 -11.599  16.747  0.00  0.00    +0.001 C 
ATOM      6  C   UNL     1      -5.650 -12.371  16.264  0.00  0.00    +0.012 C 
ATOM      7  C   UNL     1      -7.170 -11.911  18.238  0.00  0.00    +0.040 C 
ATOM      8  C   UNL     1      -4.392 -12.026  17.082  0.00  0.00    +0.023 C 
ATOM     10  C   UNL     1      -4.664 -12.049  18.572  0.00  0.00    -0.073 C 
ATOM     11  C   UNL     1      -5.913 -12.011  19.070  0.00  0.00    -0.022 C 
ATOM     16  C   UNL     1      -3.470 -12.165  19.477  0.00  0.00    +0.039 C 
ENDROOT
BRANCH   5   9
ATOM      9  C   UNL     1      -8.089 -11.936  15.859  0.00  0.00    -0.013 C 
ATOM     14  C   UNL     1      -8.174 -10.963  14.687  0.00  0.00    +0.007 C 
ATOM     15  C   UNL     1      -7.997 -13.375  15.361  0.00  0.00    +0.007 C 
ENDBRANCH   5   9
BRANCH   8  12
ATOM     12  C   UNL     1      -3.808 -10.675  16.653  0.00  0.00    +0.103 C 
BRANCH  12  17
ATOM      2  O   UNL     1      -1.634 -11.205  15.733  0.00  0.00    -0.276 OA
ATOM      3  N   UNL     1      -3.325 -10.466  14.320  0.00  0.00    -0.311 N 
ATOM     17  C   UNL     1      -2.786 -10.822  15.548  0.00  0.00    +0.214 C 
ATOM     25  H   UNL     1      -4.293 -10.163  14.267  0.00  0.00    +0.149 HD
BRANCH   3  18
ATOM     18  C   UNL     1      -2.574 -10.507  13.087  0.00  0.00    +0.141 C 
BRANCH  18  19
ATOM      4  N   UNL     1      -5.595  -9.790  10.927  0.00  0.00    -0.263 NA
ATOM     19  C   UNL     1      -3.405 -10.090  11.909  0.00  0.00    -0.012 A 
ATOM     20  C   UNL     1      -2.810  -9.635  10.737  0.00  0.00    +0.008 A 
ATOM     21  C   UNL     1      -4.789 -10.148  11.953  0.00  0.00    +0.115 A 
ATOM     22  C   UNL     1      -3.605  -9.258   9.660  0.00  0.00    +0.020 A 
ATOM     23  C   UNL     1      -4.980  -9.353   9.805  0.00  0.00    +0.111 A 
ENDBRANCH  18  19
ENDBRANCH   3  18
ENDBRANCH  12  17
ENDBRANCH   8  12
BRANCH   7  13
ATOM     13  C   UNL     1      -8.108 -10.866  18.854  0.00  0.00    +0.163 C 
BRANCH  13   1
ATOM      1  O   UNL     1      -7.517 -10.388  20.047  0.00  0.00    -0.394 OA
ATOM     24  H   UNL     1      -8.125  -9.730  20.424  0.00  0.00    +0.209 HD
ENDBRANCH  13   1
ENDBRANCH   7  13
TORSDOF 7
ENDMDL
MODEL 5
REMARK VINA RESULT:      -5.4      2.451      6.884
REMARK  Name = 38030170
REMARK  10 active torsions:
REMARK  status: ('A' for Active; 'I' for Inactive)
REMARK    1  A    between atoms: O_1  and  C_13
REMARK    2  A    between atoms: N_3  and  C_18
REMARK    3  A    between atoms: C_5  and  C_9
REMARK    4  A    between atoms: C_7  and  C_13
REMARK    5  A    between atoms: C_8  and  C_12
REMARK    6  A    between atoms: C_9  and  C_14
REMARK    7  A    between atoms: C_9  and  C_15
REMARK    8  A    between atoms: C_10  and  C_16
REMARK    9  A    between atoms: C_12  and  C_17
REMARK   10  A    between atoms: C_18  and  C_19
REMARK                            x       y       z     vdW  Elec       q    Type
REMARK                         _______ _______ _______ _____ _____    ______ ____
ROOT
ATOM      5  C   UNL     1      -2.882 -10.814  13.208  0.00  0.00    +0.001 C 
ATOM      6  C   UNL     1      -4.233 -11.521  13.020  0.00  0.00    +0.012 C 
ATOM      7  C   UNL     1      -2.189 -10.600  11.839  0.00  0.00    +0.040 C 
ATOM      8  C   UNL     1      -5.186 -10.724  12.109  0.00  0.00    +0.023 C 
ATOM     10  C   UNL     1      -4.492 -10.245  10.851  0.00  0.00    -0.073 C 
ATOM     11  C   UNL     1      -3.152 -10.209  10.743  0.00  0.00    -0.022 C 
ATOM     16  C   UNL     1      -5.375  -9.850   9.700  0.00  0.00    +0.039 C 
ENDROOT
BRANCH   5   9
ATOM      9  C   UNL     1      -2.004 -11.620  14.170  0.00  0.00    -0.013 C 
ATOM     14  C   UNL     1      -1.649 -10.783  15.395  0.00  0.00    +0.007 C 
ATOM     15  C   UNL     1      -2.709 -12.909  14.582  0.00  0.00    +0.007 C 
ENDBRANCH   5   9
BRANCH   8  12
ATOM     12  C   UNL     1      -5.821  -9.552  12.866  0.00  0.00    +0.103 C 
BRANCH  12  17
ATOM      2  O   UNL     1      -7.699 -10.764  13.791  0.00  0.00    -0.276 OA
ATOM      3  N   UNL     1      -6.352  -9.497  15.196  0.00  0.00    -0.311 N 
ATOM     17  C   UNL     1      -6.740 -10.020  13.972  0.00  0.00    +0.214 C 
ATOM     25  H   UNL     1      -5.538  -8.890  15.247  0.00  0.00    +0.149 HD
BRANCH   3  18
ATOM     18  C   UNL     1      -7.050  -9.774  16.430  0.00  0.00    +0.141 C 
BRANCH  18  19
ATOM      4  N   UNL     1      -5.827 -11.256  19.688  0.00  0.00    -0.263 NA
ATOM     19  C   UNL     1      -6.175 -10.481  17.424  0.00  0.00    -0.012 A 
ATOM     20  C   UNL     1      -4.942 -11.003  17.048  0.00  0.00    +0.008 A 
ATOM     21  C   UNL     1      -6.568 -10.632  18.744  0.00  0.00    +0.115 A 
ATOM     22  C   UNL     1      -4.151 -11.651  17.991  0.00  0.00    +0.020 A 
ATOM     23  C   UNL     1      -4.634 -11.750  19.285  0.00  0.00    +0.111 A 
ENDBRANCH  18  19
ENDBRANCH   3  18
ENDBRANCH  12  17
ENDBRANCH   8  12
BRANCH   7  13
ATOM     13  C   UNL     1      -1.076  -9.550  11.940  0.00  0.00    +0.163 C 
BRANCH  13   1
ATOM      1  O   UNL     1      -1.039  -8.826  10.726  0.00  0.00    -0.394 OA
ATOM     24  H   UNL     1      -1.782  -8.198  10.744  0.00  0.00    +0.209 HD
ENDBRANCH  13   1
ENDBRANCH   7  13
TORSDOF 7
ENDMDL
MODEL 6
REMARK VINA RESULT:      -5.3      2.867      6.397
REMARK  Name = 38030170
REMARK  10 active torsions:
REMARK  status: ('A' for Active; 'I' for Inactive)
REMARK    1  A    between atoms: O_1  and  C_13
REMARK    2  A    between atoms: N_3  and  C_18
REMARK    3  A    between atoms: C_5  and  C_9
REMARK    4  A    between atoms: C_7  and  C_13
REMARK    5  A    between atoms: C_8  and  C_12
REMARK    6  A    between atoms: C_9  and  C_14
REMARK    7  A    between atoms: C_9  and  C_15
REMARK    8  A    between atoms: C_10  and  C_16
REMARK    9  A    between atoms: C_12  and  C_17
REMARK   10  A    between atoms: C_18  and  C_19
REMARK                            x       y       z     vdW  Elec       q    Type
REMARK                         _______ _______ _______ _____ _____    ______ ____
ROOT
ATOM      5  C   UNL     1      -5.868 -10.344  10.182  0.00  0.00    +0.001 C 
ATOM      6  C   UNL     1      -5.460  -9.948  11.610  0.00  0.00    +0.012 C 
ATOM      7  C   UNL     1      -5.105  -9.483   9.144  0.00  0.00    +0.040 C 
ATOM      8  C   UNL     1      -3.948 -10.118  11.851  0.00  0.00    +0.023 C 
ATOM     10  C   UNL     1      -3.127  -9.525  10.724  0.00  0.00    -0.073 C 
ATOM     11  C   UNL     1      -3.665  -9.235   9.525  0.00  0.00    -0.022 C 
ATOM     16  C   UNL     1      -1.684  -9.229  11.020  0.00  0.00    +0.039 C 
ENDROOT
BRANCH   5   9
ATOM      9  C   UNL     1      -7.386 -10.215  10.022  0.00  0.00    -0.013 C 
ATOM     14  C   UNL     1      -8.104 -10.947  11.150  0.00  0.00    +0.007 C 
ATOM     15  C   UNL     1      -7.794  -8.745   9.985  0.00  0.00    +0.007 C 
ENDBRANCH   5   9
BRANCH   8  12
ATOM     12  C   UNL     1      -3.587 -11.590  12.077  0.00  0.00    +0.103 C 
BRANCH  12  17
ATOM      2  O   UNL     1      -3.052 -13.012  13.959  0.00  0.00    -0.276 OA
ATOM      3  N   UNL     1      -3.280 -10.722  14.283  0.00  0.00    -0.311 N 
ATOM     17  C   UNL     1      -3.275 -11.884  13.527  0.00  0.00    +0.214 C 
ATOM     25  H   UNL     1      -3.473  -9.832  13.833  0.00  0.00    +0.149 HD
BRANCH   3  18
ATOM     18  C   UNL     1      -3.016 -10.704  15.704  0.00  0.00    +0.141 C 
BRANCH  18  19
ATOM      4  N   UNL     1      -6.525  -9.680  16.677  0.00  0.00    -0.263 NA
ATOM     19  C   UNL     1      -4.275 -10.549  16.507  0.00  0.00    -0.012 A 
ATOM     20  C   UNL     1      -4.382 -11.096  17.781  0.00  0.00    +0.008 A 
ATOM     21  C   UNL     1      -5.364  -9.856  16.005  0.00  0.00    +0.115 A 
ATOM     22  C   UNL     1      -5.560 -10.936  18.504  0.00  0.00    +0.020 A 
ATOM     23  C   UNL     1      -6.592 -10.226  17.912  0.00  0.00    +0.111 A 
ENDBRANCH  18  19
ENDBRANCH   3  18
ENDBRANCH  12  17
ENDBRANCH   8  12
BRANCH   7  13
ATOM     13  C   UNL     1      -5.162 -10.118   7.750  0.00  0.00    +0.163 C 
BRANCH  13   1
ATOM      1  O   UNL     1      -5.873  -9.246   6.894  0.00  0.00    -0.394 OA
ATOM     24  H   UNL     1      -5.349  -9.153   6.079  0.00  0.00    +0.209 HD
ENDBRANCH  13   1
ENDBRANCH   7  13
TORSDOF 7
ENDMDL
MODEL 7
REMARK VINA RESULT:      -5.3     22.604     24.952
REMARK  Name = 38030170
REMARK  10 active torsions:
REMARK  status: ('A' for Active; 'I' for Inactive)
REMARK    1  A    between atoms: O_1  and  C_13
REMARK    2  A    between atoms: N_3  and  C_18
REMARK    3  A    between atoms: C_5  and  C_9
REMARK    4  A    between atoms: C_7  and  C_13
REMARK    5  A    between atoms: C_8  and  C_12
REMARK    6  A    between atoms: C_9  and  C_14
REMARK    7  A    between atoms: C_9  and  C_15
REMARK    8  A    between atoms: C_10  and  C_16
REMARK    9  A    between atoms: C_12  and  C_17
REMARK   10  A    between atoms: C_18  and  C_19
REMARK                            x       y       z     vdW  Elec       q    Type
REMARK                         _______ _______ _______ _____ _____    ______ ____
ROOT
ATOM      5  C   UNL     1       8.921   8.162   5.827  0.00  0.00    +0.001 C 
ATOM      6  C   UNL     1       8.533   6.829   5.167  0.00  0.00    +0.012 C 
ATOM      7  C   UNL     1       8.731   8.080   7.363  0.00  0.00    +0.040 C 
ATOM      8  C   UNL     1       9.369   5.651   5.701  0.00  0.00    +0.023 C 
ATOM     10  C   UNL     1       9.452   5.658   7.214  0.00  0.00    -0.073 C 
ATOM     11  C   UNL     1       9.149   6.749   7.940  0.00  0.00    -0.022 C 
ATOM     16  C   UNL     1       9.845   4.368   7.877  0.00  0.00    +0.039 C 
ENDROOT
BRANCH   5   9
ATOM      9  C   UNL     1       8.102   9.302   5.213  0.00  0.00    -0.013 C 
ATOM     14  C   UNL     1       8.995  10.507   4.934  0.00  0.00    +0.007 C 
ATOM     15  C   UNL     1       7.411   8.834   3.936  0.00  0.00    +0.007 C 
ENDBRANCH   5   9
BRANCH   8  12
ATOM     12  C   UNL     1      10.768   5.638   5.075  0.00  0.00    +0.103 C 
BRANCH  12  17
ATOM      2  O   UNL     1      10.789   6.730   2.917  0.00  0.00    -0.276 OA
ATOM      3  N   UNL     1      10.575   4.419   3.028  0.00  0.00    -0.311 N 
ATOM     17  C   UNL     1      10.716   5.689   3.565  0.00  0.00    +0.214 C 
ATOM     25  H   UNL     1      10.527   3.615   3.648  0.00  0.00    +0.149 HD
BRANCH   3  18
ATOM     18  C   UNL     1      10.496   4.166   1.608  0.00  0.00    +0.141 C 
BRANCH  18  19
ATOM      4  N   UNL     1      14.176   3.379   1.226  0.00  0.00    -0.263 NA
ATOM     19  C   UNL     1      11.855   4.013   0.988  0.00  0.00    -0.012 A 
ATOM     20  C   UNL     1      12.076   4.348  -0.344  0.00  0.00    +0.008 A 
ATOM     21  C   UNL     1      12.928   3.538   1.723  0.00  0.00    +0.115 A 
ATOM     22  C   UNL     1      13.346   4.198  -0.892  0.00  0.00    +0.020 A 
ATOM     23  C   UNL     1      14.352   3.714  -0.072  0.00  0.00    +0.111 A 
ENDBRANCH  18  19
ENDBRANCH   3  18
ENDBRANCH  12  17
ENDBRANCH   8  12
BRANCH   7  13
ATOM     13  C   UNL     1       9.488   9.207   8.075  0.00  0.00    +0.163 C 
BRANCH  13   1
ATOM      1  O   UNL     1      10.843   9.152   7.675  0.00  0.00    -0.394 OA
ATOM     24  H   UNL     1      10.995   9.898   7.071  0.00  0.00    +0.209 HD
ENDBRANCH  13   1
ENDBRANCH   7  13
TORSDOF 7
ENDMDL
MODEL 8
REMARK VINA RESULT:      -5.2     25.652     27.688
REMARK  Name = 38030170
REMARK  10 active torsions:
REMARK  status: ('A' for Active; 'I' for Inactive)
REMARK    1  A    between atoms: O_1  and  C_13
REMARK    2  A    between atoms: N_3  and  C_18
REMARK    3  A    between atoms: C_5  and  C_9
REMARK    4  A    between atoms: C_7  and  C_13
REMARK    5  A    between atoms: C_8  and  C_12
REMARK    6  A    between atoms: C_9  and  C_14
REMARK    7  A    between atoms: C_9  and  C_15
REMARK    8  A    between atoms: C_10  and  C_16
REMARK    9  A    between atoms: C_12  and  C_17
REMARK   10  A    between atoms: C_18  and  C_19
REMARK                            x       y       z     vdW  Elec       q    Type
REMARK                         _______ _______ _______ _____ _____    ______ ____
ROOT
ATOM      5  C   UNL     1      12.867   9.342  20.819  0.00  0.00    +0.001 C 
ATOM      6  C   UNL     1      12.821  10.567  19.891  0.00  0.00    +0.012 C 
ATOM      7  C   UNL     1      11.669   8.403  20.532  0.00  0.00    +0.040 C 
ATOM      8  C   UNL     1      12.854  10.172  18.403  0.00  0.00    +0.023 C 
ATOM     10  C   UNL     1      11.881   9.053  18.095  0.00  0.00    -0.073 C 
ATOM     11  C   UNL     1      11.351   8.281  19.061  0.00  0.00    -0.022 C 
ATOM     16  C   UNL     1      11.493   8.870  16.654  0.00  0.00    +0.039 C 
ENDROOT
BRANCH   5   9
ATOM      9  C   UNL     1      12.895   9.799  22.280  0.00  0.00    -0.013 C 
ATOM     14  C   UNL     1      14.087  10.718  22.528  0.00  0.00    +0.007 C 
ATOM     15  C   UNL     1      11.589  10.497  22.645  0.00  0.00    +0.007 C 
ENDBRANCH   5   9
BRANCH   8  12
ATOM     12  C   UNL     1      14.274   9.800  17.962  0.00  0.00    +0.103 C 
BRANCH  12  17
ATOM      2  O   UNL     1      14.260   7.511  17.179  0.00  0.00    -0.276 OA
ATOM      3  N   UNL     1      15.106   7.993  19.289  0.00  0.00    -0.311 N 
ATOM     17  C   UNL     1      14.532   8.314  18.068  0.00  0.00    +0.214 C 
ATOM     25  H   UNL     1      15.297   8.730  19.961  0.00  0.00    +0.149 HD
BRANCH   3  18
ATOM     18  C   UNL     1      15.459   6.644  19.665  0.00  0.00    +0.141 C 
BRANCH  18  19
ATOM      4  N   UNL     1      19.071   5.542  19.883  0.00  0.00    -0.263 NA
ATOM     19  C   UNL     1      16.884   6.545  20.127  0.00  0.00    -0.012 A 
ATOM     20  C   UNL     1      17.349   7.317  21.186  0.00  0.00    +0.008 A 
ATOM     21  C   UNL     1      17.777   5.680  19.515  0.00  0.00    +0.115 A 
ATOM     22  C   UNL     1      18.674   7.202  21.595  0.00  0.00    +0.020 A 
ATOM     23  C   UNL     1      19.486   6.309  20.917  0.00  0.00    +0.111 A 
ENDBRANCH  18  19
ENDBRANCH   3  18
ENDBRANCH  12  17
ENDBRANCH   8  12
BRANCH   7  13
ATOM     13  C   UNL     1      11.909   7.007  21.119  0.00  0.00    +0.163 C 
BRANCH  13   1
ATOM      1  O   UNL     1      11.835   6.065  20.068  0.00  0.00    -0.394 OA
ATOM     24  H   UNL     1      10.928   6.095  19.718  0.00  0.00    +0.209 HD
ENDBRANCH  13   1
ENDBRANCH   7  13
TORSDOF 7
ENDMDL
MODEL 9
REMARK VINA RESULT:      -5.2     26.798     28.960
REMARK  Name = 38030170
REMARK  10 active torsions:
REMARK  status: ('A' for Active; 'I' for Inactive)
REMARK    1  A    between atoms: O_1  and  C_13
REMARK    2  A    between atoms: N_3  and  C_18
REMARK    3  A    between atoms: C_5  and  C_9
REMARK    4  A    between atoms: C_7  and  C_13
REMARK    5  A    between atoms: C_8  and  C_12
REMARK    6  A    between atoms: C_9  and  C_14
REMARK    7  A    between atoms: C_9  and  C_15
REMARK    8  A    between atoms: C_10  and  C_16
REMARK    9  A    between atoms: C_12  and  C_17
REMARK   10  A    between atoms: C_18  and  C_19
REMARK                            x       y       z     vdW  Elec       q    Type
REMARK                         _______ _______ _______ _____ _____    ______ ____
ROOT
ATOM      5  C   UNL     1      13.416  10.844  18.130  0.00  0.00    +0.001 C 
ATOM      6  C   UNL     1      13.785  10.530  19.588  0.00  0.00    +0.012 C 
ATOM      7  C   UNL     1      13.722   9.626  17.222  0.00  0.00    +0.040 C 
ATOM      8  C   UNL     1      13.021   9.309  20.133  0.00  0.00    +0.023 C 
ATOM     10  C   UNL     1      13.051   8.146  19.163  0.00  0.00    -0.073 C 
ATOM     11  C   UNL     1      13.381   8.305  17.868  0.00  0.00    -0.022 C 
ATOM     16  C   UNL     1      12.740   6.787  19.725  0.00  0.00    +0.039 C 
ENDROOT
BRANCH   5   9
ATOM      9  C   UNL     1      14.158  12.101  17.665  0.00  0.00    -0.013 C 
ATOM     14  C   UNL     1      13.569  13.341  18.328  0.00  0.00    +0.007 C 
ATOM     15  C   UNL     1      15.648  11.982  17.967  0.00  0.00    +0.007 C 
ENDBRANCH   5   9
BRANCH   8  12
ATOM     12  C   UNL     1      11.580   9.679  20.500  0.00  0.00    +0.103 C 
BRANCH  12  17
ATOM      2  O   UNL     1      11.425   8.566  22.643  0.00  0.00    -0.276 OA
ATOM      3  N   UNL     1      10.997  10.846  22.505  0.00  0.00    -0.311 N 
ATOM     17  C   UNL     1      11.334   9.603  21.991  0.00  0.00    +0.214 C 
ATOM     25  H   UNL     1      10.951  11.649  21.884  0.00  0.00    +0.149 HD
BRANCH   3  18
ATOM     18  C   UNL     1      10.706  11.070  23.902  0.00  0.00    +0.141 C 
BRANCH  18  19
ATOM      4  N   UNL     1      10.660  14.280  25.901  0.00  0.00    -0.263 NA
ATOM     19  C   UNL     1      10.623  12.532  24.231  0.00  0.00    -0.012 A 
ATOM     20  C   UNL     1      10.437  13.481  23.231  0.00  0.00    +0.008 A 
ATOM     21  C   UNL     1      10.728  12.979  25.538  0.00  0.00    +0.115 A 
ATOM     22  C   UNL     1      10.362  14.830  23.566  0.00  0.00    +0.020 A 
ATOM     23  C   UNL     1      10.478  15.174  24.902  0.00  0.00    +0.111 A 
ENDBRANCH  18  19
ENDBRANCH   3  18
ENDBRANCH  12  17
ENDBRANCH   8  12
BRANCH   7  13
ATOM     13  C   UNL     1      12.993   9.741  15.878  0.00  0.00    +0.163 C 
BRANCH  13   1
ATOM      1  O   UNL     1      13.336   8.618  15.090  0.00  0.00    -0.394 OA
ATOM     24  H   UNL     1      13.316   8.903  14.160  0.00  0.00    +0.209 HD
ENDBRANCH  13   1
ENDBRANCH   7  13
TORSDOF 7
ENDMDL
MODEL 10
REMARK VINA RESULT:      -5.1     26.740     28.840
REMARK  Name = 38030170
REMARK  10 active torsions:
REMARK  status: ('A' for Active; 'I' for Inactive)
REMARK    1  A    between atoms: O_1  and  C_13
REMARK    2  A    between atoms: N_3  and  C_18
REMARK    3  A    between atoms: C_5  and  C_9
REMARK    4  A    between atoms: C_7  and  C_13
REMARK    5  A    between atoms: C_8  and  C_12
REMARK    6  A    between atoms: C_9  and  C_14
REMARK    7  A    between atoms: C_9  and  C_15
REMARK    8  A    between atoms: C_10  and  C_16
REMARK    9  A    between atoms: C_12  and  C_17
REMARK   10  A    between atoms: C_18  and  C_19
REMARK                            x       y       z     vdW  Elec       q    Type
REMARK                         _______ _______ _______ _____ _____    ______ ____
ROOT
ATOM      5  C   UNL     1      12.922   8.631  20.786  0.00  0.00    +0.001 C 
ATOM      6  C   UNL     1      12.197   9.732  19.996  0.00  0.00    +0.012 C 
ATOM      7  C   UNL     1      13.330   7.470  19.845  0.00  0.00    +0.040 C 
ATOM      8  C   UNL     1      13.069  10.305  18.862  0.00  0.00    +0.023 C 
ATOM     10  C   UNL     1      13.727   9.209  18.049  0.00  0.00    -0.073 C 
ATOM     11  C   UNL     1      13.823   7.945  18.499  0.00  0.00    -0.022 C 
ATOM     16  C   UNL     1      14.232   9.589  16.685  0.00  0.00    +0.039 C 
ENDROOT
BRANCH   5   9
ATOM      9  C   UNL     1      12.032   8.146  21.935  0.00  0.00    -0.013 C 
ATOM     14  C   UNL     1      11.315   9.324  22.586  0.00  0.00    +0.007 C 
ATOM     15  C   UNL     1      11.029   7.113  21.431  0.00  0.00    +0.007 C 
ENDBRANCH   5   9
BRANCH   8  12
ATOM     12  C   UNL     1      14.113  11.284  19.410  0.00  0.00    +0.103 C 
BRANCH  12  17
ATOM      2  O   UNL     1      12.573  13.118  19.749  0.00  0.00    -0.276 OA
ATOM      3  N   UNL     1      14.059  12.546  21.440  0.00  0.00    -0.311 N 
ATOM     17  C   UNL     1      13.479  12.415  20.188  0.00  0.00    +0.214 C 
ATOM     25  H   UNL     1      14.805  11.912  21.715  0.00  0.00    +0.149 HD
BRANCH   3  18
ATOM     18  C   UNL     1      13.653  13.548  22.398  0.00  0.00    +0.141 C 
BRANCH  18  19
ATOM      4  N   UNL     1      12.318  11.708  25.421  0.00  0.00    -0.263 NA
ATOM     19  C   UNL     1      12.690  12.999  23.411  0.00  0.00    -0.012 A 
ATOM     20  C   UNL     1      11.325  13.242  23.306  0.00  0.00    +0.008 A 
ATOM     21  C   UNL     1      13.132  12.232  24.477  0.00  0.00    +0.115 A 
ATOM     22  C   UNL     1      10.455  12.719  24.257  0.00  0.00    +0.020 A 
ATOM     23  C   UNL     1      10.997  11.966  25.286  0.00  0.00    +0.111 A 
ENDBRANCH  18  19
ENDBRANCH   3  18
ENDBRANCH  12  17
ENDBRANCH   8  12
BRANCH   7  13
ATOM     13  C   UNL     1      14.398   6.581  20.494  0.00  0.00    +0.163 C 
BRANCH  13   1
ATOM      1  O   UNL     1      15.382   6.288  19.522  0.00  0.00    -0.394 OA
ATOM     24  H   UNL     1      15.814   5.460  19.793  0.00  0.00    +0.209 HD
ENDBRANCH  13   1
ENDBRANCH   7  13
TORSDOF 7
ENDMDL
