MODEL 1
REMARK VINA RESULT:      -6.4      0.000      0.000
REMARK  Name = 75367109
REMARK  6 active torsions:
REMARK  status: ('A' for Active; 'I' for Inactive)
REMARK    1  A    between atoms: O_2  and  C_9
REMARK    2  A    between atoms: N_4  and  C_7
REMARK    3  A    between atoms: N_4  and  C_8
REMARK    4  A    between atoms: N_5  and  C_16
REMARK    5  A    between atoms: C_12  and  C_16
REMARK    6  A    between atoms: C_17  and  C_18
REMARK                            x       y       z     vdW  Elec       q    Type
REMARK                         _______ _______ _______ _____ _____    ______ ____
ROOT
ATOM      1  O   UNL     1      11.122   7.338  20.568  0.00  0.00    -0.371 OA
ATOM      8  C   UNL     1      11.599   9.221  21.935  0.00  0.00    +0.111 C 
ATOM      9  C   UNL     1      12.905   8.592  21.484  0.00  0.00    +0.164 C 
ATOM     12  C   UNL     1      12.447   7.805  20.265  0.00  0.00    +0.165 C 
ATOM     15  C   UNL     1      10.618   8.086  21.688  0.00  0.00    +0.181 C 
ENDROOT
BRANCH   9   2
ATOM      2  O   UNL     1      13.888   9.553  21.154  0.00  0.00    -0.388 OA
ATOM     24  H   UNL     1      13.809   9.759  20.208  0.00  0.00    +0.210 HD
ENDBRANCH   9   2
BRANCH   8   4
ATOM      4  N   UNL     1      11.612   9.668  23.317  0.00  0.00    -0.306 NA
ATOM     23  H   UNL     1      12.395   9.246  23.816  0.00  0.00    +0.123 HD
BRANCH   4   7
ATOM      7  C   UNL     1      11.687  11.115  23.399  0.00  0.00    +0.054 C 
ATOM     10  C   UNL     1      11.122  11.806  22.164  0.00  0.00    +0.019 C 
ATOM     11  C   UNL     1      10.822  11.688  24.516  0.00  0.00    +0.019 C 
ATOM     13  C   UNL     1      10.883  13.239  22.630  0.00  0.00    +0.002 C 
ATOM     14  C   UNL     1      10.688  13.163  24.147  0.00  0.00    +0.002 C 
ENDBRANCH   4   7
ENDBRANCH   8   4
BRANCH  12  16
ATOM     16  C   UNL     1      13.346   6.626  19.939  0.00  0.00    +0.138 C 
BRANCH  16   5
ATOM      3  O   UNL     1      15.767   6.270  18.438  0.00  0.00    -0.270 OA
ATOM      5  N   UNL     1      14.685   6.846  20.407  0.00  0.00    -0.309 N 
ATOM     17  C   UNL     1      15.805   6.647  19.605  0.00  0.00    +0.244 C 
ATOM     25  H   UNL     1      14.790   7.094  21.385  0.00  0.00    +0.149 HD
BRANCH  17  18
ATOM      6  N   UNL     1      19.602   7.362  21.449  0.00  0.00    -0.263 NA
ATOM     18  C   UNL     1      17.122   6.894  20.246  0.00  0.00    +0.040 A 
ATOM     19  C   UNL     1      17.284   7.964  21.121  0.00  0.00    +0.033 A 
ATOM     20  C   UNL     1      18.200   6.059  19.973  0.00  0.00    +0.033 A 
ATOM     21  C   UNL     1      18.532   8.153  21.691  0.00  0.00    +0.111 A 
ATOM     22  C   UNL     1      19.408   6.333  20.593  0.00  0.00    +0.111 A 
ENDBRANCH  17  18
ENDBRANCH  16   5
ENDBRANCH  12  16
TORSDOF 6
ENDMDL
MODEL 2
REMARK VINA RESULT:      -6.4      1.840      7.380
REMARK  Name = 75367109
REMARK  6 active torsions:
REMARK  status: ('A' for Active; 'I' for Inactive)
REMARK    1  A    between atoms: O_2  and  C_9
REMARK    2  A    between atoms: N_4  and  C_7
REMARK    3  A    between atoms: N_4  and  C_8
REMARK    4  A    between atoms: N_5  and  C_16
REMARK    5  A    between atoms: C_12  and  C_16
REMARK    6  A    between atoms: C_17  and  C_18
REMARK                            x       y       z     vdW  Elec       q    Type
REMARK                         _______ _______ _______ _____ _____    ______ ____
ROOT
ATOM      1  O   UNL     1      11.232   6.859  20.825  0.00  0.00    -0.371 OA
ATOM      8  C   UNL     1      13.594   7.095  20.768  0.00  0.00    +0.111 C 
ATOM      9  C   UNL     1      12.987   8.339  21.390  0.00  0.00    +0.164 C 
ATOM     12  C   UNL     1      11.625   7.816  21.822  0.00  0.00    +0.165 C 
ATOM     15  C   UNL     1      12.392   6.497  20.056  0.00  0.00    +0.181 C 
ENDROOT
BRANCH   9   2
ATOM      2  O   UNL     1      13.738   8.824  22.485  0.00  0.00    -0.388 OA
ATOM     24  H   UNL     1      14.606   9.114  22.157  0.00  0.00    +0.210 HD
ENDBRANCH   9   2
BRANCH   8   4
ATOM      4  N   UNL     1      14.704   7.372  19.871  0.00  0.00    -0.306 NA
ATOM     23  H   UNL     1      14.911   8.370  19.866  0.00  0.00    +0.123 HD
BRANCH   4   7
ATOM      7  C   UNL     1      15.884   6.617  20.250  0.00  0.00    +0.054 C 
ATOM     10  C   UNL     1      16.670   6.109  19.048  0.00  0.00    +0.019 C 
ATOM     11  C   UNL     1      16.918   7.467  20.979  0.00  0.00    +0.019 C 
ATOM     13  C   UNL     1      18.039   5.766  19.630  0.00  0.00    +0.002 C 
ATOM     14  C   UNL     1      18.199   6.643  20.875  0.00  0.00    +0.002 C 
ENDBRANCH   4   7
ENDBRANCH   8   4
BRANCH  12  16
ATOM     16  C   UNL     1      10.571   8.904  21.933  0.00  0.00    +0.138 C 
BRANCH  16   5
ATOM      3  O   UNL     1      11.176  11.692  21.612  0.00  0.00    -0.270 OA
ATOM      5  N   UNL     1      10.893   9.837  22.975  0.00  0.00    -0.309 N 
ATOM     17  C   UNL     1      11.173  11.177  22.726  0.00  0.00    +0.244 C 
ATOM     25  H   UNL     1      10.974   9.460  23.914  0.00  0.00    +0.149 HD
BRANCH  17  18
ATOM      6  N   UNL     1      12.152  13.564  26.143  0.00  0.00    -0.263 NA
ATOM     18  C   UNL     1      11.514  12.006  23.911  0.00  0.00    +0.040 A 
ATOM     19  C   UNL     1      12.806  11.994  24.425  0.00  0.00    +0.033 A 
ATOM     20  C   UNL     1      10.540  12.797  24.513  0.00  0.00    +0.033 A 
ATOM     21  C   UNL     1      13.072  12.783  25.531  0.00  0.00    +0.111 A 
ATOM     22  C   UNL     1      10.907  13.550  25.616  0.00  0.00    +0.111 A 
ENDBRANCH  17  18
ENDBRANCH  16   5
ENDBRANCH  12  16
TORSDOF 6
ENDMDL
MODEL 3
REMARK VINA RESULT:      -6.3      1.954      7.090
REMARK  Name = 75367109
REMARK  6 active torsions:
REMARK  status: ('A' for Active; 'I' for Inactive)
REMARK    1  A    between atoms: O_2  and  C_9
REMARK    2  A    between atoms: N_4  and  C_7
REMARK    3  A    between atoms: N_4  and  C_8
REMARK    4  A    between atoms: N_5  and  C_16
REMARK    5  A    between atoms: C_12  and  C_16
REMARK    6  A    between atoms: C_17  and  C_18
REMARK                            x       y       z     vdW  Elec       q    Type
REMARK                         _______ _______ _______ _____ _____    ______ ____
ROOT
ATOM      1  O   UNL     1      13.293   9.168  19.277  0.00  0.00    -0.371 OA
ATOM      8  C   UNL     1      14.150   6.956  19.380  0.00  0.00    +0.111 C 
ATOM      9  C   UNL     1      12.719   6.956  19.884  0.00  0.00    +0.164 C 
ATOM     12  C   UNL     1      12.192   8.245  19.270  0.00  0.00    +0.165 C 
ATOM     15  C   UNL     1      14.508   8.429  19.488  0.00  0.00    +0.181 C 
ENDROOT
BRANCH   9   2
ATOM      2  O   UNL     1      11.988   5.827  19.452  0.00  0.00    -0.388 OA
ATOM     24  H   UNL     1      11.547   6.049  18.614  0.00  0.00    +0.210 HD
ENDBRANCH   9   2
BRANCH   8   4
ATOM      4  N   UNL     1      15.040   6.098  20.145  0.00  0.00    -0.306 NA
ATOM     23  H   UNL     1      15.050   5.159  19.749  0.00  0.00    +0.123 HD
BRANCH   4   7
ATOM      7  C   UNL     1      16.386   6.641  20.182  0.00  0.00    +0.054 C 
ATOM     10  C   UNL     1      17.004   6.590  21.573  0.00  0.00    +0.019 C 
ATOM     11  C   UNL     1      17.373   5.823  19.357  0.00  0.00    +0.019 C 
ATOM     13  C   UNL     1      18.498   6.764  21.310  0.00  0.00    +0.002 C 
ATOM     14  C   UNL     1      18.736   6.268  19.881  0.00  0.00    +0.002 C 
ENDBRANCH   4   7
ENDBRANCH   8   4
BRANCH  12  16
ATOM     16  C   UNL     1      11.020   8.837  20.033  0.00  0.00    +0.138 C 
BRANCH  16   5
ATOM      3  O   UNL     1      10.825   8.554  22.883  0.00  0.00    -0.270 OA
ATOM      5  N   UNL     1      11.463   9.779  21.020  0.00  0.00    -0.309 N 
ATOM     17  C   UNL     1      11.328   9.558  22.387  0.00  0.00    +0.244 C 
ATOM     25  H   UNL     1      11.827  10.662  20.676  0.00  0.00    +0.149 HD
BRANCH  17  18
ATOM      6  N   UNL     1      12.730  12.680  24.960  0.00  0.00    -0.263 NA
ATOM     18  C   UNL     1      11.814  10.642  23.279  0.00  0.00    +0.040 A 
ATOM     19  C   UNL     1      13.059  11.221  23.060  0.00  0.00    +0.033 A 
ATOM     20  C   UNL     1      11.026  11.081  24.338  0.00  0.00    +0.033 A 
ATOM     21  C   UNL     1      13.467  12.227  23.920  0.00  0.00    +0.111 A 
ATOM     22  C   UNL     1      11.525  12.093  25.142  0.00  0.00    +0.111 A 
ENDBRANCH  17  18
ENDBRANCH  16   5
ENDBRANCH  12  16
TORSDOF 6
ENDMDL
MODEL 4
REMARK VINA RESULT:      -6.2      1.654      7.016
REMARK  Name = 75367109
REMARK  6 active torsions:
REMARK  status: ('A' for Active; 'I' for Inactive)
REMARK    1  A    between atoms: O_2  and  C_9
REMARK    2  A    between atoms: N_4  and  C_7
REMARK    3  A    between atoms: N_4  and  C_8
REMARK    4  A    between atoms: N_5  and  C_16
REMARK    5  A    between atoms: C_12  and  C_16
REMARK    6  A    between atoms: C_17  and  C_18
REMARK                            x       y       z     vdW  Elec       q    Type
REMARK                         _______ _______ _______ _____ _____    ______ ____
ROOT
ATOM      1  O   UNL     1      15.056   6.847  18.363  0.00  0.00    -0.371 OA
ATOM      8  C   UNL     1      15.649   6.260  20.586  0.00  0.00    +0.111 C 
ATOM      9  C   UNL     1      14.413   7.139  20.619  0.00  0.00    +0.164 C 
ATOM     12  C   UNL     1      13.894   6.969  19.198  0.00  0.00    +0.165 C 
ATOM     15  C   UNL     1      16.191   6.554  19.197  0.00  0.00    +0.181 C 
ENDROOT
BRANCH   9   2
ATOM      2  O   UNL     1      13.467   6.715  21.581  0.00  0.00    -0.388 OA
ATOM     24  H   UNL     1      13.487   5.743  21.622  0.00  0.00    +0.210 HD
ENDBRANCH   9   2
BRANCH   8   4
ATOM      4  N   UNL     1      16.605   6.555  21.640  0.00  0.00    -0.306 NA
ATOM     23  H   UNL     1      16.894   5.693  22.104  0.00  0.00    +0.123 HD
BRANCH   4   7
ATOM      7  C   UNL     1      17.763   7.255  21.117  0.00  0.00    +0.054 C 
ATOM     10  C   UNL     1      17.892   8.672  21.660  0.00  0.00    +0.019 C 
ATOM     11  C   UNL     1      19.080   6.620  21.548  0.00  0.00    +0.019 C 
ATOM     13  C   UNL     1      19.343   9.042  21.365  0.00  0.00    +0.002 C 
ATOM     14  C   UNL     1      20.110   7.718  21.294  0.00  0.00    +0.002 C 
ENDBRANCH   4   7
ENDBRANCH   8   4
BRANCH  12  16
ATOM     16  C   UNL     1      13.042   8.135  18.727  0.00  0.00    +0.138 C 
BRANCH  16   5
ATOM      3  O   UNL     1      10.526   8.493  20.062  0.00  0.00    -0.270 OA
ATOM      5  N   UNL     1      12.763   9.044  19.802  0.00  0.00    -0.309 N 
ATOM     17  C   UNL     1      11.508   9.151  20.392  0.00  0.00    +0.244 C 
ATOM     25  H   UNL     1      13.516   9.667  20.077  0.00  0.00    +0.149 HD
BRANCH  17  18
ATOM      6  N   UNL     1      11.123  12.057  23.513  0.00  0.00    -0.263 NA
ATOM     18  C   UNL     1      11.376  10.159  21.475  0.00  0.00    +0.040 A 
ATOM     19  C   UNL     1      10.954   9.771  22.742  0.00  0.00    +0.033 A 
ATOM     20  C   UNL     1      11.671  11.495  21.226  0.00  0.00    +0.033 A 
ATOM     21  C   UNL     1      10.845  10.749  23.717  0.00  0.00    +0.111 A 
ATOM     22  C   UNL     1      11.529  12.397  22.268  0.00  0.00    +0.111 A 
ENDBRANCH  17  18
ENDBRANCH  16   5
ENDBRANCH  12  16
TORSDOF 6
ENDMDL
MODEL 5
REMARK VINA RESULT:      -6.1      2.042      7.180
REMARK  Name = 75367109
REMARK  6 active torsions:
REMARK  status: ('A' for Active; 'I' for Inactive)
REMARK    1  A    between atoms: O_2  and  C_9
REMARK    2  A    between atoms: N_4  and  C_7
REMARK    3  A    between atoms: N_4  and  C_8
REMARK    4  A    between atoms: N_5  and  C_16
REMARK    5  A    between atoms: C_12  and  C_16
REMARK    6  A    between atoms: C_17  and  C_18
REMARK                            x       y       z     vdW  Elec       q    Type
REMARK                         _______ _______ _______ _____ _____    ______ ____
ROOT
ATOM      1  O   UNL     1      11.234   6.672  20.901  0.00  0.00    -0.371 OA
ATOM      8  C   UNL     1      13.589   6.870  20.674  0.00  0.00    +0.111 C 
ATOM      9  C   UNL     1      13.061   8.079  21.424  0.00  0.00    +0.164 C 
ATOM     12  C   UNL     1      11.724   7.551  21.926  0.00  0.00    +0.165 C 
ATOM     15  C   UNL     1      12.322   6.344  20.020  0.00  0.00    +0.181 C 
ENDROOT
BRANCH   9   2
ATOM      2  O   UNL     1      13.905   8.474  22.487  0.00  0.00    -0.388 OA
ATOM     24  H   UNL     1      14.617   7.817  22.573  0.00  0.00    +0.210 HD
ENDBRANCH   9   2
BRANCH   8   4
ATOM      4  N   UNL     1      14.633   7.188  19.714  0.00  0.00    -0.306 NA
ATOM     23  H   UNL     1      14.780   8.196  19.676  0.00  0.00    +0.123 HD
BRANCH   4   7
ATOM      7  C   UNL     1      15.873   6.512  20.046  0.00  0.00    +0.054 C 
ATOM     10  C   UNL     1      16.626   6.021  18.815  0.00  0.00    +0.019 C 
ATOM     11  C   UNL     1      16.892   7.438  20.702  0.00  0.00    +0.019 C 
ATOM     13  C   UNL     1      18.040   5.773  19.332  0.00  0.00    +0.002 C 
ATOM     14  C   UNL     1      18.212   6.688  20.548  0.00  0.00    +0.002 C 
ENDBRANCH   4   7
ENDBRANCH   8   4
BRANCH  12  16
ATOM     16  C   UNL     1      10.708   8.648  22.191  0.00  0.00    +0.138 C 
BRANCH  16   5
ATOM      3  O   UNL     1      10.945  11.215  23.455  0.00  0.00    -0.270 OA
ATOM      5  N   UNL     1      11.094   9.880  21.565  0.00  0.00    -0.309 N 
ATOM     17  C   UNL     1      11.183  11.083  22.259  0.00  0.00    +0.244 C 
ATOM     25  H   UNL     1      11.240   9.854  20.561  0.00  0.00    +0.149 HD
BRANCH  17  18
ATOM      6  N   UNL     1      12.301  14.513  19.953  0.00  0.00    -0.263 NA
ATOM     18  C   UNL     1      11.572  12.274  21.460  0.00  0.00    +0.040 A 
ATOM     19  C   UNL     1      10.755  13.399  21.441  0.00  0.00    +0.033 A 
ATOM     20  C   UNL     1      12.753  12.267  20.726  0.00  0.00    +0.033 A 
ATOM     21  C   UNL     1      11.160  14.482  20.679  0.00  0.00    +0.111 A 
ATOM     22  C   UNL     1      13.069  13.400  19.995  0.00  0.00    +0.111 A 
ENDBRANCH  17  18
ENDBRANCH  16   5
ENDBRANCH  12  16
TORSDOF 6
ENDMDL
MODEL 6
REMARK VINA RESULT:      -6.0     25.966     27.961
REMARK  Name = 75367109
REMARK  6 active torsions:
REMARK  status: ('A' for Active; 'I' for Inactive)
REMARK    1  A    between atoms: O_2  and  C_9
REMARK    2  A    between atoms: N_4  and  C_7
REMARK    3  A    between atoms: N_4  and  C_8
REMARK    4  A    between atoms: N_5  and  C_16
REMARK    5  A    between atoms: C_12  and  C_16
REMARK    6  A    between atoms: C_17  and  C_18
REMARK                            x       y       z     vdW  Elec       q    Type
REMARK                         _______ _______ _______ _____ _____    ______ ____
ROOT
ATOM      1  O   UNL     1      -1.082 -11.420  15.160  0.00  0.00    -0.371 OA
ATOM      8  C   UNL     1      -3.206 -11.006  16.139  0.00  0.00    +0.111 C 
ATOM      9  C   UNL     1      -3.402 -11.709  14.808  0.00  0.00    +0.164 C 
ATOM     12  C   UNL     1      -2.033 -12.343  14.607  0.00  0.00    +0.165 C 
ATOM     15  C   UNL     1      -1.785 -10.486  15.997  0.00  0.00    +0.181 C 
ENDROOT
BRANCH   9   2
ATOM      2  O   UNL     1      -4.432 -12.677  14.849  0.00  0.00    -0.388 OA
ATOM     24  H   UNL     1      -5.198 -12.290  15.307  0.00  0.00    +0.210 HD
ENDBRANCH   9   2
BRANCH   8   4
ATOM      4  N   UNL     1      -4.173  -9.951  16.391  0.00  0.00    -0.306 NA
ATOM     23  H   UNL     1      -4.749  -9.797  15.564  0.00  0.00    +0.123 HD
BRANCH   4   7
ATOM      7  C   UNL     1      -5.011 -10.272  17.532  0.00  0.00    +0.054 C 
ATOM     10  C   UNL     1      -6.384 -10.796  17.127  0.00  0.00    +0.019 C 
ATOM     11  C   UNL     1      -4.457 -11.422  18.366  0.00  0.00    +0.019 C 
ATOM     13  C   UNL     1      -6.899 -11.473  18.394  0.00  0.00    +0.002 C 
ATOM     14  C   UNL     1      -5.656 -11.878  19.192  0.00  0.00    +0.002 C 
ENDBRANCH   4   7
ENDBRANCH   8   4
BRANCH  12  16
ATOM     16  C   UNL     1      -1.704 -12.609  13.148  0.00  0.00    +0.138 C 
BRANCH  16   5
ATOM      3  O   UNL     1      -1.479 -10.034  11.899  0.00  0.00    -0.270 OA
ATOM      5  N   UNL     1      -2.662 -11.992  12.276  0.00  0.00    -0.309 N 
ATOM     17  C   UNL     1      -2.469 -10.735  11.713  0.00  0.00    +0.244 C 
ATOM     25  H   UNL     1      -3.535 -12.490  12.135  0.00  0.00    +0.149 HD
BRANCH  17  18
ATOM      6  N   UNL     1      -5.634  -9.269   9.231  0.00  0.00    -0.263 NA
ATOM     18  C   UNL     1      -3.568 -10.225  10.853  0.00  0.00    +0.040 A 
ATOM     19  C   UNL     1      -4.836 -10.791  10.932  0.00  0.00    +0.033 A 
ATOM     20  C   UNL     1      -3.332  -9.182   9.964  0.00  0.00    +0.033 A 
ATOM     21  C   UNL     1      -5.826 -10.282  10.107  0.00  0.00    +0.111 A 
ATOM     22  C   UNL     1      -4.389  -8.745   9.181  0.00  0.00    +0.111 A 
ENDBRANCH  17  18
ENDBRANCH  16   5
ENDBRANCH  12  16
TORSDOF 6
ENDMDL
MODEL 7
REMARK VINA RESULT:      -5.9      3.936      8.913
REMARK  Name = 75367109
REMARK  6 active torsions:
REMARK  status: ('A' for Active; 'I' for Inactive)
REMARK    1  A    between atoms: O_2  and  C_9
REMARK    2  A    between atoms: N_4  and  C_7
REMARK    3  A    between atoms: N_4  and  C_8
REMARK    4  A    between atoms: N_5  and  C_16
REMARK    5  A    between atoms: C_12  and  C_16
REMARK    6  A    between atoms: C_17  and  C_18
REMARK                            x       y       z     vdW  Elec       q    Type
REMARK                         _______ _______ _______ _____ _____    ______ ____
ROOT
ATOM      1  O   UNL     1      17.859   7.110  21.362  0.00  0.00    -0.371 OA
ATOM      8  C   UNL     1      19.344   5.860  19.994  0.00  0.00    +0.111 C 
ATOM      9  C   UNL     1      17.915   5.549  19.587  0.00  0.00    +0.164 C 
ATOM     12  C   UNL     1      17.182   6.761  20.144  0.00  0.00    +0.165 C 
ATOM     15  C   UNL     1      19.140   6.457  21.377  0.00  0.00    +0.181 C 
ENDROOT
BRANCH   9   2
ATOM      2  O   UNL     1      17.760   5.435  18.187  0.00  0.00    -0.388 OA
ATOM     24  H   UNL     1      17.576   4.505  17.973  0.00  0.00    +0.210 HD
ENDBRANCH   9   2
BRANCH   8   4
ATOM      4  N   UNL     1      20.216   4.697  20.002  0.00  0.00    -0.306 NA
ATOM     23  H   UNL     1      20.636   4.567  19.082  0.00  0.00    +0.123 HD
BRANCH   4   7
ATOM      7  C   UNL     1      21.250   4.825  21.012  0.00  0.00    +0.054 C 
ATOM     10  C   UNL     1      21.741   3.478  21.527  0.00  0.00    +0.019 C 
ATOM     11  C   UNL     1      22.529   5.452  20.470  0.00  0.00    +0.019 C 
ATOM     13  C   UNL     1      23.073   3.811  22.196  0.00  0.00    +0.002 C 
ATOM     14  C   UNL     1      23.581   5.084  21.513  0.00  0.00    +0.002 C 
ENDBRANCH   4   7
ENDBRANCH   8   4
BRANCH  12  16
ATOM     16  C   UNL     1      15.714   6.494  20.430  0.00  0.00    +0.138 C 
BRANCH  16   5
ATOM      3  O   UNL     1      14.515   9.084  20.121  0.00  0.00    -0.270 OA
ATOM      5  N   UNL     1      14.883   6.930  19.344  0.00  0.00    -0.309 N 
ATOM     17  C   UNL     1      14.343   8.210  19.276  0.00  0.00    +0.244 C 
ATOM     25  H   UNL     1      14.646   6.233  18.645  0.00  0.00    +0.149 HD
BRANCH  17  18
ATOM      6  N   UNL     1      11.864   9.032  15.884  0.00  0.00    -0.263 NA
ATOM     18  C   UNL     1      13.482   8.497  18.100  0.00  0.00    +0.040 A 
ATOM     19  C   UNL     1      12.111   8.272  18.165  0.00  0.00    +0.033 A 
ATOM     20  C   UNL     1      14.045   8.989  16.926  0.00  0.00    +0.033 A 
ATOM     21  C   UNL     1      11.353   8.553  17.041  0.00  0.00    +0.111 A 
ATOM     22  C   UNL     1      13.201   9.237  15.856  0.00  0.00    +0.111 A 
ENDBRANCH  17  18
ENDBRANCH  16   5
ENDBRANCH  12  16
TORSDOF 6
ENDMDL
MODEL 8
REMARK VINA RESULT:      -5.9      3.239      8.729
REMARK  Name = 75367109
REMARK  6 active torsions:
REMARK  status: ('A' for Active; 'I' for Inactive)
REMARK    1  A    between atoms: O_2  and  C_9
REMARK    2  A    between atoms: N_4  and  C_7
REMARK    3  A    between atoms: N_4  and  C_8
REMARK    4  A    between atoms: N_5  and  C_16
REMARK    5  A    between atoms: C_12  and  C_16
REMARK    6  A    between atoms: C_17  and  C_18
REMARK                            x       y       z     vdW  Elec       q    Type
REMARK                         _______ _______ _______ _____ _____    ______ ____
ROOT
ATOM      1  O   UNL     1      18.374   7.752  21.958  0.00  0.00    -0.371 OA
ATOM      8  C   UNL     1      19.956   6.917  20.396  0.00  0.00    +0.111 C 
ATOM      9  C   UNL     1      18.716   6.041  20.362  0.00  0.00    +0.164 C 
ATOM     12  C   UNL     1      17.680   6.977  20.968  0.00  0.00    +0.165 C 
ATOM     15  C   UNL     1      19.789   7.623  21.731  0.00  0.00    +0.181 C 
ENDROOT
BRANCH   9   2
ATOM      2  O   UNL     1      18.366   5.642  19.052  0.00  0.00    -0.388 OA
ATOM     24  H   UNL     1      17.409   5.467  19.031  0.00  0.00    +0.210 HD
ENDBRANCH   9   2
BRANCH   8   4
ATOM      4  N   UNL     1      21.200   6.172  20.300  0.00  0.00    -0.306 NA
ATOM     23  H   UNL     1      21.987   6.813  20.202  0.00  0.00    +0.123 HD
BRANCH   4   7
ATOM      7  C   UNL     1      21.390   5.320  21.460  0.00  0.00    +0.054 C 
ATOM     10  C   UNL     1      21.505   3.845  21.095  0.00  0.00    +0.019 C 
ATOM     11  C   UNL     1      22.711   5.582  22.174  0.00  0.00    +0.019 C 
ATOM     13  C   UNL     1      22.133   3.215  22.336  0.00  0.00    +0.002 C 
ATOM     14  C   UNL     1      22.911   4.336  23.031  0.00  0.00    +0.002 C 
ENDBRANCH   4   7
ENDBRANCH   8   4
BRANCH  12  16
ATOM     16  C   UNL     1      16.515   6.246  21.611  0.00  0.00    +0.138 C 
BRANCH  16   5
ATOM      3  O   UNL     1      15.505   6.171  18.925  0.00  0.00    -0.270 OA
ATOM      5  N   UNL     1      15.257   6.764  21.154  0.00  0.00    -0.309 N 
ATOM     17  C   UNL     1      14.848   6.683  19.826  0.00  0.00    +0.244 C 
ATOM     25  H   UNL     1      14.694   7.260  21.836  0.00  0.00    +0.149 HD
BRANCH  17  18
ATOM      6  N   UNL     1      11.051   8.437  18.912  0.00  0.00    -0.263 NA
ATOM     18  C   UNL     1      13.529   7.290  19.509  0.00  0.00    +0.040 A 
ATOM     19  C   UNL     1      13.219   7.640  18.199  0.00  0.00    +0.033 A 
ATOM     20  C   UNL     1      12.601   7.513  20.520  0.00  0.00    +0.033 A 
ATOM     21  C   UNL     1      11.978   8.205  17.955  0.00  0.00    +0.111 A 
ATOM     22  C   UNL     1      11.388   8.085  20.173  0.00  0.00    +0.111 A 
ENDBRANCH  17  18
ENDBRANCH  16   5
ENDBRANCH  12  16
TORSDOF 6
ENDMDL
MODEL 9
REMARK VINA RESULT:      -5.9     28.255     30.878
REMARK  Name = 75367109
REMARK  6 active torsions:
REMARK  status: ('A' for Active; 'I' for Inactive)
REMARK    1  A    between atoms: O_2  and  C_9
REMARK    2  A    between atoms: N_4  and  C_7
REMARK    3  A    between atoms: N_4  and  C_8
REMARK    4  A    between atoms: N_5  and  C_16
REMARK    5  A    between atoms: C_12  and  C_16
REMARK    6  A    between atoms: C_17  and  C_18
REMARK                            x       y       z     vdW  Elec       q    Type
REMARK                         _______ _______ _______ _____ _____    ______ ____
ROOT
ATOM      1  O   UNL     1     -17.215   4.332  25.253  0.00  0.00    -0.371 OA
ATOM      8  C   UNL     1     -16.124   4.094  23.157  0.00  0.00    +0.111 C 
ATOM      9  C   UNL     1     -16.525   2.721  23.665  0.00  0.00    +0.164 C 
ATOM     12  C   UNL     1     -17.616   3.085  24.662  0.00  0.00    +0.165 C 
ATOM     15  C   UNL     1     -16.190   4.918  24.433  0.00  0.00    +0.181 C 
ENDROOT
BRANCH   9   2
ATOM      2  O   UNL     1     -17.008   1.879  22.638  0.00  0.00    -0.388 OA
ATOM     24  H   UNL     1     -17.905   1.588  22.876  0.00  0.00    +0.210 HD
ENDBRANCH   9   2
BRANCH   8   4
ATOM      4  N   UNL     1     -14.813   4.125  22.530  0.00  0.00    -0.306 NA
ATOM     23  H   UNL     1     -14.818   3.565  21.677  0.00  0.00    +0.123 HD
BRANCH   4   7
ATOM      7  C   UNL     1     -14.407   5.487  22.233  0.00  0.00    +0.054 C 
ATOM     10  C   UNL     1     -12.945   5.589  21.818  0.00  0.00    +0.019 C 
ATOM     11  C   UNL     1     -15.130   6.066  21.021  0.00  0.00    +0.019 C 
ATOM     13  C   UNL     1     -12.857   6.953  21.139  0.00  0.00    +0.002 C 
ATOM     14  C   UNL     1     -14.267   7.260  20.624  0.00  0.00    +0.002 C 
ENDBRANCH   4   7
ENDBRANCH   8   4
BRANCH  12  16
ATOM     16  C   UNL     1     -17.809   2.041  25.748  0.00  0.00    +0.138 C 
BRANCH  16   5
ATOM      3  O   UNL     1     -17.550   0.405  28.093  0.00  0.00    -0.270 OA
ATOM      5  N   UNL     1     -16.812   2.163  26.772  0.00  0.00    -0.309 N 
ATOM     17  C   UNL     1     -16.762   1.322  27.879  0.00  0.00    +0.244 C 
ATOM     25  H   UNL     1     -16.169   2.944  26.691  0.00  0.00    +0.149 HD
BRANCH  17  18
ATOM      6  N   UNL     1     -13.657   2.111  30.719  0.00  0.00    -0.263 NA
ATOM     18  C   UNL     1     -15.683   1.595  28.863  0.00  0.00    +0.040 A 
ATOM     19  C   UNL     1     -15.005   0.542  29.467  0.00  0.00    +0.033 A 
ATOM     20  C   UNL     1     -15.350   2.906  29.187  0.00  0.00    +0.033 A 
ATOM     21  C   UNL     1     -14.009   0.850  30.379  0.00  0.00    +0.111 A 
ATOM     22  C   UNL     1     -14.339   3.109  30.113  0.00  0.00    +0.111 A 
ENDBRANCH  17  18
ENDBRANCH  16   5
ENDBRANCH  12  16
TORSDOF 6
ENDMDL
MODEL 10
REMARK VINA RESULT:      -5.7     29.133     31.463
REMARK  Name = 75367109
REMARK  6 active torsions:
REMARK  status: ('A' for Active; 'I' for Inactive)
REMARK    1  A    between atoms: O_2  and  C_9
REMARK    2  A    between atoms: N_4  and  C_7
REMARK    3  A    between atoms: N_4  and  C_8
REMARK    4  A    between atoms: N_5  and  C_16
REMARK    5  A    between atoms: C_12  and  C_16
REMARK    6  A    between atoms: C_17  and  C_18
REMARK                            x       y       z     vdW  Elec       q    Type
REMARK                         _______ _______ _______ _____ _____    ______ ____
ROOT
ATOM      1  O   UNL     1     -17.054   1.079  25.024  0.00  0.00    -0.371 OA
ATOM      8  C   UNL     1     -16.311   3.329  24.861  0.00  0.00    +0.111 C 
ATOM      9  C   UNL     1     -16.549   2.991  26.321  0.00  0.00    +0.164 C 
ATOM     12  C   UNL     1     -16.485   1.470  26.284  0.00  0.00    +0.165 C 
ATOM     15  C   UNL     1     -17.100   2.232  24.166  0.00  0.00    +0.181 C 
ENDROOT
BRANCH   9   2
ATOM      2  O   UNL     1     -15.566   3.540  27.176  0.00  0.00    -0.388 OA
ATOM     24  H   UNL     1     -14.767   3.717  26.650  0.00  0.00    +0.210 HD
ENDBRANCH   9   2
BRANCH   8   4
ATOM      4  N   UNL     1     -16.750   4.664  24.491  0.00  0.00    -0.306 NA
ATOM     23  H   UNL     1     -16.921   5.222  25.327  0.00  0.00    +0.123 HD
BRANCH   4   7
ATOM      7  C   UNL     1     -15.773   5.320  23.642  0.00  0.00    +0.054 C 
ATOM     10  C   UNL     1     -14.408   4.643  23.681  0.00  0.00    +0.019 C 
ATOM     11  C   UNL     1     -16.131   5.244  22.162  0.00  0.00    +0.019 C 
ATOM     13  C   UNL     1     -13.705   5.177  22.436  0.00  0.00    +0.002 C 
ATOM     14  C   UNL     1     -14.817   5.563  21.456  0.00  0.00    +0.002 C 
ENDBRANCH   4   7
ENDBRANCH   8   4
BRANCH  12  16
ATOM     16  C   UNL     1     -17.248   0.810  27.420  0.00  0.00    +0.138 C 
BRANCH  16   5
ATOM      3  O   UNL     1     -15.031  -0.060  29.023  0.00  0.00    -0.270 OA
ATOM      5  N   UNL     1     -16.850   1.340  28.692  0.00  0.00    -0.309 N 
ATOM     17  C   UNL     1     -15.756   0.855  29.402  0.00  0.00    +0.244 C 
ATOM     25  H   UNL     1     -17.448   2.054  29.095  0.00  0.00    +0.149 HD
BRANCH  17  18
ATOM      6  N   UNL     1     -14.998   2.694  33.193  0.00  0.00    -0.263 NA
ATOM     18  C   UNL     1     -15.491   1.493  30.717  0.00  0.00    +0.040 A 
ATOM     19  C   UNL     1     -14.922   0.756  31.749  0.00  0.00    +0.033 A 
ATOM     20  C   UNL     1     -15.815   2.831  30.922  0.00  0.00    +0.033 A 
ATOM     21  C   UNL     1     -14.697   1.397  32.957  0.00  0.00    +0.111 A 
ATOM     22  C   UNL     1     -15.551   3.379  32.166  0.00  0.00    +0.111 A 
ENDBRANCH  17  18
ENDBRANCH  16   5
ENDBRANCH  12  16
TORSDOF 6
ENDMDL
