REMARK  Name = 26744574
REMARK  6 active torsions:
REMARK  status: ('A' for Active; 'I' for Inactive)
REMARK    1  A    between atoms: O_4  and  C_11
REMARK    2  A    between atoms: N_6  and  C_13
REMARK    3  A    between atoms: C_9  and  C_14
REMARK    4  A    between atoms: C_13  and  C_15
REMARK    5  A    between atoms: C_16  and  C_19
REMARK    6  A    between atoms: C_19  and  C_22
REMARK                            x       y       z     vdW  Elec       q    Type
REMARK                         _______ _______ _______ _____ _____    ______ ____
ROOT
ATOM      6  N   UNL     1       2.411   0.808   0.279  0.00  0.00    -0.285 NA
ATOM      9  C   UNL     1       1.987   2.172   0.653  0.00  0.00    +0.149 C 
ATOM     10  C   UNL     1       2.886   3.106  -0.179  0.00  0.00    +0.061 C 
ATOM     11  C   UNL     1       3.811   2.176  -0.954  0.00  0.00    +0.130 C 
ATOM     12  C   UNL     1       3.812   0.906  -0.124  0.00  0.00    +0.116 C 
ENDROOT
BRANCH   9  14
ATOM      5  O   UNL     1      -0.090   3.337   1.203  0.00  0.00    -0.336 OA
ATOM      7  N   UNL     1      -0.288   1.849  -0.458  0.00  0.00    -0.194 NA
ATOM      8  N   UNL     1      -1.431   3.380   0.800  0.00  0.00    -0.061 NA
ATOM     14  C   UNL     1       0.512   2.411   0.412  0.00  0.00    +0.245 A 
ATOM     16  C   UNL     1      -1.469   2.475  -0.182  0.00  0.00    +0.176 A 
BRANCH  16  19
ATOM     19  C   UNL     1      -2.704   2.175  -0.915  0.00  0.00    +0.116 C 
BRANCH  19  22
ATOM      1 CL   UNL     1      -1.940  -0.455  -2.362  0.00  0.00    -0.083 Cl
ATOM      3  F   UNL     1      -5.348  -2.543   0.732  0.00  0.00    -0.205 F 
ATOM     22  C   UNL     1      -3.401   0.885  -0.492  0.00  0.00    -0.021 A 
ATOM     24  C   UNL     1      -3.108  -0.337  -1.098  0.00  0.00    +0.047 A 
ATOM     25  C   UNL     1      -4.351   0.949   0.527  0.00  0.00    +0.008 A 
ATOM     26  C   UNL     1      -3.766  -1.495  -0.684  0.00  0.00    +0.058 A 
ATOM     27  C   UNL     1      -5.008  -0.209   0.941  0.00  0.00    +0.039 A 
ATOM     28  C   UNL     1      -4.716  -1.431   0.335  0.00  0.00    +0.125 A 
ENDBRANCH  19  22
ENDBRANCH  16  19
ENDBRANCH   9  14
BRANCH  11   4
ATOM      4  O   UNL     1       5.106   2.733  -1.063  0.00  0.00    -0.390 OA
ATOM     29  H   UNL     1       5.021   3.578  -1.537  0.00  0.00    +0.210 HD
ENDBRANCH  11   4
BRANCH   6  13
ATOM     13  C   UNL     1       2.213  -0.168   1.343  0.00  0.00    +0.120 C 
BRANCH  13  15
ATOM      2  F   UNL     1       2.064  -5.439  -0.642  0.00  0.00    -0.205 F 
ATOM     15  C   UNL     1       2.174  -1.576   0.813  0.00  0.00    -0.033 A 
ATOM     17  C   UNL     1       0.959  -2.141   0.425  0.00  0.00    +0.008 A 
ATOM     18  C   UNL     1       3.351  -2.316   0.709  0.00  0.00    +0.008 A 
ATOM     20  C   UNL     1       0.921  -3.446  -0.066  0.00  0.00    +0.038 A 
ATOM     21  C   UNL     1       3.314  -3.621   0.218  0.00  0.00    +0.038 A 
ATOM     23  C   UNL     1       2.099  -4.186  -0.170  0.00  0.00    +0.123 A 
ENDBRANCH  13  15
ENDBRANCH   6  13
TORSDOF 6
