REMARK  Name = 45361080
REMARK  6 active torsions:
REMARK  status: ('A' for Active; 'I' for Inactive)
REMARK    1  A    between atoms: N_4  and  C_17
REMARK    2  A    between atoms: N_5  and  C_16
REMARK    3  A    between atoms: C_12  and  C_15
REMARK    4  A    between atoms: C_15  and  C_18
REMARK    5  A    between atoms: C_16  and  C_19
REMARK    6  A    between atoms: C_18  and  C_20
REMARK                            x       y       z     vdW  Elec       q    Type
REMARK                         _______ _______ _______ _____ _____    ______ ____
ROOT
ATOM      1  O   UNL     1      -0.951  -0.747  -1.316  0.00  0.00    -0.274 OA
ATOM      4  N   UNL     1       0.588   2.084   0.831  0.00  0.00    -0.296 NA
ATOM      5  N   UNL     1      -2.719   0.671   0.153  0.00  0.00    -0.286 NA
ATOM      6  N   UNL     1       0.354   1.054  -1.854  0.00  0.00    -0.312 N 
ATOM      8  C   UNL     1      -0.889   2.148   0.750  0.00  0.00    +0.084 C 
ATOM      9  C   UNL     1      -1.598   1.428  -0.434  0.00  0.00    +0.161 C 
ATOM     10  C   UNL     1      -1.609   1.546   1.970  0.00  0.00    +0.036 C 
ATOM     11  C   UNL     1      -3.005   1.267   1.453  0.00  0.00    +0.087 C 
ATOM     12  C   UNL     1       1.297   2.739  -0.303  0.00  0.00    +0.074 C 
ATOM     13  C   UNL     1      -0.719   0.457  -1.219  0.00  0.00    +0.232 C 
ATOM     14  C   UNL     1       0.700   2.453  -1.694  0.00  0.00    +0.123 C 
ATOM     17  C   UNL     1       1.065   2.626   2.114  0.00  0.00    +0.105 C 
ATOM     30  H   UNL     1       0.932   0.477  -2.457  0.00  0.00    +0.149 HD
ENDROOT
BRANCH  12  15
ATOM     15  C   UNL     1       2.778   2.307  -0.335  0.00  0.00    +0.029 C 
BRANCH  15  18
ATOM     18  C   UNL     1       2.932   0.802  -0.233  0.00  0.00    +0.097 C 
BRANCH  18  20
ATOM      2  O   UNL     1       5.250   1.266  -0.407  0.00  0.00    -0.276 OA
ATOM      3  O   UNL     1       5.309  -3.555   0.695  0.00  0.00    -0.377 OA
ATOM      7  N   UNL     1       4.651  -0.968  -0.208  0.00  0.00    -0.297 N 
ATOM     20  C   UNL     1       4.383   0.397  -0.293  0.00  0.00    +0.216 C 
ATOM     23  C   UNL     1       6.032  -1.447  -0.253  0.00  0.00    +0.136 C 
ATOM     24  C   UNL     1       3.643  -2.034  -0.200  0.00  0.00    +0.136 C 
ATOM     27  C   UNL     1       6.264  -2.498   0.823  0.00  0.00    +0.179 C 
ATOM     28  C   UNL     1       3.976  -3.066   0.871  0.00  0.00    +0.179 C 
ENDBRANCH  18  20
ENDBRANCH  15  18
ENDBRANCH  12  15
BRANCH   5  16
ATOM     16  C   UNL     1      -3.899   0.629  -0.702  0.00  0.00    +0.120 C 
BRANCH  16  19
ATOM     19  C   UNL     1      -4.802  -0.524  -0.355  0.00  0.00    -0.033 A 
ATOM     21  C   UNL     1      -4.627  -1.759  -0.980  0.00  0.00    +0.005 A 
ATOM     22  C   UNL     1      -5.814  -0.358   0.590  0.00  0.00    +0.005 A 
ATOM     25  C   UNL     1      -5.464  -2.828  -0.659  0.00  0.00    +0.000 A 
ATOM     26  C   UNL     1      -6.651  -1.427   0.911  0.00  0.00    +0.000 A 
ATOM     29  C   UNL     1      -6.476  -2.662   0.286  0.00  0.00    +0.000 A 
ENDBRANCH  16  19
ENDBRANCH   5  16
TORSDOF 5
