MODEL 1
REMARK VINA RESULT:      -7.2      0.000      0.000
REMARK  Name = 11885131
REMARK  4 active torsions:
REMARK  status: ('A' for Active; 'I' for Inactive)
REMARK    1  A    between atoms: O_3  and  C_30
REMARK    2  A    between atoms: O_3  and  C_31
REMARK    3  A    between atoms: N_6  and  C_15
REMARK    4  A    between atoms: C_22  and  C_25
REMARK                            x       y       z     vdW  Elec       q    Type
REMARK                         _______ _______ _______ _____ _____    ______ ____
ROOT
ATOM      1  O   UNL     1      13.425   6.571   7.361  0.00  0.00    -0.253 OA
ATOM      2  O   UNL     1      10.633   7.059   2.038  0.00  0.00    -0.267 OA
ATOM      4  N   UNL     1      11.408   7.661   6.994  0.00  0.00    -0.285 N 
ATOM      5  N   UNL     1      10.040   6.660   4.257  0.00  0.00    -0.311 N 
ATOM      6  N   UNL     1      13.475   8.679   6.458  0.00  0.00    -0.296 N 
ATOM      7  C   UNL     1       9.344   8.530   5.857  0.00  0.00    +0.027 C 
ATOM      8  C   UNL     1       9.406   6.210   6.653  0.00  0.00    +0.054 C 
ATOM      9  C   UNL     1       8.526   7.452   6.552  0.00  0.00    +0.018 C 
ATOM     10  C   UNL     1      10.623   8.857   6.653  0.00  0.00    +0.114 C 
ATOM     11  C   UNL     1      10.634   6.529   7.521  0.00  0.00    +0.119 C 
ATOM     12  C   UNL     1       9.660   8.067   4.429  0.00  0.00    +0.130 C 
ATOM     13  C   UNL     1       9.851   5.732   5.284  0.00  0.00    +0.027 A 
ATOM     14  C   UNL     1      12.812   7.567   6.964  0.00  0.00    +0.302 C 
ATOM     16  C   UNL     1      10.089   4.428   5.066  0.00  0.00    +0.022 A 
ATOM     17  C   UNL     1      10.490   6.277   2.979  0.00  0.00    +0.259 A 
ATOM     22  C   UNL     1      10.785   4.814   2.775  0.00  0.00    +0.047 A 
ATOM     24  C   UNL     1      10.568   3.969   3.794  0.00  0.00    +0.015 A 
ATOM     32  H   UNL     1      12.979   9.540   6.279  0.00  0.00    +0.151 HD
ENDROOT
BRANCH   6  15
ATOM     15  C   UNL     1      14.917   8.739   6.367  0.00  0.00    +0.074 C 
ATOM     18  C   UNL     1      15.421   7.990   5.130  0.00  0.00    +0.022 C 
ATOM     19  C   UNL     1      15.410  10.190   6.377  0.00  0.00    +0.022 C 
ATOM     20  C   UNL     1      15.105   8.727   3.829  0.00  0.00    +0.002 C 
ATOM     21  C   UNL     1      15.093  10.924   5.074  0.00  0.00    +0.002 C 
ATOM     23  C   UNL     1      15.615  10.166   3.859  0.00  0.00    +0.000 C 
ENDBRANCH   6  15
BRANCH  22  25
ATOM     25  C   UNL     1      11.307   4.312   1.493  0.00  0.00    -0.012 A 
ATOM     26  C   UNL     1      10.543   4.431   0.332  0.00  0.00    +0.012 A 
ATOM     27  C   UNL     1      12.568   3.714   1.439  0.00  0.00    +0.012 A 
ATOM     28  C   UNL     1      11.038   3.953  -0.882  0.00  0.00    +0.046 A 
ATOM     29  C   UNL     1      13.063   3.238   0.225  0.00  0.00    +0.046 A 
ATOM     30  C   UNL     1      12.298   3.358  -0.936  0.00  0.00    +0.120 A 
BRANCH  30   3
ATOM      3  O   UNL     1      12.780   2.892  -2.120  0.00  0.00    -0.495 OA
ATOM     31  C   UNL     1      11.824   2.453  -3.083  0.00  0.00    +0.277 C 
ENDBRANCH  30   3
ENDBRANCH  22  25
TORSDOF 3
ENDMDL
MODEL 2
REMARK VINA RESULT:      -6.9     24.137     26.589
REMARK  Name = 11885131
REMARK  4 active torsions:
REMARK  status: ('A' for Active; 'I' for Inactive)
REMARK    1  A    between atoms: O_3  and  C_30
REMARK    2  A    between atoms: O_3  and  C_31
REMARK    3  A    between atoms: N_6  and  C_15
REMARK    4  A    between atoms: C_22  and  C_25
REMARK                            x       y       z     vdW  Elec       q    Type
REMARK                         _______ _______ _______ _____ _____    ______ ____
ROOT
ATOM      1  O   UNL     1      -3.539 -10.093  16.032  0.00  0.00    -0.253 OA
ATOM      2  O   UNL     1      -5.806 -12.403  10.943  0.00  0.00    -0.267 OA
ATOM      4  N   UNL     1      -3.194 -12.258  15.266  0.00  0.00    -0.285 N 
ATOM      5  N   UNL     1      -3.788 -12.470  12.108  0.00  0.00    -0.311 N 
ATOM      6  N   UNL     1      -5.201 -11.641  16.355  0.00  0.00    -0.296 N 
ATOM      7  C   UNL     1      -3.235 -14.302  13.806  0.00  0.00    +0.027 C 
ATOM      8  C   UNL     1      -1.603 -12.524  13.361  0.00  0.00    +0.054 C 
ATOM      9  C   UNL     1      -1.786 -14.037  13.422  0.00  0.00    +0.018 C 
ATOM     10  C   UNL     1      -3.570 -13.677  15.174  0.00  0.00    +0.114 C 
ATOM     11  C   UNL     1      -1.858 -11.926  14.755  0.00  0.00    +0.119 C 
ATOM     12  C   UNL     1      -4.146 -13.767  12.694  0.00  0.00    +0.130 C 
ATOM     13  C   UNL     1      -2.539 -11.891  12.349  0.00  0.00    +0.027 A 
ATOM     14  C   UNL     1      -3.950 -11.249  15.892  0.00  0.00    +0.302 C 
ATOM     16  C   UNL     1      -2.184 -10.767  11.707  0.00  0.00    +0.022 A 
ATOM     17  C   UNL     1      -4.712 -11.903  11.209  0.00  0.00    +0.259 A 
ATOM     22  C   UNL     1      -4.301 -10.622  10.534  0.00  0.00    +0.047 A 
ATOM     24  C   UNL     1      -3.083 -10.123  10.792  0.00  0.00    +0.015 A 
ATOM     32  H   UNL     1      -5.465 -12.615  16.373  0.00  0.00    +0.151 HD
ENDROOT
BRANCH   6  15
ATOM     15  C   UNL     1      -6.094 -10.722  17.026  0.00  0.00    +0.074 C 
ATOM     18  C   UNL     1      -7.551 -11.180  16.900  0.00  0.00    +0.022 C 
ATOM     19  C   UNL     1      -5.695 -10.538  18.494  0.00  0.00    +0.022 C 
ATOM     20  C   UNL     1      -7.852 -12.414  17.751  0.00  0.00    +0.002 C 
ATOM     21  C   UNL     1      -5.999 -11.774  19.342  0.00  0.00    +0.002 C 
ATOM     23  C   UNL     1      -7.456 -12.203  19.209  0.00  0.00    +0.000 C 
ENDBRANCH   6  15
BRANCH  22  25
ATOM     25  C   UNL     1      -5.209  -9.918   9.613  0.00  0.00    -0.012 A 
ATOM     26  C   UNL     1      -6.075  -8.936  10.098  0.00  0.00    +0.012 A 
ATOM     27  C   UNL     1      -5.206 -10.233   8.253  0.00  0.00    +0.012 A 
ATOM     28  C   UNL     1      -6.936  -8.272   9.225  0.00  0.00    +0.046 A 
ATOM     29  C   UNL     1      -6.066  -9.567   7.380  0.00  0.00    +0.046 A 
ATOM     30  C   UNL     1      -6.931  -8.586   7.866  0.00  0.00    +0.120 A 
BRANCH  30   3
ATOM      3  O   UNL     1      -7.771  -7.937   7.014  0.00  0.00    -0.495 OA
ATOM     31  C   UNL     1      -8.298  -6.685   7.451  0.00  0.00    +0.277 C 
ENDBRANCH  30   3
ENDBRANCH  22  25
TORSDOF 3
ENDMDL
MODEL 3
REMARK VINA RESULT:      -6.5     25.152     27.771
REMARK  Name = 11885131
REMARK  4 active torsions:
REMARK  status: ('A' for Active; 'I' for Inactive)
REMARK    1  A    between atoms: O_3  and  C_30
REMARK    2  A    between atoms: O_3  and  C_31
REMARK    3  A    between atoms: N_6  and  C_15
REMARK    4  A    between atoms: C_22  and  C_25
REMARK                            x       y       z     vdW  Elec       q    Type
REMARK                         _______ _______ _______ _____ _____    ______ ____
ROOT
ATOM      1  O   UNL     1      -6.797 -14.929  16.273  0.00  0.00    -0.253 OA
ATOM      2  O   UNL     1      -3.442 -10.485  13.957  0.00  0.00    -0.267 OA
ATOM      4  N   UNL     1      -5.608 -13.359  17.503  0.00  0.00    -0.285 N 
ATOM      5  N   UNL     1      -4.943 -10.763  15.719  0.00  0.00    -0.311 N 
ATOM      6  N   UNL     1      -4.536 -15.225  16.520  0.00  0.00    -0.296 N 
ATOM      7  C   UNL     1      -4.191 -11.369  18.088  0.00  0.00    +0.027 C 
ATOM      8  C   UNL     1      -6.578 -11.062  17.612  0.00  0.00    +0.054 C 
ATOM      9  C   UNL     1      -5.443 -10.628  18.534  0.00  0.00    +0.018 C 
ATOM     10  C   UNL     1      -4.386 -12.895  18.179  0.00  0.00    +0.114 C 
ATOM     11  C   UNL     1      -6.816 -12.572  17.778  0.00  0.00    +0.119 C 
ATOM     12  C   UNL     1      -3.831 -10.921  16.666  0.00  0.00    +0.130 C 
ATOM     13  C   UNL     1      -6.268 -10.746  16.161  0.00  0.00    +0.027 A 
ATOM     14  C   UNL     1      -5.722 -14.531  16.732  0.00  0.00    +0.302 C 
ATOM     16  C   UNL     1      -7.261 -10.476  15.299  0.00  0.00    +0.022 A 
ATOM     17  C   UNL     1      -4.601 -10.515  14.376  0.00  0.00    +0.259 A 
ATOM     22  C   UNL     1      -5.738 -10.255  13.425  0.00  0.00    +0.047 A 
ATOM     24  C   UNL     1      -6.988 -10.234  13.911  0.00  0.00    +0.015 A 
ATOM     32  H   UNL     1      -3.695 -14.978  17.021  0.00  0.00    +0.151 HD
ENDROOT
BRANCH   6  15
ATOM     15  C   UNL     1      -4.489 -16.451  15.754  0.00  0.00    +0.074 C 
ATOM     18  C   UNL     1      -4.222 -16.163  14.273  0.00  0.00    +0.022 C 
ATOM     19  C   UNL     1      -3.450 -17.420  16.327  0.00  0.00    +0.022 C 
ATOM     20  C   UNL     1      -2.786 -15.707  14.014  0.00  0.00    +0.002 C 
ATOM     21  C   UNL     1      -2.015 -16.961  16.066  0.00  0.00    +0.002 C 
ATOM     23  C   UNL     1      -1.771 -16.693  14.585  0.00  0.00    +0.000 C 
ENDBRANCH   6  15
BRANCH  22  25
ATOM     25  C   UNL     1      -5.498 -10.032  11.989  0.00  0.00    -0.012 A 
ATOM     26  C   UNL     1      -5.283 -11.118  11.139  0.00  0.00    +0.012 A 
ATOM     27  C   UNL     1      -5.484  -8.734  11.476  0.00  0.00    +0.012 A 
ATOM     28  C   UNL     1      -5.054 -10.906   9.780  0.00  0.00    +0.046 A 
ATOM     29  C   UNL     1      -5.256  -8.522  10.116  0.00  0.00    +0.046 A 
ATOM     30  C   UNL     1      -5.041  -9.609   9.268  0.00  0.00    +0.120 A 
BRANCH  30   3
ATOM      3  O   UNL     1      -4.818  -9.403   7.942  0.00  0.00    -0.495 OA
ATOM     31  C   UNL     1      -5.714 -10.032   7.027  0.00  0.00    +0.277 C 
ENDBRANCH  30   3
ENDBRANCH  22  25
TORSDOF 3
ENDMDL
MODEL 4
REMARK VINA RESULT:      -6.5     26.024     28.935
REMARK  Name = 11885131
REMARK  4 active torsions:
REMARK  status: ('A' for Active; 'I' for Inactive)
REMARK    1  A    between atoms: O_3  and  C_30
REMARK    2  A    between atoms: O_3  and  C_31
REMARK    3  A    between atoms: N_6  and  C_15
REMARK    4  A    between atoms: C_22  and  C_25
REMARK                            x       y       z     vdW  Elec       q    Type
REMARK                         _______ _______ _______ _____ _____    ______ ____
ROOT
ATOM      1  O   UNL     1      -5.627 -13.399  13.515  0.00  0.00    -0.253 OA
ATOM      2  O   UNL     1      -7.850  -8.797  16.716  0.00  0.00    -0.267 OA
ATOM      4  N   UNL     1      -4.493 -12.247  15.182  0.00  0.00    -0.285 N 
ATOM      5  N   UNL     1      -6.550 -10.692  17.110  0.00  0.00    -0.311 N 
ATOM      6  N   UNL     1      -4.711 -11.360  13.000  0.00  0.00    -0.296 N 
ATOM      7  C   UNL     1      -3.993 -10.646  17.052  0.00  0.00    +0.027 C 
ATOM      8  C   UNL     1      -5.160 -12.749  17.534  0.00  0.00    +0.054 C 
ATOM      9  C   UNL     1      -4.081 -11.799  18.042  0.00  0.00    +0.018 C 
ATOM     10  C   UNL     1      -3.627 -11.150  15.642  0.00  0.00    +0.114 C 
ATOM     11  C   UNL     1      -4.739 -13.310  16.165  0.00  0.00    +0.119 C 
ATOM     12  C   UNL     1      -5.324  -9.885  17.060  0.00  0.00    +0.130 C 
ATOM     13  C   UNL     1      -6.503 -12.054  17.416  0.00  0.00    +0.027 A 
ATOM     14  C   UNL     1      -4.990 -12.404  13.874  0.00  0.00    +0.302 C 
ATOM     16  C   UNL     1      -7.642 -12.747  17.578  0.00  0.00    +0.022 A 
ATOM     17  C   UNL     1      -7.768 -10.004  16.949  0.00  0.00    +0.259 A 
ATOM     22  C   UNL     1      -9.027 -10.815  17.099  0.00  0.00    +0.047 A 
ATOM     24  C   UNL     1      -8.920 -12.116  17.410  0.00  0.00    +0.015 A 
ATOM     32  H   UNL     1      -4.066 -10.627  13.257  0.00  0.00    +0.151 HD
ENDROOT
BRANCH   6  15
ATOM     15  C   UNL     1      -5.147 -11.375  11.621  0.00  0.00    +0.074 C 
ATOM     18  C   UNL     1      -6.166 -10.262  11.354  0.00  0.00    +0.022 C 
ATOM     19  C   UNL     1      -3.954 -11.278  10.664  0.00  0.00    +0.022 C 
ATOM     20  C   UNL     1      -5.527  -8.873  11.350  0.00  0.00    +0.002 C 
ATOM     21  C   UNL     1      -3.319  -9.888  10.662  0.00  0.00    +0.002 C 
ATOM     23  C   UNL     1      -4.349  -8.798  10.382  0.00  0.00    +0.000 C 
ENDBRANCH   6  15
BRANCH  22  25
ATOM     25  C   UNL     1     -10.355 -10.208  16.904  0.00  0.00    -0.012 A 
ATOM     26  C   UNL     1     -11.073  -9.729  18.000  0.00  0.00    +0.012 A 
ATOM     27  C   UNL     1     -10.896 -10.111  15.620  0.00  0.00    +0.012 A 
ATOM     28  C   UNL     1     -12.331  -9.155  17.814  0.00  0.00    +0.046 A 
ATOM     29  C   UNL     1     -12.154  -9.536  15.435  0.00  0.00    +0.046 A 
ATOM     30  C   UNL     1     -12.871  -9.057  16.532  0.00  0.00    +0.120 A 
BRANCH  30   3
ATOM      3  O   UNL     1     -14.097  -8.497  16.351  0.00  0.00    -0.495 OA
ATOM     31  C   UNL     1     -14.133  -7.124  15.963  0.00  0.00    +0.277 C 
ENDBRANCH  30   3
ENDBRANCH  22  25
TORSDOF 3
ENDMDL
MODEL 5
REMARK VINA RESULT:      -6.4      3.348      6.491
REMARK  Name = 11885131
REMARK  4 active torsions:
REMARK  status: ('A' for Active; 'I' for Inactive)
REMARK    1  A    between atoms: O_3  and  C_30
REMARK    2  A    between atoms: O_3  and  C_31
REMARK    3  A    between atoms: N_6  and  C_15
REMARK    4  A    between atoms: C_22  and  C_25
REMARK                            x       y       z     vdW  Elec       q    Type
REMARK                         _______ _______ _______ _____ _____    ______ ____
ROOT
ATOM      1  O   UNL     1       8.787   9.703   6.850  0.00  0.00    -0.253 OA
ATOM      2  O   UNL     1      12.731   6.828   3.308  0.00  0.00    -0.267 OA
ATOM      4  N   UNL     1       8.722   7.443   6.322  0.00  0.00    -0.285 N 
ATOM      5  N   UNL     1      11.600   6.417   5.305  0.00  0.00    -0.311 N 
ATOM      6  N   UNL     1       7.946   9.086   4.807  0.00  0.00    -0.296 N 
ATOM      7  C   UNL     1       9.353   5.196   5.391  0.00  0.00    +0.027 C 
ATOM      8  C   UNL     1      10.390   5.984   7.471  0.00  0.00    +0.054 C 
ATOM      9  C   UNL     1       9.793   4.761   6.782  0.00  0.00    +0.018 C 
ATOM     10  C   UNL     1       8.303   6.322   5.467  0.00  0.00    +0.114 C 
ATOM     11  C   UNL     1       9.305   7.064   7.615  0.00  0.00    +0.119 C 
ATOM     12  C   UNL     1      10.592   5.622   4.593  0.00  0.00    +0.130 C 
ATOM     13  C   UNL     1      11.570   6.538   6.696  0.00  0.00    +0.027 A 
ATOM     14  C   UNL     1       8.507   8.807   6.048  0.00  0.00    +0.302 C 
ATOM     16  C   UNL     1      12.569   7.164   7.339  0.00  0.00    +0.022 A 
ATOM     17  C   UNL     1      12.651   6.947   4.532  0.00  0.00    +0.259 A 
ATOM     22  C   UNL     1      13.737   7.677   5.276  0.00  0.00    +0.047 A 
ATOM     24  C   UNL     1      13.662   7.746   6.614  0.00  0.00    +0.015 A 
ATOM     32  H   UNL     1       7.583   8.345   4.224  0.00  0.00    +0.151 HD
ENDROOT
BRANCH   6  15
ATOM     15  C   UNL     1       7.657  10.437   4.380  0.00  0.00    +0.074 C 
ATOM     18  C   UNL     1       8.332  10.746   3.040  0.00  0.00    +0.022 C 
ATOM     19  C   UNL     1       6.146  10.682   4.311  0.00  0.00    +0.022 C 
ATOM     20  C   UNL     1       7.670  10.018   1.870  0.00  0.00    +0.002 C 
ATOM     21  C   UNL     1       5.488   9.953   3.140  0.00  0.00    +0.002 C 
ATOM     23  C   UNL     1       6.169  10.286   1.816  0.00  0.00    +0.000 C 
ENDBRANCH   6  15
BRANCH  22  25
ATOM     25  C   UNL     1      14.857   8.313   4.563  0.00  0.00    -0.012 A 
ATOM     26  C   UNL     1      16.039   7.603   4.344  0.00  0.00    +0.012 A 
ATOM     27  C   UNL     1      14.739   9.626   4.105  0.00  0.00    +0.012 A 
ATOM     28  C   UNL     1      17.101   8.207   3.669  0.00  0.00    +0.046 A 
ATOM     29  C   UNL     1      15.800  10.229   3.429  0.00  0.00    +0.046 A 
ATOM     30  C   UNL     1      16.981   9.519   3.211  0.00  0.00    +0.120 A 
BRANCH  30   3
ATOM      3  O   UNL     1      18.016  10.107   2.552  0.00  0.00    -0.495 OA
ATOM     31  C   UNL     1      19.334   9.783   2.993  0.00  0.00    +0.277 C 
ENDBRANCH  30   3
ENDBRANCH  22  25
TORSDOF 3
ENDMDL
MODEL 6
REMARK VINA RESULT:      -6.4     24.704     28.070
REMARK  Name = 11885131
REMARK  4 active torsions:
REMARK  status: ('A' for Active; 'I' for Inactive)
REMARK    1  A    between atoms: O_3  and  C_30
REMARK    2  A    between atoms: O_3  and  C_31
REMARK    3  A    between atoms: N_6  and  C_15
REMARK    4  A    between atoms: C_22  and  C_25
REMARK                            x       y       z     vdW  Elec       q    Type
REMARK                         _______ _______ _______ _____ _____    ______ ____
ROOT
ATOM      1  O   UNL     1      19.735  -5.469  25.833  0.00  0.00    -0.253 OA
ATOM      2  O   UNL     1      16.406  -2.393  29.811  0.00  0.00    -0.267 OA
ATOM      4  N   UNL     1      20.394  -3.528  26.924  0.00  0.00    -0.285 N 
ATOM      5  N   UNL     1      18.633  -3.044  29.575  0.00  0.00    -0.311 N 
ATOM      6  N   UNL     1      18.948  -3.461  25.053  0.00  0.00    -0.296 N 
ATOM      7  C   UNL     1      20.395  -1.552  28.474  0.00  0.00    +0.027 C 
ATOM      8  C   UNL     1      21.033  -3.763  29.325  0.00  0.00    +0.054 C 
ATOM      9  C   UNL     1      21.383  -2.280  29.375  0.00  0.00    +0.018 C 
ATOM     10  C   UNL     1      20.486  -2.064  27.023  0.00  0.00    +0.114 C 
ATOM     11  C   UNL     1      21.211  -4.277  27.887  0.00  0.00    +0.119 C 
ATOM     12  C   UNL     1      18.985  -1.717  29.053  0.00  0.00    +0.130 C 
ATOM     13  C   UNL     1      19.612  -4.016  29.791  0.00  0.00    +0.027 A 
ATOM     14  C   UNL     1      19.694  -4.239  25.931  0.00  0.00    +0.302 C 
ATOM     16  C   UNL     1      19.289  -5.177  30.384  0.00  0.00    +0.022 A 
ATOM     17  C   UNL     1      17.290  -3.241  29.951  0.00  0.00    +0.259 A 
ATOM     22  C   UNL     1      16.950  -4.567  30.578  0.00  0.00    +0.047 A 
ATOM     24  C   UNL     1      17.937  -5.454  30.775  0.00  0.00    +0.015 A 
ATOM     32  H   UNL     1      19.039  -2.456  25.046  0.00  0.00    +0.151 HD
ENDROOT
BRANCH   6  15
ATOM     15  C   UNL     1      18.178  -4.042  23.975  0.00  0.00    +0.074 C 
ATOM     18  C   UNL     1      16.687  -4.086  24.325  0.00  0.00    +0.022 C 
ATOM     19  C   UNL     1      18.418  -3.293  22.660  0.00  0.00    +0.022 C 
ATOM     20  C   UNL     1      16.042  -2.701  24.312  0.00  0.00    +0.002 C 
ATOM     21  C   UNL     1      17.770  -1.908  22.650  0.00  0.00    +0.002 C 
ATOM     23  C   UNL     1      16.284  -1.979  22.990  0.00  0.00    +0.000 C 
ENDBRANCH   6  15
BRANCH  22  25
ATOM     25  C   UNL     1      15.568  -4.897  30.964  0.00  0.00    -0.012 A 
ATOM     26  C   UNL     1      14.816  -5.777  30.185  0.00  0.00    +0.012 A 
ATOM     27  C   UNL     1      15.009  -4.330  32.111  0.00  0.00    +0.012 A 
ATOM     28  C   UNL     1      13.506  -6.089  30.551  0.00  0.00    +0.046 A 
ATOM     29  C   UNL     1      13.700  -4.642  32.477  0.00  0.00    +0.046 A 
ATOM     30  C   UNL     1      12.948  -5.522  31.697  0.00  0.00    +0.120 A 
BRANCH  30   3
ATOM      3  O   UNL     1      11.671  -5.827  32.054  0.00  0.00    -0.495 OA
ATOM     31  C   UNL     1      11.087  -5.053  33.101  0.00  0.00    +0.277 C 
ENDBRANCH  30   3
ENDBRANCH  22  25
TORSDOF 3
ENDMDL
MODEL 7
REMARK VINA RESULT:      -6.3     26.566     30.072
REMARK  Name = 11885131
REMARK  4 active torsions:
REMARK  status: ('A' for Active; 'I' for Inactive)
REMARK    1  A    between atoms: O_3  and  C_30
REMARK    2  A    between atoms: O_3  and  C_31
REMARK    3  A    between atoms: N_6  and  C_15
REMARK    4  A    between atoms: C_22  and  C_25
REMARK                            x       y       z     vdW  Elec       q    Type
REMARK                         _______ _______ _______ _____ _____    ______ ____
ROOT
ATOM      1  O   UNL     1     -13.290  10.354  14.587  0.00  0.00    -0.253 OA
ATOM      2  O   UNL     1     -13.150   9.957  20.603  0.00  0.00    -0.267 OA
ATOM      4  N   UNL     1     -12.080  11.744  15.999  0.00  0.00    -0.285 N 
ATOM      5  N   UNL     1     -11.639  10.361  18.874  0.00  0.00    -0.311 N 
ATOM      6  N   UNL     1     -14.404  12.041  15.671  0.00  0.00    -0.296 N 
ATOM      7  C   UNL     1     -11.056  12.720  18.075  0.00  0.00    +0.027 C 
ATOM      8  C   UNL     1     -10.007  10.780  17.001  0.00  0.00    +0.054 C 
ATOM      9  C   UNL     1      -9.717  12.114  17.681  0.00  0.00    +0.018 C 
ATOM     10  C   UNL     1     -11.950  12.944  16.840  0.00  0.00    +0.114 C 
ATOM     11  C   UNL     1     -10.827  11.029  15.725  0.00  0.00    +0.119 C 
ATOM     12  C   UNL     1     -11.726  11.808  19.109  0.00  0.00    +0.130 C 
ATOM     13  C   UNL     1     -10.760   9.838  17.922  0.00  0.00    +0.027 A 
ATOM     14  C   UNL     1     -13.260  11.311  15.366  0.00  0.00    +0.302 C 
ATOM     16  C   UNL     1     -10.604   8.510  17.808  0.00  0.00    +0.022 A 
ATOM     17  C   UNL     1     -12.393   9.533  19.728  0.00  0.00    +0.259 A 
ATOM     22  C   UNL     1     -12.226   8.048  19.550  0.00  0.00    +0.047 A 
ATOM     24  C   UNL     1     -11.355   7.605  18.631  0.00  0.00    +0.015 A 
ATOM     32  H   UNL     1     -14.343  12.907  16.186  0.00  0.00    +0.151 HD
ENDROOT
BRANCH   6  15
ATOM     15  C   UNL     1     -15.693  11.726  15.097  0.00  0.00    +0.074 C 
ATOM     18  C   UNL     1     -16.524  10.864  16.052  0.00  0.00    +0.022 C 
ATOM     19  C   UNL     1     -16.446  13.000  14.699  0.00  0.00    +0.022 C 
ATOM     20  C   UNL     1     -17.029  11.651  17.261  0.00  0.00    +0.002 C 
ATOM     21  C   UNL     1     -16.949  13.783  15.911  0.00  0.00    +0.002 C 
ATOM     23  C   UNL     1     -17.784  12.908  16.841  0.00  0.00    +0.000 C 
ENDBRANCH   6  15
BRANCH  22  25
ATOM     25  C   UNL     1     -13.002   7.090  20.356  0.00  0.00    -0.012 A 
ATOM     26  C   UNL     1     -14.392   7.039  20.235  0.00  0.00    +0.012 A 
ATOM     27  C   UNL     1     -12.348   6.233  21.243  0.00  0.00    +0.012 A 
ATOM     28  C   UNL     1     -15.126   6.132  21.000  0.00  0.00    +0.046 A 
ATOM     29  C   UNL     1     -13.083   5.326  22.007  0.00  0.00    +0.046 A 
ATOM     30  C   UNL     1     -14.472   5.275  21.886  0.00  0.00    +0.120 A 
BRANCH  30   3
ATOM      3  O   UNL     1     -15.188   4.391  22.631  0.00  0.00    -0.495 OA
ATOM     31  C   UNL     1     -15.110   4.524  24.049  0.00  0.00    +0.277 C 
ENDBRANCH  30   3
ENDBRANCH  22  25
TORSDOF 3
ENDMDL
MODEL 8
REMARK VINA RESULT:      -6.3     13.753     17.274
REMARK  Name = 11885131
REMARK  4 active torsions:
REMARK  status: ('A' for Active; 'I' for Inactive)
REMARK    1  A    between atoms: O_3  and  C_30
REMARK    2  A    between atoms: O_3  and  C_31
REMARK    3  A    between atoms: N_6  and  C_15
REMARK    4  A    between atoms: C_22  and  C_25
REMARK                            x       y       z     vdW  Elec       q    Type
REMARK                         _______ _______ _______ _____ _____    ______ ____
ROOT
ATOM      1  O   UNL     1      19.461  -6.899  -5.066  0.00  0.00    -0.253 OA
ATOM      2  O   UNL     1      18.887  -4.786   0.553  0.00  0.00    -0.267 OA
ATOM      4  N   UNL     1      18.546  -4.845  -4.488  0.00  0.00    -0.285 N 
ATOM      5  N   UNL     1      19.488  -3.954  -1.541  0.00  0.00    -0.311 N 
ATOM      6  N   UNL     1      17.303  -6.849  -4.292  0.00  0.00    -0.296 N 
ATOM      7  C   UNL     1      17.802  -2.868  -3.128  0.00  0.00    +0.027 C 
ATOM      8  C   UNL     1      20.153  -3.064  -3.800  0.00  0.00    +0.054 C 
ATOM      9  C   UNL     1      18.997  -2.081  -3.647  0.00  0.00    +0.018 C 
ATOM     10  C   UNL     1      17.409  -3.992  -4.106  0.00  0.00    +0.114 C 
ATOM     11  C   UNL     1      19.778  -4.130  -4.843  0.00  0.00    +0.119 C 
ATOM     12  C   UNL     1      18.137  -3.413  -1.734  0.00  0.00    +0.130 C 
ATOM     13  C   UNL     1      20.496  -3.730  -2.481  0.00  0.00    +0.027 A 
ATOM     14  C   UNL     1      18.504  -6.244  -4.643  0.00  0.00    +0.302 C 
ATOM     16  C   UNL     1      21.753  -4.126  -2.228  0.00  0.00    +0.022 A 
ATOM     17  C   UNL     1      19.741  -4.604  -0.316  0.00  0.00    +0.259 A 
ATOM     22  C   UNL     1      21.152  -5.071  -0.078  0.00  0.00    +0.047 A 
ATOM     24  C   UNL     1      22.080  -4.812  -1.011  0.00  0.00    +0.015 A 
ATOM     32  H   UNL     1      16.483  -6.294  -4.093  0.00  0.00    +0.151 HD
ENDROOT
BRANCH   6  15
ATOM     15  C   UNL     1      17.100  -8.276  -4.401  0.00  0.00    +0.074 C 
ATOM     18  C   UNL     1      16.331  -8.816  -3.191  0.00  0.00    +0.022 C 
ATOM     19  C   UNL     1      16.395  -8.635  -5.713  0.00  0.00    +0.022 C 
ATOM     20  C   UNL     1      14.860  -8.402  -3.200  0.00  0.00    +0.002 C 
ATOM     21  C   UNL     1      14.924  -8.220  -5.718  0.00  0.00    +0.002 C 
ATOM     23  C   UNL     1      14.177  -8.779  -4.511  0.00  0.00    +0.000 C 
ENDBRANCH   6  15
BRANCH  22  25
ATOM     25  C   UNL     1      21.516  -5.804   1.147  0.00  0.00    -0.012 A 
ATOM     26  C   UNL     1      22.090  -5.126   2.223  0.00  0.00    +0.012 A 
ATOM     27  C   UNL     1      21.288  -7.179   1.232  0.00  0.00    +0.012 A 
ATOM     28  C   UNL     1      22.437  -5.821   3.382  0.00  0.00    +0.046 A 
ATOM     29  C   UNL     1      21.634  -7.874   2.391  0.00  0.00    +0.046 A 
ATOM     30  C   UNL     1      22.208  -7.195   3.466  0.00  0.00    +0.120 A 
BRANCH  30   3
ATOM      3  O   UNL     1      22.545  -7.872   4.597  0.00  0.00    -0.495 OA
ATOM     31  C   UNL     1      21.851  -7.525   5.793  0.00  0.00    +0.277 C 
ENDBRANCH  30   3
ENDBRANCH  22  25
TORSDOF 3
ENDMDL
MODEL 9
REMARK VINA RESULT:      -6.3     26.229     29.027
REMARK  Name = 11885131
REMARK  4 active torsions:
REMARK  status: ('A' for Active; 'I' for Inactive)
REMARK    1  A    between atoms: O_3  and  C_30
REMARK    2  A    between atoms: O_3  and  C_31
REMARK    3  A    between atoms: N_6  and  C_15
REMARK    4  A    between atoms: C_22  and  C_25
REMARK                            x       y       z     vdW  Elec       q    Type
REMARK                         _______ _______ _______ _____ _____    ______ ____
ROOT
ATOM      1  O   UNL     1     -16.036  -3.566   9.417  0.00  0.00    -0.253 OA
ATOM      2  O   UNL     1     -11.532  -7.538   9.972  0.00  0.00    -0.267 OA
ATOM      4  N   UNL     1     -15.192  -4.370  11.424  0.00  0.00    -0.285 N 
ATOM      5  N   UNL     1     -12.234  -5.580  11.026  0.00  0.00    -0.311 N 
ATOM      6  N   UNL     1     -16.694  -5.648  10.118  0.00  0.00    -0.296 N 
ATOM      7  C   UNL     1     -13.754  -5.590  13.084  0.00  0.00    +0.027 C 
ATOM      8  C   UNL     1     -12.986  -3.455  12.150  0.00  0.00    +0.054 C 
ATOM      9  C   UNL     1     -13.069  -4.276  13.433  0.00  0.00    +0.018 C 
ATOM     10  C   UNL     1     -15.169  -5.348  12.524  0.00  0.00    +0.114 C 
ATOM     11  C   UNL     1     -14.408  -3.149  11.651  0.00  0.00    +0.119 C 
ATOM     12  C   UNL     1     -12.870  -6.360  12.095  0.00  0.00    +0.130 C 
ATOM     13  C   UNL     1     -12.206  -4.184  11.072  0.00  0.00    +0.027 A 
ATOM     14  C   UNL     1     -15.977  -4.466  10.260  0.00  0.00    +0.302 C 
ATOM     16  C   UNL     1     -11.515  -3.493  10.152  0.00  0.00    +0.022 A 
ATOM     17  C   UNL     1     -11.562  -6.307  10.025  0.00  0.00    +0.259 A 
ATOM     22  C   UNL     1     -10.827  -5.504   8.984  0.00  0.00    +0.047 A 
ATOM     24  C   UNL     1     -10.822  -4.167   9.091  0.00  0.00    +0.015 A 
ATOM     32  H   UNL     1     -16.758  -6.309  10.879  0.00  0.00    +0.151 HD
ENDROOT
BRANCH   6  15
ATOM     15  C   UNL     1     -17.552  -5.895   8.980  0.00  0.00    +0.074 C 
ATOM     18  C   UNL     1     -16.850  -6.779   7.945  0.00  0.00    +0.022 C 
ATOM     19  C   UNL     1     -18.887  -6.506   9.418  0.00  0.00    +0.022 C 
ATOM     20  C   UNL     1     -16.709  -8.228   8.411  0.00  0.00    +0.002 C 
ATOM     21  C   UNL     1     -18.742  -7.955   9.883  0.00  0.00    +0.002 C 
ATOM     23  C   UNL     1     -18.052  -8.818   8.831  0.00  0.00    +0.000 C 
ENDBRANCH   6  15
BRANCH  22  25
ATOM     25  C   UNL     1     -10.131  -6.161   7.865  0.00  0.00    -0.012 A 
ATOM     26  C   UNL     1      -8.753  -6.373   7.926  0.00  0.00    +0.012 A 
ATOM     27  C   UNL     1     -10.849  -6.572   6.740  0.00  0.00    +0.012 A 
ATOM     28  C   UNL     1      -8.094  -6.993   6.864  0.00  0.00    +0.046 A 
ATOM     29  C   UNL     1     -10.190  -7.193   5.679  0.00  0.00    +0.046 A 
ATOM     30  C   UNL     1      -8.813  -7.405   5.742  0.00  0.00    +0.120 A 
BRANCH  30   3
ATOM      3  O   UNL     1      -8.170  -8.011   4.707  0.00  0.00    -0.495 OA
ATOM     31  C   UNL     1      -7.024  -8.797   5.026  0.00  0.00    +0.277 C 
ENDBRANCH  30   3
ENDBRANCH  22  25
TORSDOF 3
ENDMDL
MODEL 10
REMARK VINA RESULT:      -6.2     25.046     28.222
REMARK  Name = 11885131
REMARK  4 active torsions:
REMARK  status: ('A' for Active; 'I' for Inactive)
REMARK    1  A    between atoms: O_3  and  C_30
REMARK    2  A    between atoms: O_3  and  C_31
REMARK    3  A    between atoms: N_6  and  C_15
REMARK    4  A    between atoms: C_22  and  C_25
REMARK                            x       y       z     vdW  Elec       q    Type
REMARK                         _______ _______ _______ _____ _____    ______ ____
ROOT
ATOM      1  O   UNL     1      -5.625 -13.707  11.161  0.00  0.00    -0.253 OA
ATOM      2  O   UNL     1      -4.714 -10.227  16.001  0.00  0.00    -0.267 OA
ATOM      4  N   UNL     1      -3.586 -12.800  11.801  0.00  0.00    -0.285 N 
ATOM      5  N   UNL     1      -3.620 -11.975  14.913  0.00  0.00    -0.311 N 
ATOM      6  N   UNL     1      -5.213 -11.503  10.675  0.00  0.00    -0.296 N 
ATOM      7  C   UNL     1      -1.832 -11.584  13.127  0.00  0.00    +0.027 C 
ATOM      8  C   UNL     1      -2.451 -13.876  13.746  0.00  0.00    +0.054 C 
ATOM      9  C   UNL     1      -1.271 -12.924  13.583  0.00  0.00    +0.018 C 
ATOM     10  C   UNL     1      -2.583 -11.723  11.788  0.00  0.00    +0.114 C 
ATOM     11  C   UNL     1      -3.137 -14.071  12.384  0.00  0.00    +0.119 C 
ATOM     12  C   UNL     1      -2.733 -11.023  14.234  0.00  0.00    +0.130 C 
ATOM     13  C   UNL     1      -3.452 -13.353  14.759  0.00  0.00    +0.027 A 
ATOM     14  C   UNL     1      -4.862 -12.737  11.211  0.00  0.00    +0.302 C 
ATOM     16  C   UNL     1      -4.192 -14.208  15.484  0.00  0.00    +0.022 A 
ATOM     17  C   UNL     1      -4.563 -11.435  15.809  0.00  0.00    +0.259 A 
ATOM     22  C   UNL     1      -5.404 -12.417  16.580  0.00  0.00    +0.047 A 
ATOM     24  C   UNL     1      -5.185 -13.728  16.401  0.00  0.00    +0.015 A 
ATOM     32  H   UNL     1      -4.531 -10.765  10.586  0.00  0.00    +0.151 HD
ENDROOT
BRANCH   6  15
ATOM     15  C   UNL     1      -6.488 -11.280  10.029  0.00  0.00    +0.074 C 
ATOM     18  C   UNL     1      -7.288 -10.193  10.753  0.00  0.00    +0.022 C 
ATOM     19  C   UNL     1      -6.302 -10.939   8.547  0.00  0.00    +0.022 C 
ATOM     20  C   UNL     1      -6.706  -8.797  10.540  0.00  0.00    +0.002 C 
ATOM     21  C   UNL     1      -5.720  -9.541   8.337  0.00  0.00    +0.002 C 
ATOM     23  C   UNL     1      -6.540  -8.476   9.057  0.00  0.00    +0.000 C 
ENDBRANCH   6  15
BRANCH  22  25
ATOM     25  C   UNL     1      -6.453 -11.960  17.508  0.00  0.00    -0.012 A 
ATOM     26  C   UNL     1      -7.768 -11.819  17.062  0.00  0.00    +0.012 A 
ATOM     27  C   UNL     1      -6.133 -11.668  18.835  0.00  0.00    +0.012 A 
ATOM     28  C   UNL     1      -8.761 -11.386  17.941  0.00  0.00    +0.046 A 
ATOM     29  C   UNL     1      -7.126 -11.235  19.714  0.00  0.00    +0.046 A 
ATOM     30  C   UNL     1      -8.440 -11.095  19.267  0.00  0.00    +0.120 A 
BRANCH  30   3
ATOM      3  O   UNL     1      -9.409 -10.673  20.124  0.00  0.00    -0.495 OA
ATOM     31  C   UNL     1     -10.655 -11.366  20.089  0.00  0.00    +0.277 C 
ENDBRANCH  30   3
ENDBRANCH  22  25
TORSDOF 3
ENDMDL
