MODEL 1
REMARK VINA RESULT:      -6.7      0.000      0.000
REMARK  Name = 56775848
REMARK  2 active torsions:
REMARK  status: ('A' for Active; 'I' for Inactive)
REMARK    1  A    between atoms: C_6  and  C_8
REMARK    2  A    between atoms: C_11  and  C_13
REMARK                            x       y       z     vdW  Elec       q    Type
REMARK                         _______ _______ _______ _____ _____    ______ ____
ROOT
ATOM      4  N   UNL     1      14.831   7.207  18.554  0.00  0.00    -0.341 N 
ATOM      5  N   UNL     1      13.042   7.286  19.866  0.00  0.00    -0.238 NA
ATOM      8  C   UNL     1      13.479   7.392  18.631  0.00  0.00    +0.127 A 
ATOM     11  C   UNL     1      15.285   6.969  19.821  0.00  0.00    +0.066 A 
ATOM     12  C   UNL     1      14.162   7.023  20.613  0.00  0.00    +0.139 A 
ATOM     20  H   UNL     1      15.385   7.233  17.707  0.00  0.00    +0.167 HD
ENDROOT
BRANCH  11  13
ATOM      1 CL   UNL     1      21.004   5.960  21.116  0.00  0.00    -0.084 Cl
ATOM     13  C   UNL     1      16.669   6.725  20.133  0.00  0.00    -0.000 A 
ATOM     14  C   UNL     1      17.272   7.396  21.197  0.00  0.00    +0.011 A 
ATOM     15  C   UNL     1      17.406   5.817  19.374  0.00  0.00    +0.011 A 
ATOM     16  C   UNL     1      18.612   7.160  21.501  0.00  0.00    +0.020 A 
ATOM     17  C   UNL     1      18.747   5.580  19.678  0.00  0.00    +0.020 A 
ATOM     18  C   UNL     1      19.350   6.252  20.741  0.00  0.00    +0.041 A 
ENDBRANCH  11  13
BRANCH   8   6
ATOM      2  O   UNL     1      12.589   8.877  15.275  0.00  0.00    -0.377 OA
ATOM      3  N   UNL     1      11.327   8.227  17.747  0.00  0.00    -0.303 NA
ATOM      6  C   UNL     1      12.650   7.680  17.395  0.00  0.00    +0.146 C 
ATOM      7  C   UNL     1      13.378   8.642  16.444  0.00  0.00    +0.186 C 
ATOM      9  C   UNL     1      10.554   8.522  16.539  0.00  0.00    +0.109 C 
ATOM     10  C   UNL     1      11.331   9.458  15.623  0.00  0.00    +0.175 C 
ATOM     19  H   UNL     1      11.458   9.095  18.268  0.00  0.00    +0.123 HD
ENDBRANCH   8   6
TORSDOF 2
ENDMDL
MODEL 2
REMARK VINA RESULT:      -6.7      2.531      3.171
REMARK  Name = 56775848
REMARK  2 active torsions:
REMARK  status: ('A' for Active; 'I' for Inactive)
REMARK    1  A    between atoms: C_6  and  C_8
REMARK    2  A    between atoms: C_11  and  C_13
REMARK                            x       y       z     vdW  Elec       q    Type
REMARK                         _______ _______ _______ _____ _____    ______ ____
ROOT
ATOM      4  N   UNL     1      14.839   6.614  20.370  0.00  0.00    -0.341 N 
ATOM      5  N   UNL     1      14.158   7.229  18.348  0.00  0.00    -0.238 NA
ATOM      8  C   UNL     1      13.775   6.917  19.565  0.00  0.00    +0.127 A 
ATOM     11  C   UNL     1      15.972   6.741  19.616  0.00  0.00    +0.066 A 
ATOM     12  C   UNL     1      15.526   7.121  18.371  0.00  0.00    +0.139 A 
ATOM     20  H   UNL     1      14.788   6.356  21.347  0.00  0.00    +0.167 HD
ENDROOT
BRANCH  11  13
ATOM      1 CL   UNL     1      21.442   5.752  21.736  0.00  0.00    -0.084 Cl
ATOM     13  C   UNL     1      17.295   6.502  20.128  0.00  0.00    -0.000 A 
ATOM     14  C   UNL     1      17.757   7.222  21.230  0.00  0.00    +0.011 A 
ATOM     15  C   UNL     1      18.116   5.549  19.524  0.00  0.00    +0.011 A 
ATOM     16  C   UNL     1      19.039   6.991  21.727  0.00  0.00    +0.020 A 
ATOM     17  C   UNL     1      19.398   5.317  20.022  0.00  0.00    +0.020 A 
ATOM     18  C   UNL     1      19.860   6.038  21.123  0.00  0.00    +0.041 A 
ENDBRANCH  11  13
BRANCH   8   6
ATOM      2  O   UNL     1      10.497   8.219  20.915  0.00  0.00    -0.377 OA
ATOM      3  N   UNL     1      12.233   5.985  21.257  0.00  0.00    -0.303 NA
ATOM      6  C   UNL     1      12.353   6.876  20.089  0.00  0.00    +0.146 C 
ATOM      7  C   UNL     1      11.847   8.281  20.449  0.00  0.00    +0.186 C 
ATOM      9  C   UNL     1      10.859   5.979  21.762  0.00  0.00    +0.109 C 
ATOM     10  C   UNL     1      10.402   7.396  22.079  0.00  0.00    +0.175 C 
ATOM     19  H   UNL     1      12.849   6.326  21.996  0.00  0.00    +0.123 HD
ENDBRANCH   8   6
TORSDOF 2
ENDMDL
MODEL 3
REMARK VINA RESULT:      -6.6      4.554      5.661
REMARK  Name = 56775848
REMARK  2 active torsions:
REMARK  status: ('A' for Active; 'I' for Inactive)
REMARK    1  A    between atoms: C_6  and  C_8
REMARK    2  A    between atoms: C_11  and  C_13
REMARK                            x       y       z     vdW  Elec       q    Type
REMARK                         _______ _______ _______ _____ _____    ______ ____
ROOT
ATOM      4  N   UNL     1      12.643   9.186  22.202  0.00  0.00    -0.341 N 
ATOM      5  N   UNL     1      10.659   8.215  22.422  0.00  0.00    -0.238 NA
ATOM      8  C   UNL     1      11.357   9.304  22.651  0.00  0.00    +0.127 A 
ATOM     11  C   UNL     1      12.772   7.942  21.651  0.00  0.00    +0.066 A 
ATOM     12  C   UNL     1      11.534   7.361  21.799  0.00  0.00    +0.139 A 
ATOM     20  H   UNL     1      13.359   9.899  22.260  0.00  0.00    +0.167 HD
ENDROOT
BRANCH  11  13
ATOM      1 CL   UNL     1      17.829   5.937  19.241  0.00  0.00    -0.084 Cl
ATOM     13  C   UNL     1      13.995   7.457  21.068  0.00  0.00    -0.000 A 
ATOM     14  C   UNL     1      14.056   7.182  19.702  0.00  0.00    +0.011 A 
ATOM     15  C   UNL     1      15.121   7.263  21.869  0.00  0.00    +0.011 A 
ATOM     16  C   UNL     1      15.241   6.712  19.137  0.00  0.00    +0.020 A 
ATOM     17  C   UNL     1      16.306   6.793  21.304  0.00  0.00    +0.020 A 
ATOM     18  C   UNL     1      16.367   6.517  19.939  0.00  0.00    +0.041 A 
ENDBRANCH  11  13
BRANCH   8   6
ATOM      2  O   UNL     1      10.683  12.991  23.112  0.00  0.00    -0.377 OA
ATOM      3  N   UNL     1      11.455  10.730  24.667  0.00  0.00    -0.303 NA
ATOM      6  C   UNL     1      10.870  10.572  23.324  0.00  0.00    +0.146 C 
ATOM      7  C   UNL     1      11.176  11.812  22.470  0.00  0.00    +0.186 C 
ATOM      9  C   UNL     1      10.991  11.973  25.288  0.00  0.00    +0.109 C 
ATOM     10  C   UNL     1      11.298  13.164  24.390  0.00  0.00    +0.175 C 
ATOM     19  H   UNL     1      12.471  10.770  24.581  0.00  0.00    +0.123 HD
ENDBRANCH   8   6
TORSDOF 2
ENDMDL
MODEL 4
REMARK VINA RESULT:      -6.3     13.278     15.766
REMARK  Name = 56775848
REMARK  2 active torsions:
REMARK  status: ('A' for Active; 'I' for Inactive)
REMARK    1  A    between atoms: C_6  and  C_8
REMARK    2  A    between atoms: C_11  and  C_13
REMARK                            x       y       z     vdW  Elec       q    Type
REMARK                         _______ _______ _______ _____ _____    ______ ____
ROOT
ATOM      4  N   UNL     1      11.259   5.123   4.373  0.00  0.00    -0.341 N 
ATOM      5  N   UNL     1      10.348   6.463   2.855  0.00  0.00    -0.238 NA
ATOM      8  C   UNL     1      11.300   5.588   3.087  0.00  0.00    +0.127 A 
ATOM     11  C   UNL     1      10.213   5.741   4.999  0.00  0.00    +0.066 A 
ATOM     12  C   UNL     1       9.666   6.563   4.041  0.00  0.00    +0.139 A 
ATOM     20  H   UNL     1      11.886   4.437   4.775  0.00  0.00    +0.167 HD
ENDROOT
BRANCH  11  13
ATOM      1 CL   UNL     1       8.744   4.739  10.676  0.00  0.00    -0.084 Cl
ATOM     13  C   UNL     1       9.858   5.499   6.372  0.00  0.00    -0.000 A 
ATOM     14  C   UNL     1      10.008   4.223   6.917  0.00  0.00    +0.011 A 
ATOM     15  C   UNL     1       9.363   6.539   7.159  0.00  0.00    +0.011 A 
ATOM     16  C   UNL     1       9.664   3.988   8.248  0.00  0.00    +0.020 A 
ATOM     17  C   UNL     1       9.019   6.304   8.490  0.00  0.00    +0.020 A 
ATOM     18  C   UNL     1       9.169   5.029   9.034  0.00  0.00    +0.041 A 
ENDBRANCH  11  13
BRANCH   8   6
ATOM      2  O   UNL     1      13.313   3.145   1.028  0.00  0.00    -0.377 OA
ATOM      3  N   UNL     1      13.698   5.562   2.489  0.00  0.00    -0.303 NA
ATOM      6  C   UNL     1      12.350   5.104   2.106  0.00  0.00    +0.146 C 
ATOM      7  C   UNL     1      12.333   3.573   1.977  0.00  0.00    +0.186 C 
ATOM      9  C   UNL     1      14.699   5.063   1.543  0.00  0.00    +0.109 C 
ATOM     10  C   UNL     1      14.622   3.546   1.437  0.00  0.00    +0.175 C 
ATOM     19  H   UNL     1      13.918   5.198   3.417  0.00  0.00    +0.123 HD
ENDBRANCH   8   6
TORSDOF 2
ENDMDL
MODEL 5
REMARK VINA RESULT:      -6.3      5.187      6.656
REMARK  Name = 56775848
REMARK  2 active torsions:
REMARK  status: ('A' for Active; 'I' for Inactive)
REMARK    1  A    between atoms: C_6  and  C_8
REMARK    2  A    between atoms: C_11  and  C_13
REMARK                            x       y       z     vdW  Elec       q    Type
REMARK                         _______ _______ _______ _____ _____    ______ ____
ROOT
ATOM      4  N   UNL     1      11.761   9.784  20.057  0.00  0.00    -0.341 N 
ATOM      5  N   UNL     1      11.130   7.661  20.206  0.00  0.00    -0.238 NA
ATOM      8  C   UNL     1      11.671   8.573  19.430  0.00  0.00    +0.127 A 
ATOM     11  C   UNL     1      11.244   9.635  21.313  0.00  0.00    +0.066 A 
ATOM     12  C   UNL     1      10.861   8.315  21.382  0.00  0.00    +0.139 A 
ATOM     20  H   UNL     1      12.151  10.629  19.660  0.00  0.00    +0.167 HD
ENDROOT
BRANCH  11  13
ATOM      1 CL   UNL     1      10.948  14.059  25.280  0.00  0.00    -0.084 Cl
ATOM     13  C   UNL     1      11.172  10.705  22.273  0.00  0.00    -0.000 A 
ATOM     14  C   UNL     1      11.049  10.416  23.632  0.00  0.00    +0.011 A 
ATOM     15  C   UNL     1      11.227  12.032  21.844  0.00  0.00    +0.011 A 
ATOM     16  C   UNL     1      10.980  11.453  24.562  0.00  0.00    +0.020 A 
ATOM     17  C   UNL     1      11.158  13.069  22.774  0.00  0.00    +0.020 A 
ATOM     18  C   UNL     1      11.034  12.780  24.132  0.00  0.00    +0.041 A 
ENDBRANCH  11  13
BRANCH   8   6
ATOM      2  O   UNL     1      13.955   7.498  16.621  0.00  0.00    -0.377 OA
ATOM      3  N   UNL     1      12.225   9.664  17.283  0.00  0.00    -0.303 NA
ATOM      6  C   UNL     1      12.158   8.382  18.007  0.00  0.00    +0.146 C 
ATOM      7  C   UNL     1      13.529   7.690  17.972  0.00  0.00    +0.186 C 
ATOM      9  C   UNL     1      12.722   9.461  15.920  0.00  0.00    +0.109 C 
ATOM     10  C   UNL     1      14.068   8.751  15.945  0.00  0.00    +0.175 C 
ATOM     19  H   UNL     1      12.868  10.286  17.774  0.00  0.00    +0.123 HD
ENDBRANCH   8   6
TORSDOF 2
ENDMDL
MODEL 6
REMARK VINA RESULT:      -6.2      3.153      3.652
REMARK  Name = 56775848
REMARK  2 active torsions:
REMARK  status: ('A' for Active; 'I' for Inactive)
REMARK    1  A    between atoms: C_6  and  C_8
REMARK    2  A    between atoms: C_11  and  C_13
REMARK                            x       y       z     vdW  Elec       q    Type
REMARK                         _______ _______ _______ _____ _____    ______ ____
ROOT
ATOM      4  N   UNL     1      15.875   6.837  21.545  0.00  0.00    -0.341 N 
ATOM      5  N   UNL     1      15.487   9.024  21.572  0.00  0.00    -0.238 NA
ATOM      8  C   UNL     1      14.940   7.831  21.641  0.00  0.00    +0.127 A 
ATOM     11  C   UNL     1      17.096   7.436  21.408  0.00  0.00    +0.066 A 
ATOM     12  C   UNL     1      16.830   8.785  21.427  0.00  0.00    +0.139 A 
ATOM     20  H   UNL     1      15.689   5.844  21.583  0.00  0.00    +0.167 HD
ENDROOT
BRANCH  11  13
ATOM      1 CL   UNL     1      22.187   4.402  20.881  0.00  0.00    -0.084 Cl
ATOM     13  C   UNL     1      18.327   6.702  21.280  0.00  0.00    -0.000 A 
ATOM     14  C   UNL     1      19.315   6.822  22.258  0.00  0.00    +0.011 A 
ATOM     15  C   UNL     1      18.533   5.869  20.179  0.00  0.00    +0.011 A 
ATOM     16  C   UNL     1      20.508   6.111  22.135  0.00  0.00    +0.020 A 
ATOM     17  C   UNL     1      19.726   5.158  20.057  0.00  0.00    +0.020 A 
ATOM     18  C   UNL     1      20.714   5.279  21.033  0.00  0.00    +0.041 A 
ENDBRANCH  11  13
BRANCH   8   6
ATOM      2  O   UNL     1      11.481   6.652  20.688  0.00  0.00    -0.377 OA
ATOM      3  N   UNL     1      12.707   8.696  22.251  0.00  0.00    -0.303 NA
ATOM      6  C   UNL     1      13.466   7.515  21.804  0.00  0.00    +0.146 C 
ATOM      7  C   UNL     1      12.863   6.967  20.501  0.00  0.00    +0.186 C 
ATOM      9  C   UNL     1      11.283   8.375  22.378  0.00  0.00    +0.109 C 
ATOM     10  C   UNL     1      10.745   7.815  21.068  0.00  0.00    +0.175 C 
ATOM     19  H   UNL     1      12.812   9.437  21.558  0.00  0.00    +0.123 HD
ENDBRANCH   8   6
TORSDOF 2
ENDMDL
MODEL 7
REMARK VINA RESULT:      -6.2     13.708     16.575
REMARK  Name = 56775848
REMARK  2 active torsions:
REMARK  status: ('A' for Active; 'I' for Inactive)
REMARK    1  A    between atoms: C_6  and  C_8
REMARK    2  A    between atoms: C_11  and  C_13
REMARK                            x       y       z     vdW  Elec       q    Type
REMARK                         _______ _______ _______ _____ _____    ______ ____
ROOT
ATOM      4  N   UNL     1      10.514   4.755   4.386  0.00  0.00    -0.341 N 
ATOM      5  N   UNL     1      11.311   6.636   5.257  0.00  0.00    -0.238 NA
ATOM      8  C   UNL     1      10.535   5.596   5.464  0.00  0.00    +0.127 A 
ATOM     11  C   UNL     1      11.331   5.294   3.431  0.00  0.00    +0.066 A 
ATOM     12  C   UNL     1      11.811   6.454   3.992  0.00  0.00    +0.139 A 
ATOM     20  H   UNL     1       9.996   3.889   4.320  0.00  0.00    +0.167 HD
ENDROOT
BRANCH  11  13
ATOM      1 CL   UNL     1      12.283   2.762  -1.868  0.00  0.00    -0.084 Cl
ATOM     13  C   UNL     1      11.561   4.682   2.149  0.00  0.00    -0.000 A 
ATOM     14  C   UNL     1      12.686   3.881   1.951  0.00  0.00    +0.011 A 
ATOM     15  C   UNL     1      10.659   4.888   1.105  0.00  0.00    +0.011 A 
ATOM     16  C   UNL     1      12.909   3.287   0.709  0.00  0.00    +0.020 A 
ATOM     17  C   UNL     1      10.882   4.294  -0.137  0.00  0.00    +0.020 A 
ATOM     18  C   UNL     1      12.007   3.494  -0.336  0.00  0.00    +0.041 A 
ENDBRANCH  11  13
BRANCH   8   6
ATOM      2  O   UNL     1       8.866   6.222   8.793  0.00  0.00    -0.377 OA
ATOM      3  N   UNL     1      10.284   4.147   7.450  0.00  0.00    -0.303 NA
ATOM      6  C   UNL     1       9.730   5.296   6.713  0.00  0.00    +0.146 C 
ATOM      7  C   UNL     1       9.651   6.522   7.636  0.00  0.00    +0.186 C 
ATOM      9  C   UNL     1       9.508   3.891   8.665  0.00  0.00    +0.109 C 
ATOM     10  C   UNL     1       9.443   5.143   9.529  0.00  0.00    +0.175 C 
ATOM     19  H   UNL     1      11.246   4.361   7.718  0.00  0.00    +0.123 HD
ENDBRANCH   8   6
TORSDOF 2
ENDMDL
MODEL 8
REMARK VINA RESULT:      -6.2     26.236     27.483
REMARK  Name = 56775848
REMARK  2 active torsions:
REMARK  status: ('A' for Active; 'I' for Inactive)
REMARK    1  A    between atoms: C_6  and  C_8
REMARK    2  A    between atoms: C_11  and  C_13
REMARK                            x       y       z     vdW  Elec       q    Type
REMARK                         _______ _______ _______ _____ _____    ______ ____
ROOT
ATOM      4  N   UNL     1     -11.680   7.781  17.762  0.00  0.00    -0.341 N 
ATOM      5  N   UNL     1     -10.097   9.299  18.107  0.00  0.00    -0.238 NA
ATOM      8  C   UNL     1     -10.744   8.603  17.200  0.00  0.00    +0.127 A 
ATOM     11  C   UNL     1     -11.627   7.965  19.115  0.00  0.00    +0.066 A 
ATOM     12  C   UNL     1     -10.642   8.907  19.304  0.00  0.00    +0.139 A 
ATOM     20  H   UNL     1     -12.303   7.161  17.260  0.00  0.00    +0.167 HD
ENDROOT
BRANCH  11  13
ATOM      1 CL   UNL     1     -15.131   5.070  22.954  0.00  0.00    -0.084 Cl
ATOM     13  C   UNL     1     -12.474   7.265  20.044  0.00  0.00    -0.000 A 
ATOM     14  C   UNL     1     -13.856   7.454  20.007  0.00  0.00    +0.011 A 
ATOM     15  C   UNL     1     -11.914   6.396  20.981  0.00  0.00    +0.011 A 
ATOM     16  C   UNL     1     -14.678   6.775  20.906  0.00  0.00    +0.020 A 
ATOM     17  C   UNL     1     -12.736   5.717  21.881  0.00  0.00    +0.020 A 
ATOM     18  C   UNL     1     -14.117   5.907  21.844  0.00  0.00    +0.041 A 
ENDBRANCH  11  13
BRANCH   8   6
ATOM      2  O   UNL     1     -11.469   9.411  13.582  0.00  0.00    -0.377 OA
ATOM      3  N   UNL     1     -10.351   7.300  15.137  0.00  0.00    -0.303 NA
ATOM      6  C   UNL     1     -10.535   8.650  15.698  0.00  0.00    +0.146 C 
ATOM      7  C   UNL     1     -11.702   9.356  14.992  0.00  0.00    +0.186 C 
ATOM      9  C   UNL     1     -10.177   7.366  13.684  0.00  0.00    +0.109 C 
ATOM     10  C   UNL     1     -11.347   8.095  13.039  0.00  0.00    +0.175 C 
ATOM     19  H   UNL     1     -11.182   6.743  15.339  0.00  0.00    +0.123 HD
ENDBRANCH   8   6
TORSDOF 2
ENDMDL
MODEL 9
REMARK VINA RESULT:      -5.9      6.014      9.464
REMARK  Name = 56775848
REMARK  2 active torsions:
REMARK  status: ('A' for Active; 'I' for Inactive)
REMARK    1  A    between atoms: C_6  and  C_8
REMARK    2  A    between atoms: C_11  and  C_13
REMARK                            x       y       z     vdW  Elec       q    Type
REMARK                         _______ _______ _______ _____ _____    ______ ____
ROOT
ATOM      4  N   UNL     1      21.033   5.015  20.014  0.00  0.00    -0.341 N 
ATOM      5  N   UNL     1      22.089   5.416  21.926  0.00  0.00    -0.238 NA
ATOM      8  C   UNL     1      22.183   4.861  20.739  0.00  0.00    +0.127 A 
ATOM     11  C   UNL     1      20.151   5.713  20.789  0.00  0.00    +0.066 A 
ATOM     12  C   UNL     1      20.825   5.950  21.964  0.00  0.00    +0.139 A 
ATOM     20  H   UNL     1      20.878   4.680  19.072  0.00  0.00    +0.167 HD
ENDROOT
BRANCH  11  13
ATOM      1 CL   UNL     1      14.670   7.181  18.998  0.00  0.00    -0.084 Cl
ATOM     13  C   UNL     1      18.825   6.068  20.356  0.00  0.00    -0.000 A 
ATOM     14  C   UNL     1      18.098   7.032  21.053  0.00  0.00    +0.011 A 
ATOM     15  C   UNL     1      18.267   5.448  19.237  0.00  0.00    +0.011 A 
ATOM     16  C   UNL     1      16.813   7.377  20.634  0.00  0.00    +0.020 A 
ATOM     17  C   UNL     1      16.982   5.792  18.818  0.00  0.00    +0.020 A 
ATOM     18  C   UNL     1      16.255   6.756  19.516  0.00  0.00    +0.041 A 
ENDBRANCH  11  13
BRANCH   8   6
ATOM      2  O   UNL     1      24.769   2.135  20.370  0.00  0.00    -0.377 OA
ATOM      3  N   UNL     1      24.587   4.972  20.176  0.00  0.00    -0.303 NA
ATOM      6  C   UNL     1      23.381   4.125  20.171  0.00  0.00    +0.146 C 
ATOM      7  C   UNL     1      23.653   2.823  20.939  0.00  0.00    +0.186 C 
ATOM      9  C   UNL     1      25.736   4.234  19.648  0.00  0.00    +0.109 C 
ATOM     10  C   UNL     1      25.945   2.944  20.429  0.00  0.00    +0.175 C 
ATOM     19  H   UNL     1      24.792   5.248  21.137  0.00  0.00    +0.123 HD
ENDBRANCH   8   6
TORSDOF 2
ENDMDL
MODEL 10
REMARK VINA RESULT:      -5.9     27.585     30.187
REMARK  Name = 56775848
REMARK  2 active torsions:
REMARK  status: ('A' for Active; 'I' for Inactive)
REMARK    1  A    between atoms: C_6  and  C_8
REMARK    2  A    between atoms: C_11  and  C_13
REMARK                            x       y       z     vdW  Elec       q    Type
REMARK                         _______ _______ _______ _____ _____    ______ ____
ROOT
ATOM      4  N   UNL     1     -14.216   5.604  22.972  0.00  0.00    -0.341 N 
ATOM      5  N   UNL     1     -16.388   6.034  23.134  0.00  0.00    -0.238 NA
ATOM      8  C   UNL     1     -15.419   5.229  23.504  0.00  0.00    +0.127 A 
ATOM     11  C   UNL     1     -14.434   6.720  22.215  0.00  0.00    +0.066 A 
ATOM     12  C   UNL     1     -15.782   6.967  22.331  0.00  0.00    +0.139 A 
ATOM     20  H   UNL     1     -13.330   5.140  23.125  0.00  0.00    +0.167 HD
ENDROOT
BRANCH  11  13
ATOM      1 CL   UNL     1     -10.126   9.554  19.246  0.00  0.00    -0.084 Cl
ATOM     13  C   UNL     1     -13.392   7.406  21.496  0.00  0.00    -0.000 A 
ATOM     14  C   UNL     1     -13.396   8.798  21.422  0.00  0.00    +0.011 A 
ATOM     15  C   UNL     1     -12.377   6.677  20.875  0.00  0.00    +0.011 A 
ATOM     16  C   UNL     1     -12.387   9.463  20.726  0.00  0.00    +0.020 A 
ATOM     17  C   UNL     1     -11.368   7.342  20.179  0.00  0.00    +0.020 A 
ATOM     18  C   UNL     1     -11.372   8.734  20.104  0.00  0.00    +0.041 A 
ENDBRANCH  11  13
BRANCH   8   6
ATOM      2  O   UNL     1     -16.534   1.805  24.643  0.00  0.00    -0.377 OA
ATOM      3  N   UNL     1     -16.025   4.383  25.746  0.00  0.00    -0.303 NA
ATOM      6  C   UNL     1     -15.539   4.015  24.404  0.00  0.00    +0.146 C 
ATOM      7  C   UNL     1     -16.458   2.949  23.789  0.00  0.00    +0.186 C 
ATOM      9  C   UNL     1     -16.158   3.194  26.591  0.00  0.00    +0.109 C 
ATOM     10  C   UNL     1     -17.057   2.164  25.923  0.00  0.00    +0.175 C 
ATOM     19  H   UNL     1     -16.942   4.821  25.655  0.00  0.00    +0.123 HD
ENDBRANCH   8   6
TORSDOF 2
ENDMDL
