REMARK  Name = 75536694
REMARK  8 active torsions:
REMARK  status: ('A' for Active; 'I' for Inactive)
REMARK    1  A    between atoms: S_1  and  N_8
REMARK    2  A    between atoms: S_1  and  C_16
REMARK    3  A    between atoms: O_4  and  C_10
REMARK    4  A    between atoms: N_7  and  C_9
REMARK    5  A    between atoms: N_7  and  C_14
REMARK    6  A    between atoms: N_8  and  C_13
REMARK    7  A    between atoms: C_11  and  C_13
REMARK    8  A    between atoms: C_14  and  C_15
REMARK                            x       y       z     vdW  Elec       q    Type
REMARK                         _______ _______ _______ _____ _____    ______ ____
ROOT
ATOM      3  O   UNL     1      -0.197  -1.312   1.266  0.00  0.00    -0.371 OA
ATOM      9  C   UNL     1      -2.141  -0.989  -0.061  0.00  0.00    +0.111 C 
ATOM     10  C   UNL     1      -0.925  -0.530  -0.844  0.00  0.00    +0.164 C 
ATOM     11  C   UNL     1       0.189  -1.272  -0.118  0.00  0.00    +0.164 C 
ATOM     12  C   UNL     1      -1.598  -0.997   1.359  0.00  0.00    +0.181 C 
ENDROOT
BRANCH  10   4
ATOM      4  O   UNL     1      -0.990  -0.886  -2.212  0.00  0.00    -0.388 OA
ATOM     27  H   UNL     1      -1.109  -1.849  -2.272  0.00  0.00    +0.210 HD
ENDBRANCH  10   4
BRANCH   9   7
ATOM      7  N   UNL     1      -3.297  -0.122  -0.219  0.00  0.00    -0.304 NA
ATOM     25  H   UNL     1      -3.411   0.101  -1.208  0.00  0.00    +0.123 HD
BRANCH   7  14
ATOM     14  C   UNL     1      -4.510  -0.771   0.265  0.00  0.00    +0.124 C 
BRANCH  14  15
ATOM      2  S   UNL     1      -6.626   0.532   1.515  0.00  0.00    -0.100 S 
ATOM     15  C   UNL     1      -5.716   0.119   0.124  0.00  0.00    +0.004 A 
ATOM     17  C   UNL     1      -6.234   0.686  -1.019  0.00  0.00    +0.012 A 
ATOM     20  C   UNL     1      -7.393   1.470  -0.750  0.00  0.00    +0.008 A 
ATOM     21  C   UNL     1      -7.716   1.472   0.589  0.00  0.00    +0.045 A 
ENDBRANCH  14  15
ENDBRANCH   7  14
ENDBRANCH   9   7
BRANCH  11  13
ATOM     13  C   UNL     1       1.545  -0.602  -0.253  0.00  0.00    +0.140 C 
BRANCH  13   8
ATOM      8  N   UNL     1       2.560  -1.385   0.479  0.00  0.00    -0.187 NA
ATOM     26  H   UNL     1       2.379  -1.522   1.481  0.00  0.00    +0.148 HD
BRANCH   8   1
ATOM      1  S   UNL     1       4.171  -1.410  -0.065  0.00  0.00    +0.058 S 
ATOM      5  O   UNL     1       4.202  -1.814  -1.458  0.00  0.00    -0.153 OA
ATOM      6  O   UNL     1       4.989  -2.102   0.913  0.00  0.00    -0.153 OA
BRANCH   1  16
ATOM     16  C   UNL     1       4.608   0.301   0.016  0.00  0.00    +0.105 A 
ATOM     18  C   UNL     1       5.160   0.825   1.184  0.00  0.00    +0.028 A 
ATOM     19  C   UNL     1       4.395   1.128  -1.087  0.00  0.00    +0.028 A 
ATOM     22  C   UNL     1       5.501   2.176   1.250  0.00  0.00    +0.002 A 
ATOM     23  C   UNL     1       4.736   2.479  -1.022  0.00  0.00    +0.002 A 
ATOM     24  C   UNL     1       5.289   3.003   0.147  0.00  0.00    +0.000 A 
ENDBRANCH   1  16
ENDBRANCH   8   1
ENDBRANCH  13   8
ENDBRANCH  11  13
TORSDOF 8
