MODEL 1
REMARK VINA RESULT:      -7.6      0.000      0.000
REMARK  Name = 45783833
REMARK  4 active torsions:
REMARK  status: ('A' for Active; 'I' for Inactive)
REMARK    1  A    between atoms: N_2  and  C_11
REMARK    2  A    between atoms: C_7  and  C_12
REMARK    3  A    between atoms: C_11  and  C_17
REMARK    4  A    between atoms: C_19  and  C_20
REMARK                            x       y       z     vdW  Elec       q    Type
REMARK                         _______ _______ _______ _____ _____    ______ ____
ROOT
ATOM      1  O   UNL     1      -5.128  -9.905  15.603  0.00  0.00    -0.336 OA
ATOM      4  N   UNL     1      -4.975 -11.650  16.999  0.00  0.00    -0.190 NA
ATOM      5  N   UNL     1      -6.301  -9.895  16.368  0.00  0.00    -0.056 NA
ATOM     12  C   UNL     1      -4.404 -10.969  16.037  0.00  0.00    +0.245 A 
ATOM     19  C   UNL     1      -6.136 -10.953  17.169  0.00  0.00    +0.202 A 
ENDROOT
BRANCH  19  20
ATOM      3  N   UNL     1     -10.511 -10.548  19.120  0.00  0.00    -0.315 N 
ATOM      6  N   UNL     1      -9.015 -12.107  20.044  0.00  0.00    -0.240 NA
ATOM     13  C   UNL     1     -12.596  -9.747  19.855  0.00  0.00    +0.020 C 
ATOM     14  C   UNL     1     -12.424  -9.392  18.388  0.00  0.00    +0.020 C 
ATOM     15  C   UNL     1     -11.580 -10.867  20.063  0.00  0.00    +0.106 C 
ATOM     16  C   UNL     1     -10.915  -9.507  18.178  0.00  0.00    +0.106 C 
ATOM     18  C   UNL     1      -9.273 -11.155  19.119  0.00  0.00    +0.122 A 
ATOM     20  C   UNL     1      -7.112 -11.343  18.145  0.00  0.00    +0.027 A 
ATOM     21  C   UNL     1      -8.365 -10.742  18.157  0.00  0.00    +0.055 A 
ATOM     24  C   UNL     1      -6.810 -12.326  19.080  0.00  0.00    +0.031 A 
ATOM     27  C   UNL     1      -7.787 -12.669  20.000  0.00  0.00    +0.113 A 
ENDBRANCH  19  20
BRANCH  12   7
ATOM      2  N   UNL     1      -2.947 -10.466  14.084  0.00  0.00    -0.287 NA
ATOM      7  C   UNL     1      -3.070 -11.201  15.357  0.00  0.00    +0.146 C 
ATOM      8  C   UNL     1      -1.879 -10.717  16.205  0.00  0.00    +0.030 C 
ATOM      9  C   UNL     1      -1.112  -9.761  15.304  0.00  0.00    +0.017 C 
ATOM     10  C   UNL     1      -1.523 -10.181  13.906  0.00  0.00    +0.085 C 
BRANCH   2  11
ATOM     11  C   UNL     1      -3.507 -11.187  12.948  0.00  0.00    +0.120 C 
BRANCH  11  17
ATOM     17  C   UNL     1      -3.957 -10.252  11.856  0.00  0.00    -0.033 A 
ATOM     22  C   UNL     1      -3.150 -10.047  10.737  0.00  0.00    +0.005 A 
ATOM     23  C   UNL     1      -5.180  -9.590  11.965  0.00  0.00    +0.005 A 
ATOM     25  C   UNL     1      -3.567  -9.183   9.726  0.00  0.00    +0.000 A 
ATOM     26  C   UNL     1      -5.596  -8.724  10.954  0.00  0.00    +0.000 A 
ATOM     28  C   UNL     1      -4.790  -8.521   9.834  0.00  0.00    +0.000 A 
ENDBRANCH  11  17
ENDBRANCH   2  11
ENDBRANCH  12   7
TORSDOF 4
ENDMDL
MODEL 2
REMARK VINA RESULT:      -7.3     26.679     30.196
REMARK  Name = 45783833
REMARK  4 active torsions:
REMARK  status: ('A' for Active; 'I' for Inactive)
REMARK    1  A    between atoms: N_2  and  C_11
REMARK    2  A    between atoms: C_7  and  C_12
REMARK    3  A    between atoms: C_11  and  C_17
REMARK    4  A    between atoms: C_19  and  C_20
REMARK                            x       y       z     vdW  Elec       q    Type
REMARK                         _______ _______ _______ _____ _____    ______ ____
ROOT
ATOM      1  O   UNL     1      15.207   8.677  19.704  0.00  0.00    -0.336 OA
ATOM      4  N   UNL     1      16.003   6.699  19.018  0.00  0.00    -0.190 NA
ATOM      5  N   UNL     1      16.404   8.476  20.403  0.00  0.00    -0.056 NA
ATOM     12  C   UNL     1      15.045   7.585  18.912  0.00  0.00    +0.245 A 
ATOM     19  C   UNL     1      16.814   7.290  19.943  0.00  0.00    +0.202 A 
ENDROOT
BRANCH  19  20
ATOM      3  N   UNL     1      20.566   7.077  22.942  0.00  0.00    -0.315 N 
ATOM      6  N   UNL     1      20.385   5.445  21.262  0.00  0.00    -0.240 NA
ATOM     13  C   UNL     1      22.305   7.610  24.432  0.00  0.00    +0.020 C 
ATOM     14  C   UNL     1      21.022   8.256  24.926  0.00  0.00    +0.020 C 
ATOM     15  C   UNL     1      21.804   6.524  23.483  0.00  0.00    +0.106 C 
ATOM     16  C   UNL     1      20.136   8.262  23.681  0.00  0.00    +0.106 C 
ATOM     18  C   UNL     1      19.886   6.547  21.867  0.00  0.00    +0.122 A 
ATOM     20  C   UNL     1      18.026   6.666  20.390  0.00  0.00    +0.027 A 
ATOM     21  C   UNL     1      18.722   7.188  21.473  0.00  0.00    +0.055 A 
ATOM     24  C   UNL     1      18.508   5.533  19.742  0.00  0.00    +0.031 A 
ATOM     27  C   UNL     1      19.681   4.966  20.213  0.00  0.00    +0.113 A 
ENDBRANCH  19  20
BRANCH  12   7
ATOM      2  N   UNL     1      12.760   8.487  18.517  0.00  0.00    -0.287 NA
ATOM      7  C   UNL     1      13.805   7.560  18.043  0.00  0.00    +0.146 C 
ATOM      8  C   UNL     1      14.088   7.997  16.593  0.00  0.00    +0.030 C 
ATOM      9  C   UNL     1      13.112   9.133  16.323  0.00  0.00    +0.017 C 
ATOM     10  C   UNL     1      12.006   8.902  17.334  0.00  0.00    +0.085 C 
BRANCH   2  11
ATOM     11  C   UNL     1      11.899   7.908  19.540  0.00  0.00    +0.120 C 
BRANCH  11  17
ATOM     17  C   UNL     1      11.621   8.880  20.656  0.00  0.00    -0.033 A 
ATOM     22  C   UNL     1      10.890   8.471  21.771  0.00  0.00    +0.005 A 
ATOM     23  C   UNL     1      12.095  10.190  20.575  0.00  0.00    +0.005 A 
ATOM     25  C   UNL     1      10.634   9.370  22.805  0.00  0.00    +0.000 A 
ATOM     26  C   UNL     1      11.838  11.089  21.608  0.00  0.00    +0.000 A 
ATOM     28  C   UNL     1      11.107  10.680  22.724  0.00  0.00    +0.000 A 
ENDBRANCH  11  17
ENDBRANCH   2  11
ENDBRANCH  12   7
TORSDOF 4
ENDMDL
MODEL 3
REMARK VINA RESULT:      -7.2      1.189      2.209
REMARK  Name = 45783833
REMARK  4 active torsions:
REMARK  status: ('A' for Active; 'I' for Inactive)
REMARK    1  A    between atoms: N_2  and  C_11
REMARK    2  A    between atoms: C_7  and  C_12
REMARK    3  A    between atoms: C_11  and  C_17
REMARK    4  A    between atoms: C_19  and  C_20
REMARK                            x       y       z     vdW  Elec       q    Type
REMARK                         _______ _______ _______ _____ _____    ______ ____
ROOT
ATOM      1  O   UNL     1      -4.417 -12.695  16.539  0.00  0.00    -0.336 OA
ATOM      4  N   UNL     1      -5.053 -10.603  16.055  0.00  0.00    -0.190 NA
ATOM      5  N   UNL     1      -5.677 -12.526  17.127  0.00  0.00    -0.056 NA
ATOM     12  C   UNL     1      -4.124 -11.516  15.929  0.00  0.00    +0.245 A 
ATOM     19  C   UNL     1      -5.987 -11.268  16.796  0.00  0.00    +0.202 A 
ENDROOT
BRANCH  19  20
ATOM      3  N   UNL     1     -10.141 -11.350  19.213  0.00  0.00    -0.315 N 
ATOM      6  N   UNL     1      -9.610  -9.429  17.971  0.00  0.00    -0.240 NA
ATOM     13  C   UNL     1     -12.118 -12.024  20.294  0.00  0.00    +0.020 C 
ATOM     14  C   UNL     1     -10.966 -12.869  20.809  0.00  0.00    +0.020 C 
ATOM     15  C   UNL     1     -11.416 -10.815  19.683  0.00  0.00    +0.106 C 
ATOM     16  C   UNL     1      -9.899 -12.695  19.730  0.00  0.00    +0.106 C 
ATOM     18  C   UNL     1      -9.274 -10.671  18.386  0.00  0.00    +0.122 A 
ATOM     20  C   UNL     1      -7.216 -10.645  17.194  0.00  0.00    +0.027 A 
ATOM     21  C   UNL     1      -8.100 -11.317  18.029  0.00  0.00    +0.055 A 
ATOM     24  C   UNL     1      -7.527  -9.366  16.746  0.00  0.00    +0.031 A 
ATOM     27  C   UNL     1      -8.725  -8.807  17.160  0.00  0.00    +0.113 A 
ENDBRANCH  19  20
BRANCH  12   7
ATOM      2  N   UNL     1      -2.838 -10.560  14.026  0.00  0.00    -0.287 NA
ATOM      7  C   UNL     1      -2.794 -11.441  15.209  0.00  0.00    +0.146 C 
ATOM      8  C   UNL     1      -1.674 -10.857  16.090  0.00  0.00    +0.030 C 
ATOM      9  C   UNL     1      -1.108  -9.690  15.293  0.00  0.00    +0.017 C 
ATOM     10  C   UNL     1      -1.490 -10.017  13.863  0.00  0.00    +0.085 C 
BRANCH   2  11
ATOM     11  C   UNL     1      -3.307 -11.236  12.824  0.00  0.00    +0.120 C 
BRANCH  11  17
ATOM     17  C   UNL     1      -3.884 -10.268  11.824  0.00  0.00    -0.033 A 
ATOM     22  C   UNL     1      -5.114  -9.659  12.074  0.00  0.00    +0.005 A 
ATOM     23  C   UNL     1      -3.190  -9.982  10.649  0.00  0.00    +0.005 A 
ATOM     25  C   UNL     1      -5.648  -8.763  11.149  0.00  0.00    +0.000 A 
ATOM     26  C   UNL     1      -3.724  -9.086   9.723  0.00  0.00    +0.000 A 
ATOM     28  C   UNL     1      -4.953  -8.476   9.973  0.00  0.00    +0.000 A 
ENDBRANCH  11  17
ENDBRANCH   2  11
ENDBRANCH  12   7
TORSDOF 4
ENDMDL
MODEL 4
REMARK VINA RESULT:      -7.1      1.516      2.133
REMARK  Name = 45783833
REMARK  4 active torsions:
REMARK  status: ('A' for Active; 'I' for Inactive)
REMARK    1  A    between atoms: N_2  and  C_11
REMARK    2  A    between atoms: C_7  and  C_12
REMARK    3  A    between atoms: C_11  and  C_17
REMARK    4  A    between atoms: C_19  and  C_20
REMARK                            x       y       z     vdW  Elec       q    Type
REMARK                         _______ _______ _______ _____ _____    ______ ____
ROOT
ATOM      1  O   UNL     1      -4.358 -13.124  15.646  0.00  0.00    -0.336 OA
ATOM      4  N   UNL     1      -4.727 -11.000  16.251  0.00  0.00    -0.190 NA
ATOM      5  N   UNL     1      -5.581 -13.121  16.327  0.00  0.00    -0.056 NA
ATOM     12  C   UNL     1      -3.922 -11.837  15.647  0.00  0.00    +0.245 A 
ATOM     19  C   UNL     1      -5.731 -11.833  16.652  0.00  0.00    +0.202 A 
ENDROOT
BRANCH  19  20
ATOM      3  N   UNL     1      -9.623  -9.028  16.965  0.00  0.00    -0.315 N 
ATOM      6  N   UNL     1      -9.088 -10.404  18.792  0.00  0.00    -0.240 NA
ATOM     13  C   UNL     1     -11.184  -7.288  16.714  0.00  0.00    +0.020 C 
ATOM     14  C   UNL     1     -10.728  -7.739  15.337  0.00  0.00    +0.020 C 
ATOM     15  C   UNL     1     -10.807  -8.466  17.608  0.00  0.00    +0.106 C 
ATOM     16  C   UNL     1      -9.421  -8.473  15.628  0.00  0.00    +0.106 C 
ATOM     18  C   UNL     1      -8.797  -9.966  17.546  0.00  0.00    +0.122 A 
ATOM     20  C   UNL     1      -6.868 -11.347  17.378  0.00  0.00    +0.027 A 
ATOM     21  C   UNL     1      -7.711 -10.402  16.804  0.00  0.00    +0.055 A 
ATOM     24  C   UNL     1      -7.134 -11.821  18.657  0.00  0.00    +0.031 A 
ATOM     27  C   UNL     1      -8.246 -11.323  19.316  0.00  0.00    +0.113 A 
ENDBRANCH  19  20
BRANCH  12   7
ATOM      2  N   UNL     1      -2.719 -10.607  13.850  0.00  0.00    -0.287 NA
ATOM      7  C   UNL     1      -2.599 -11.572  14.960  0.00  0.00    +0.146 C 
ATOM      8  C   UNL     1      -1.553 -10.951  15.906  0.00  0.00    +0.030 C 
ATOM      9  C   UNL     1      -1.099  -9.674  15.214  0.00  0.00    +0.017 C 
ATOM     10  C   UNL     1      -1.430  -9.922  13.755  0.00  0.00    +0.085 C 
BRANCH   2  11
ATOM     11  C   UNL     1      -3.104 -11.228  12.589  0.00  0.00    +0.120 C 
BRANCH  11  17
ATOM     17  C   UNL     1      -3.762 -10.245  11.657  0.00  0.00    -0.033 A 
ATOM     22  C   UNL     1      -5.009  -9.707  11.978  0.00  0.00    +0.005 A 
ATOM     23  C   UNL     1      -3.126  -9.873  10.473  0.00  0.00    +0.005 A 
ATOM     25  C   UNL     1      -5.618  -8.797  11.115  0.00  0.00    +0.000 A 
ATOM     26  C   UNL     1      -3.735  -8.963   9.610  0.00  0.00    +0.000 A 
ATOM     28  C   UNL     1      -4.981  -8.424   9.931  0.00  0.00    +0.000 A 
ENDBRANCH  11  17
ENDBRANCH   2  11
ENDBRANCH  12   7
TORSDOF 4
ENDMDL
MODEL 5
REMARK VINA RESULT:      -7.1      2.619      3.674
REMARK  Name = 45783833
REMARK  4 active torsions:
REMARK  status: ('A' for Active; 'I' for Inactive)
REMARK    1  A    between atoms: N_2  and  C_11
REMARK    2  A    between atoms: C_7  and  C_12
REMARK    3  A    between atoms: C_11  and  C_17
REMARK    4  A    between atoms: C_19  and  C_20
REMARK                            x       y       z     vdW  Elec       q    Type
REMARK                         _______ _______ _______ _____ _____    ______ ____
ROOT
ATOM      1  O   UNL     1      -4.621 -10.763  17.417  0.00  0.00    -0.336 OA
ATOM      4  N   UNL     1      -5.579 -10.234  15.463  0.00  0.00    -0.190 NA
ATOM      5  N   UNL     1      -5.913 -10.318  17.725  0.00  0.00    -0.056 NA
ATOM     12  C   UNL     1      -4.507 -10.681  16.066  0.00  0.00    +0.245 A 
ATOM     19  C   UNL     1      -6.416 -10.026  16.521  0.00  0.00    +0.202 A 
ENDROOT
BRANCH  19  20
ATOM      3  N   UNL     1     -10.262  -9.228  13.751  0.00  0.00    -0.315 N 
ATOM      6  N   UNL     1     -10.341  -8.540  15.996  0.00  0.00    -0.240 NA
ATOM     13  C   UNL     1     -11.696  -8.818  11.932  0.00  0.00    +0.020 C 
ATOM     14  C   UNL     1     -10.785  -9.984  11.586  0.00  0.00    +0.020 C 
ATOM     15  C   UNL     1     -11.611  -8.752  13.455  0.00  0.00    +0.106 C 
ATOM     16  C   UNL     1      -9.634  -9.831  12.577  0.00  0.00    +0.106 C 
ATOM     18  C   UNL     1      -9.657  -9.121  14.984  0.00  0.00    +0.122 A 
ATOM     20  C   UNL     1      -7.746  -9.520  16.342  0.00  0.00    +0.027 A 
ATOM     21  C   UNL     1      -8.371  -9.622  15.105  0.00  0.00    +0.055 A 
ATOM     24  C   UNL     1      -8.418  -8.930  17.407  0.00  0.00    +0.031 A 
ATOM     27  C   UNL     1      -9.702  -8.460  17.184  0.00  0.00    +0.113 A 
ENDBRANCH  19  20
BRANCH  12   7
ATOM      2  N   UNL     1      -2.910 -10.479  14.169  0.00  0.00    -0.287 NA
ATOM      7  C   UNL     1      -3.182 -11.113  15.473  0.00  0.00    +0.146 C 
ATOM      8  C   UNL     1      -1.981 -10.723  16.356  0.00  0.00    +0.030 C 
ATOM      9  C   UNL     1      -1.060  -9.924  15.445  0.00  0.00    +0.017 C 
ATOM     10  C   UNL     1      -1.455 -10.377  14.053  0.00  0.00    +0.085 C 
BRANCH   2  11
ATOM     11  C   UNL     1      -3.500 -11.196  13.047  0.00  0.00    +0.120 C 
BRANCH  11  17
ATOM     17  C   UNL     1      -3.941 -10.261  11.952  0.00  0.00    -0.033 A 
ATOM     22  C   UNL     1      -5.179  -9.623  12.035  0.00  0.00    +0.005 A 
ATOM     23  C   UNL     1      -3.112 -10.032  10.854  0.00  0.00    +0.005 A 
ATOM     25  C   UNL     1      -5.587  -8.757  11.022  0.00  0.00    +0.000 A 
ATOM     26  C   UNL     1      -3.520  -9.166   9.840  0.00  0.00    +0.000 A 
ATOM     28  C   UNL     1      -4.758  -8.528   9.924  0.00  0.00    +0.000 A 
ENDBRANCH  11  17
ENDBRANCH   2  11
ENDBRANCH  12   7
TORSDOF 4
ENDMDL
MODEL 6
REMARK VINA RESULT:      -7.0      1.939      7.782
REMARK  Name = 45783833
REMARK  4 active torsions:
REMARK  status: ('A' for Active; 'I' for Inactive)
REMARK    1  A    between atoms: N_2  and  C_11
REMARK    2  A    between atoms: C_7  and  C_12
REMARK    3  A    between atoms: C_11  and  C_17
REMARK    4  A    between atoms: C_19  and  C_20
REMARK                            x       y       z     vdW  Elec       q    Type
REMARK                         _______ _______ _______ _____ _____    ______ ____
ROOT
ATOM      1  O   UNL     1      -4.958 -11.485  19.177  0.00  0.00    -0.336 OA
ATOM      4  N   UNL     1      -5.501 -10.565  17.209  0.00  0.00    -0.190 NA
ATOM      5  N   UNL     1      -3.792 -11.511  18.401  0.00  0.00    -0.056 NA
ATOM     12  C   UNL     1      -5.915 -10.914  18.401  0.00  0.00    +0.245 A 
ATOM     19  C   UNL     1      -4.192 -10.950  17.255  0.00  0.00    +0.202 A 
ENDROOT
BRANCH  19  20
ATOM      3  N   UNL     1      -3.463 -10.403  12.535  0.00  0.00    -0.315 N 
ATOM      6  N   UNL     1      -1.597 -10.395  13.962  0.00  0.00    -0.240 NA
ATOM     13  C   UNL     1      -3.648 -10.483  10.192  0.00  0.00    +0.020 C 
ATOM     14  C   UNL     1      -4.979 -10.038  10.774  0.00  0.00    +0.020 C 
ATOM     15  C   UNL     1      -2.665 -10.211  11.327  0.00  0.00    +0.106 C 
ATOM     16  C   UNL     1      -4.889 -10.490  12.229  0.00  0.00    +0.106 C 
ATOM     18  C   UNL     1      -2.937 -10.490  13.806  0.00  0.00    +0.122 A 
ATOM     20  C   UNL     1      -3.313 -10.764  16.138  0.00  0.00    +0.027 A 
ATOM     21  C   UNL     1      -3.828 -10.672  14.851  0.00  0.00    +0.055 A 
ATOM     24  C   UNL     1      -1.940 -10.671  16.339  0.00  0.00    +0.031 A 
ATOM     27  C   UNL     1      -1.132 -10.488  15.228  0.00  0.00    +0.113 A 
ENDBRANCH  19  20
BRANCH  12   7
ATOM      2  N   UNL     1      -8.317 -10.378  18.037  0.00  0.00    -0.287 NA
ATOM      7  C   UNL     1      -7.289 -10.768  19.021  0.00  0.00    +0.146 C 
ATOM      8  C   UNL     1      -7.809 -12.084  19.630  0.00  0.00    +0.030 C 
ATOM      9  C   UNL     1      -9.161 -12.320  18.971  0.00  0.00    +0.017 C 
ATOM     10  C   UNL     1      -9.582 -10.936  18.516  0.00  0.00    +0.085 C 
BRANCH   2  11
ATOM     11  C   UNL     1      -8.398  -8.938  17.831  0.00  0.00    +0.120 C 
BRANCH  11  17
ATOM     17  C   UNL     1      -9.420  -8.577  16.785  0.00  0.00    -0.033 A 
ATOM     22  C   UNL     1      -9.349  -9.146  15.514  0.00  0.00    +0.005 A 
ATOM     23  C   UNL     1     -10.438  -7.672  17.088  0.00  0.00    +0.005 A 
ATOM     25  C   UNL     1     -10.296  -8.812  14.547  0.00  0.00    +0.000 A 
ATOM     26  C   UNL     1     -11.384  -7.337  16.121  0.00  0.00    +0.000 A 
ATOM     28  C   UNL     1     -11.314  -7.908  14.850  0.00  0.00    +0.000 A 
ENDBRANCH  11  17
ENDBRANCH   2  11
ENDBRANCH  12   7
TORSDOF 4
ENDMDL
MODEL 7
REMARK VINA RESULT:      -6.9     25.232     28.468
REMARK  Name = 45783833
REMARK  4 active torsions:
REMARK  status: ('A' for Active; 'I' for Inactive)
REMARK    1  A    between atoms: N_2  and  C_11
REMARK    2  A    between atoms: C_7  and  C_12
REMARK    3  A    between atoms: C_11  and  C_17
REMARK    4  A    between atoms: C_19  and  C_20
REMARK                            x       y       z     vdW  Elec       q    Type
REMARK                         _______ _______ _______ _____ _____    ______ ____
ROOT
ATOM      1  O   UNL     1      11.322   6.968   4.026  0.00  0.00    -0.336 OA
ATOM      4  N   UNL     1      10.882   4.806   3.644  0.00  0.00    -0.190 NA
ATOM      5  N   UNL     1      11.759   6.707   2.721  0.00  0.00    -0.056 NA
ATOM     12  C   UNL     1      10.821   5.796   4.497  0.00  0.00    +0.245 A 
ATOM     19  C   UNL     1      11.464   5.412   2.568  0.00  0.00    +0.202 A 
ENDROOT
BRANCH  19  20
ATOM      3  N   UNL     1      10.431   4.337  -2.002  0.00  0.00    -0.315 N 
ATOM      6  N   UNL     1      12.286   3.299  -1.002  0.00  0.00    -0.240 NA
ATOM     13  C   UNL     1       9.328   3.954  -4.043  0.00  0.00    +0.020 C 
ATOM     14  C   UNL     1       8.912   5.314  -3.509  0.00  0.00    +0.020 C 
ATOM     15  C   UNL     1      10.620   3.664  -3.284  0.00  0.00    +0.106 C 
ATOM     16  C   UNL     1       9.274   5.230  -2.028  0.00  0.00    +0.106 C 
ATOM     18  C   UNL     1      11.243   4.155  -0.904  0.00  0.00    +0.122 A 
ATOM     20  C   UNL     1      11.741   4.694   1.358  0.00  0.00    +0.027 A 
ATOM     21  C   UNL     1      10.932   4.869   0.242  0.00  0.00    +0.055 A 
ATOM     24  C   UNL     1      12.823   3.822   1.295  0.00  0.00    +0.031 A 
ATOM     27  C   UNL     1      13.050   3.155   0.103  0.00  0.00    +0.113 A 
ENDBRANCH  19  20
BRANCH  12   7
ATOM      2  N   UNL     1      10.818   6.928   6.713  0.00  0.00    -0.287 NA
ATOM      7  C   UNL     1      10.276   5.815   5.910  0.00  0.00    +0.146 C 
ATOM      8  C   UNL     1       8.749   6.008   5.955  0.00  0.00    +0.030 C 
ATOM      9  C   UNL     1       8.527   7.215   6.855  0.00  0.00    +0.017 C 
ATOM     10  C   UNL     1       9.788   7.272   7.693  0.00  0.00    +0.085 C 
BRANCH   2  11
ATOM     11  C   UNL     1      12.093   6.613   7.345  0.00  0.00    +0.120 C 
BRANCH  11  17
ATOM     17  C   UNL     1      13.171   7.587   6.949  0.00  0.00    -0.033 A 
ATOM     22  C   UNL     1      12.912   8.958   6.963  0.00  0.00    +0.005 A 
ATOM     23  C   UNL     1      14.429   7.119   6.570  0.00  0.00    +0.005 A 
ATOM     25  C   UNL     1      13.911   9.860   6.598  0.00  0.00    +0.000 A 
ATOM     26  C   UNL     1      15.428   8.020   6.204  0.00  0.00    +0.000 A 
ATOM     28  C   UNL     1      15.169   9.391   6.218  0.00  0.00    +0.000 A 
ENDBRANCH  11  17
ENDBRANCH   2  11
ENDBRANCH  12   7
TORSDOF 4
ENDMDL
MODEL 8
REMARK VINA RESULT:      -6.9      1.994      8.049
REMARK  Name = 45783833
REMARK  4 active torsions:
REMARK  status: ('A' for Active; 'I' for Inactive)
REMARK    1  A    between atoms: N_2  and  C_11
REMARK    2  A    between atoms: C_7  and  C_12
REMARK    3  A    between atoms: C_11  and  C_17
REMARK    4  A    between atoms: C_19  and  C_20
REMARK                            x       y       z     vdW  Elec       q    Type
REMARK                         _______ _______ _______ _____ _____    ______ ____
ROOT
ATOM      1  O   UNL     1      -4.624 -12.261  16.542  0.00  0.00    -0.336 OA
ATOM      4  N   UNL     1      -4.653 -10.189  15.692  0.00  0.00    -0.190 NA
ATOM      5  N   UNL     1      -4.036 -12.352  15.274  0.00  0.00    -0.056 NA
ATOM     12  C   UNL     1      -4.960 -10.955  16.708  0.00  0.00    +0.245 A 
ATOM     19  C   UNL     1      -4.089 -11.090  14.836  0.00  0.00    +0.202 A 
ENDROOT
BRANCH  19  20
ATOM      3  N   UNL     1      -4.827  -9.588  10.330  0.00  0.00    -0.315 N 
ATOM      6  N   UNL     1      -2.616  -9.928  11.046  0.00  0.00    -0.240 NA
ATOM     13  C   UNL     1      -5.743  -9.171   8.204  0.00  0.00    +0.020 C 
ATOM     14  C   UNL     1      -6.777  -8.823   9.260  0.00  0.00    +0.020 C 
ATOM     15  C   UNL     1      -4.433  -9.168   8.988  0.00  0.00    +0.106 C 
ATOM     16  C   UNL     1      -6.279  -9.572  10.494  0.00  0.00    +0.106 C 
ATOM     18  C   UNL     1      -3.940  -9.952  11.319  0.00  0.00    +0.122 A 
ATOM     20  C   UNL     1      -3.590 -10.698  13.550  0.00  0.00    +0.027 A 
ATOM     21  C   UNL     1      -4.472 -10.325  12.543  0.00  0.00    +0.055 A 
ATOM     24  C   UNL     1      -2.221 -10.685  13.307  0.00  0.00    +0.031 A 
ATOM     27  C   UNL     1      -1.789 -10.295  12.050  0.00  0.00    +0.113 A 
ENDBRANCH  19  20
BRANCH  12   7
ATOM      2  N   UNL     1      -7.089 -10.484  17.906  0.00  0.00    -0.287 NA
ATOM      7  C   UNL     1      -5.621 -10.589  18.021  0.00  0.00    +0.146 C 
ATOM      8  C   UNL     1      -5.390 -11.646  19.117  0.00  0.00    +0.030 C 
ATOM      9  C   UNL     1      -6.781 -12.030  19.600  0.00  0.00    +0.017 C 
ATOM     10  C   UNL     1      -7.633 -10.836  19.217  0.00  0.00    +0.085 C 
BRANCH   2  11
ATOM     11  C   UNL     1      -7.538  -9.171  17.461  0.00  0.00    +0.120 C 
BRANCH  11  17
ATOM     17  C   UNL     1      -8.955  -9.204  16.954  0.00  0.00    -0.033 A 
ATOM     22  C   UNL     1      -9.902  -8.319  17.471  0.00  0.00    +0.005 A 
ATOM     23  C   UNL     1      -9.322 -10.120  15.968  0.00  0.00    +0.005 A 
ATOM     25  C   UNL     1     -11.214  -8.349  17.001  0.00  0.00    +0.000 A 
ATOM     26  C   UNL     1     -10.635 -10.151  15.498  0.00  0.00    +0.000 A 
ATOM     28  C   UNL     1     -11.581  -9.265  16.014  0.00  0.00    +0.000 A 
ENDBRANCH  11  17
ENDBRANCH   2  11
ENDBRANCH  12   7
TORSDOF 4
ENDMDL
MODEL 9
REMARK VINA RESULT:      -6.6     24.832     28.357
REMARK  Name = 45783833
REMARK  4 active torsions:
REMARK  status: ('A' for Active; 'I' for Inactive)
REMARK    1  A    between atoms: N_2  and  C_11
REMARK    2  A    between atoms: C_7  and  C_12
REMARK    3  A    between atoms: C_11  and  C_17
REMARK    4  A    between atoms: C_19  and  C_20
REMARK                            x       y       z     vdW  Elec       q    Type
REMARK                         _______ _______ _______ _____ _____    ______ ____
ROOT
ATOM      1  O   UNL     1      10.309   4.569   5.133  0.00  0.00    -0.336 OA
ATOM      4  N   UNL     1      11.053   6.198   3.788  0.00  0.00    -0.190 NA
ATOM      5  N   UNL     1      10.469   3.987   3.869  0.00  0.00    -0.056 NA
ATOM     12  C   UNL     1      10.673   5.871   4.997  0.00  0.00    +0.245 A 
ATOM     19  C   UNL     1      10.912   5.011   3.131  0.00  0.00    +0.202 A 
ENDROOT
BRANCH  19  20
ATOM      3  N   UNL     1      14.094   4.515  -0.438  0.00  0.00    -0.315 N 
ATOM      6  N   UNL     1      11.812   4.623  -0.984  0.00  0.00    -0.240 NA
ATOM     13  C   UNL     1      16.032   4.587  -1.769  0.00  0.00    +0.020 C 
ATOM     14  C   UNL     1      16.401   4.059  -0.393  0.00  0.00    +0.020 C 
ATOM     15  C   UNL     1      14.521   4.375  -1.827  0.00  0.00    +0.106 C 
ATOM     16  C   UNL     1      15.232   4.514   0.478  0.00  0.00    +0.106 C 
ATOM     18  C   UNL     1      12.780   4.634  -0.040  0.00  0.00    +0.122 A 
ATOM     20  C   UNL     1      11.218   4.881   1.736  0.00  0.00    +0.027 A 
ATOM     21  C   UNL     1      12.537   4.759   1.319  0.00  0.00    +0.055 A 
ATOM     24  C   UNL     1      10.194   4.874   0.794  0.00  0.00    +0.031 A 
ATOM     27  C   UNL     1      10.540   4.743  -0.541  0.00  0.00    +0.113 A 
ENDBRANCH  19  20
BRANCH  12   7
ATOM      2  N   UNL     1       9.407   7.613   6.244  0.00  0.00    -0.287 NA
ATOM      7  C   UNL     1      10.589   6.728   6.243  0.00  0.00    +0.146 C 
ATOM      8  C   UNL     1      10.455   5.894   7.531  0.00  0.00    +0.030 C 
ATOM      9  C   UNL     1       9.204   6.422   8.218  0.00  0.00    +0.017 C 
ATOM     10  C   UNL     1       9.045   7.817   7.647  0.00  0.00    +0.085 C 
BRANCH   2  11
ATOM     11  C   UNL     1       9.631   8.872   5.547  0.00  0.00    +0.120 C 
BRANCH  11  17
ATOM     17  C   UNL     1       8.590   9.118   4.486  0.00  0.00    -0.033 A 
ATOM     22  C   UNL     1       7.405   9.778   4.811  0.00  0.00    +0.005 A 
ATOM     23  C   UNL     1       8.812   8.687   3.178  0.00  0.00    +0.005 A 
ATOM     25  C   UNL     1       6.442  10.006   3.829  0.00  0.00    +0.000 A 
ATOM     26  C   UNL     1       7.849   8.915   2.196  0.00  0.00    +0.000 A 
ATOM     28  C   UNL     1       6.664   9.575   2.521  0.00  0.00    +0.000 A 
ENDBRANCH  11  17
ENDBRANCH   2  11
ENDBRANCH  12   7
TORSDOF 4
ENDMDL
MODEL 10
REMARK VINA RESULT:      -6.5     24.682     27.330
REMARK  Name = 45783833
REMARK  4 active torsions:
REMARK  status: ('A' for Active; 'I' for Inactive)
REMARK    1  A    between atoms: N_2  and  C_11
REMARK    2  A    between atoms: C_7  and  C_12
REMARK    3  A    between atoms: C_11  and  C_17
REMARK    4  A    between atoms: C_19  and  C_20
REMARK                            x       y       z     vdW  Elec       q    Type
REMARK                         _______ _______ _______ _____ _____    ______ ____
ROOT
ATOM      1  O   UNL     1      16.908  -6.912  29.799  0.00  0.00    -0.336 OA
ATOM      4  N   UNL     1      15.400  -6.309  28.258  0.00  0.00    -0.190 NA
ATOM      5  N   UNL     1      17.620  -6.741  28.605  0.00  0.00    -0.056 NA
ATOM     12  C   UNL     1      15.610  -6.640  29.507  0.00  0.00    +0.245 A 
ATOM     19  C   UNL     1      16.662  -6.384  27.743  0.00  0.00    +0.202 A 
ENDROOT
BRANCH  19  20
ATOM      3  N   UNL     1      17.187  -3.260  24.127  0.00  0.00    -0.315 N 
ATOM      6  N   UNL     1      17.462  -5.549  23.675  0.00  0.00    -0.240 NA
ATOM     13  C   UNL     1      17.030  -1.388  22.713  0.00  0.00    +0.020 C 
ATOM     14  C   UNL     1      17.317  -0.912  24.127  0.00  0.00    +0.020 C 
ATOM     15  C   UNL     1      17.450  -2.855  22.749  0.00  0.00    +0.106 C 
ATOM     16  C   UNL     1      16.913  -2.109  24.985  0.00  0.00    +0.106 C 
ATOM     18  C   UNL     1      17.196  -4.567  24.566  0.00  0.00    +0.122 A 
ATOM     20  C   UNL     1      16.931  -6.101  26.363  0.00  0.00    +0.027 A 
ATOM     21  C   UNL     1      16.928  -4.788  25.907  0.00  0.00    +0.055 A 
ATOM     24  C   UNL     1      17.201  -7.138  25.477  0.00  0.00    +0.031 A 
ATOM     27  C   UNL     1      17.457  -6.812  24.156  0.00  0.00    +0.113 A 
ENDBRANCH  19  20
BRANCH  12   7
ATOM      2  N   UNL     1      14.261  -5.444  31.222  0.00  0.00    -0.287 NA
ATOM      7  C   UNL     1      14.622  -6.755  30.649  0.00  0.00    +0.146 C 
ATOM      8  C   UNL     1      13.281  -7.374  30.213  0.00  0.00    +0.030 C 
ATOM      9  C   UNL     1      12.221  -6.367  30.637  0.00  0.00    +0.017 C 
ATOM     10  C   UNL     1      12.900  -5.579  31.740  0.00  0.00    +0.085 C 
BRANCH   2  11
ATOM     11  C   UNL     1      15.194  -4.987  32.243  0.00  0.00    +0.120 C 
BRANCH  11  17
ATOM     17  C   UNL     1      15.799  -3.652  31.895  0.00  0.00    -0.033 A 
ATOM     22  C   UNL     1      15.984  -3.298  30.559  0.00  0.00    +0.005 A 
ATOM     23  C   UNL     1      16.174  -2.770  32.909  0.00  0.00    +0.005 A 
ATOM     25  C   UNL     1      16.543  -2.061  30.236  0.00  0.00    +0.000 A 
ATOM     26  C   UNL     1      16.734  -1.535  32.587  0.00  0.00    +0.000 A 
ATOM     28  C   UNL     1      16.918  -1.180  31.250  0.00  0.00    +0.000 A 
ENDBRANCH  11  17
ENDBRANCH   2  11
ENDBRANCH  12   7
TORSDOF 4
ENDMDL
