MODEL 1
REMARK VINA RESULT:      -7.7      0.000      0.000
REMARK  Name = 9420564
REMARK  5 active torsions:
REMARK  status: ('A' for Active; 'I' for Inactive)
REMARK    1  A    between atoms: N_4  and  C_14
REMARK    2  A    between atoms: N_6  and  C_24
REMARK    3  A    between atoms: C_14  and  C_19
REMARK    4  A    between atoms: C_17  and  C_20
REMARK    5  A    between atoms: C_22  and  C_24
REMARK                            x       y       z     vdW  Elec       q    Type
REMARK                         _______ _______ _______ _____ _____    ______ ____
ROOT
ATOM      1  O   UNL     1      12.276   7.791   2.740  0.00  0.00    -0.267 OA
ATOM      4  N   UNL     1      13.380   4.395  -0.780  0.00  0.00    -0.294 NA
ATOM      5  N   UNL     1      12.759   5.599   2.108  0.00  0.00    -0.311 N 
ATOM      7  C   UNL     1      14.999   4.923   1.061  0.00  0.00    +0.024 C 
ATOM      8  C   UNL     1      13.267   3.230   1.428  0.00  0.00    +0.050 C 
ATOM      9  C   UNL     1      14.727   3.573   1.714  0.00  0.00    +0.017 C 
ATOM     10  C   UNL     1      14.743   4.837  -0.459  0.00  0.00    +0.090 C 
ATOM     11  C   UNL     1      13.049   3.134  -0.099  0.00  0.00    +0.094 C 
ATOM     12  C   UNL     1      14.130   5.987   1.746  0.00  0.00    +0.130 C 
ATOM     13  C   UNL     1      12.341   4.269   2.031  0.00  0.00    +0.026 A 
ATOM     15  C   UNL     1      11.122   3.920   2.473  0.00  0.00    +0.022 A 
ATOM     16  C   UNL     1      11.930   6.614   2.627  0.00  0.00    +0.259 A 
ATOM     17  C   UNL     1      10.557   6.198   3.082  0.00  0.00    +0.047 A 
ATOM     18  C   UNL     1      10.218   4.902   2.999  0.00  0.00    +0.015 A 
ENDROOT
BRANCH  17  20
ATOM     20  C   UNL     1       9.593   7.184   3.600  0.00  0.00    -0.008 A 
ATOM     22  C   UNL     1       9.572   7.543   4.949  0.00  0.00    -0.025 A 
ATOM     25  C   UNL     1       8.683   7.766   2.714  0.00  0.00    +0.009 A 
ATOM     27  C   UNL     1       8.647   8.480   5.410  0.00  0.00    +0.005 A 
ATOM     30  C   UNL     1       7.758   8.703   3.175  0.00  0.00    +0.001 A 
ATOM     32  C   UNL     1       7.740   9.060   4.522  0.00  0.00    +0.000 A 
BRANCH  22  24
ATOM     24  C   UNL     1      10.528   6.942   5.929  0.00  0.00    +0.120 C 
BRANCH  24   6
ATOM      3  O   UNL     1       9.889   4.077   8.927  0.00  0.00    -0.377 OA
ATOM      6  N   UNL     1       9.865   6.048   6.874  0.00  0.00    -0.294 NA
ATOM     28  C   UNL     1      10.235   6.383   8.257  0.00  0.00    +0.113 C 
ATOM     29  C   UNL     1      10.198   4.646   6.589  0.00  0.00    +0.113 C 
ATOM     34  C   UNL     1       9.540   5.428   9.224  0.00  0.00    +0.175 C 
ATOM     35  C   UNL     1       9.504   3.734   7.595  0.00  0.00    +0.175 C 
ENDBRANCH  24   6
ENDBRANCH  22  24
ENDBRANCH  17  20
BRANCH   4  14
ATOM     14  C   UNL     1      13.194   4.274  -2.224  0.00  0.00    +0.158 C 
BRANCH  14  19
ATOM      2  O   UNL     1      11.237   5.644  -1.968  0.00  0.00    -0.458 OA
ATOM     19  C   UNL     1      11.789   4.619  -2.640  0.00  0.00    +0.120 A 
ATOM     21  C   UNL     1      10.968   4.087  -3.572  0.00  0.00    +0.054 A 
ATOM     23  C   UNL     1       9.770   4.846  -3.489  0.00  0.00    +0.020 A 
ATOM     26  C   UNL     1       9.987   5.788  -2.490  0.00  0.00    +0.135 A 
ATOM     31  C   UNL     1       8.528   4.839  -4.148  0.00  0.00    +0.011 A 
ATOM     33  C   UNL     1       9.047   6.738  -2.093  0.00  0.00    +0.047 A 
ATOM     36  C   UNL     1       7.562   5.783  -3.772  0.00  0.00    +0.001 A 
ATOM     37  C   UNL     1       7.819   6.714  -2.762  0.00  0.00    +0.004 A 
ENDBRANCH  14  19
ENDBRANCH   4  14
TORSDOF 5
ENDMDL
MODEL 2
REMARK VINA RESULT:      -7.4     24.726     28.795
REMARK  Name = 9420564
REMARK  5 active torsions:
REMARK  status: ('A' for Active; 'I' for Inactive)
REMARK    1  A    between atoms: N_4  and  C_14
REMARK    2  A    between atoms: N_6  and  C_24
REMARK    3  A    between atoms: C_14  and  C_19
REMARK    4  A    between atoms: C_17  and  C_20
REMARK    5  A    between atoms: C_22  and  C_24
REMARK                            x       y       z     vdW  Elec       q    Type
REMARK                         _______ _______ _______ _____ _____    ______ ____
ROOT
ATOM      1  O   UNL     1      -7.812  -8.912  17.453  0.00  0.00    -0.267 OA
ATOM      4  N   UNL     1      -4.308 -12.053  15.722  0.00  0.00    -0.294 NA
ATOM      5  N   UNL     1      -6.719 -10.971  17.508  0.00  0.00    -0.311 N 
ATOM      7  C   UNL     1      -4.232 -11.203  18.080  0.00  0.00    +0.024 C 
ATOM      8  C   UNL     1      -5.551 -13.199  17.562  0.00  0.00    +0.050 C 
ATOM      9  C   UNL     1      -4.634 -12.574  18.609  0.00  0.00    +0.017 C 
ATOM     10  C   UNL     1      -3.502 -11.350  16.729  0.00  0.00    +0.090 C 
ATOM     11  C   UNL     1      -4.786 -13.349  16.227  0.00  0.00    +0.094 C 
ATOM     12  C   UNL     1      -5.487 -10.324  17.980  0.00  0.00    +0.130 C 
ATOM     13  C   UNL     1      -6.798 -12.358  17.366  0.00  0.00    +0.026 A 
ATOM     15  C   UNL     1      -7.966 -12.936  17.042  0.00  0.00    +0.022 A 
ATOM     16  C   UNL     1      -7.835 -10.135  17.306  0.00  0.00    +0.259 A 
ATOM     17  C   UNL     1      -9.122 -10.809  16.909  0.00  0.00    +0.047 A 
ATOM     18  C   UNL     1      -9.140 -12.146  16.805  0.00  0.00    +0.015 A 
ENDROOT
BRANCH  17  20
ATOM     20  C   UNL     1     -10.338 -10.028  16.630  0.00  0.00    -0.008 A 
ATOM     22  C   UNL     1     -11.166  -9.574  17.659  0.00  0.00    -0.025 A 
ATOM     25  C   UNL     1     -10.663  -9.739  15.302  0.00  0.00    +0.009 A 
ATOM     27  C   UNL     1     -12.312  -8.836  17.363  0.00  0.00    +0.005 A 
ATOM     30  C   UNL     1     -11.809  -9.001  15.006  0.00  0.00    +0.001 A 
ATOM     32  C   UNL     1     -12.633  -8.550  16.036  0.00  0.00    +0.000 A 
BRANCH  22  24
ATOM     24  C   UNL     1     -10.853  -9.862  19.092  0.00  0.00    +0.120 C 
BRANCH  24   6
ATOM      3  O   UNL     1     -12.325 -12.854  21.640  0.00  0.00    -0.377 OA
ATOM      6  N   UNL     1     -11.524 -11.066  19.575  0.00  0.00    -0.294 NA
ATOM     28  C   UNL     1     -12.600 -10.721  20.516  0.00  0.00    +0.113 C 
ATOM     29  C   UNL     1     -10.567 -11.977  20.217  0.00  0.00    +0.113 C 
ATOM     34  C   UNL     1     -13.278 -11.995  21.015  0.00  0.00    +0.175 C 
ATOM     35  C   UNL     1     -11.293 -13.219  20.723  0.00  0.00    +0.175 C 
ENDBRANCH  24   6
ENDBRANCH  22  24
ENDBRANCH  17  20
BRANCH   4  14
ATOM     14  C   UNL     1      -3.563 -12.220  14.477  0.00  0.00    +0.158 C 
BRANCH  14  19
ATOM      2  O   UNL     1      -3.167 -11.108  12.385  0.00  0.00    -0.458 OA
ATOM     19  C   UNL     1      -4.014 -11.248  13.419  0.00  0.00    +0.120 A 
ATOM     21  C   UNL     1      -5.120 -10.480  13.312  0.00  0.00    +0.054 A 
ATOM     23  C   UNL     1      -4.969  -9.778  12.087  0.00  0.00    +0.020 A 
ATOM     26  C   UNL     1      -3.754 -10.198  11.557  0.00  0.00    +0.135 A 
ATOM     31  C   UNL     1      -5.724  -8.834  11.369  0.00  0.00    +0.011 A 
ATOM     33  C   UNL     1      -3.229  -9.743  10.348  0.00  0.00    +0.047 A 
ATOM     36  C   UNL     1      -5.222  -8.357  10.150  0.00  0.00    +0.001 A 
ATOM     37  C   UNL     1      -3.997  -8.805   9.651  0.00  0.00    +0.004 A 
ENDBRANCH  14  19
ENDBRANCH   4  14
TORSDOF 5
ENDMDL
MODEL 3
REMARK VINA RESULT:      -7.3     15.541     22.869
REMARK  Name = 9420564
REMARK  5 active torsions:
REMARK  status: ('A' for Active; 'I' for Inactive)
REMARK    1  A    between atoms: N_4  and  C_14
REMARK    2  A    between atoms: N_6  and  C_24
REMARK    3  A    between atoms: C_14  and  C_19
REMARK    4  A    between atoms: C_17  and  C_20
REMARK    5  A    between atoms: C_22  and  C_24
REMARK                            x       y       z     vdW  Elec       q    Type
REMARK                         _______ _______ _______ _____ _____    ______ ____
ROOT
ATOM      1  O   UNL     1      15.305  10.864  20.434  0.00  0.00    -0.267 OA
ATOM      4  N   UNL     1      12.662  12.595  24.328  0.00  0.00    -0.294 NA
ATOM      5  N   UNL     1      13.283  11.125  21.566  0.00  0.00    -0.311 N 
ATOM      7  C   UNL     1      12.226  13.419  22.000  0.00  0.00    +0.024 C 
ATOM      8  C   UNL     1      11.101  11.393  22.791  0.00  0.00    +0.050 C 
ATOM      9  C   UNL     1      10.908  12.655  21.955  0.00  0.00    +0.017 C 
ATOM     10  C   UNL     1      12.581  13.776  23.459  0.00  0.00    +0.090 C 
ATOM     11  C   UNL     1      11.437  11.784  24.248  0.00  0.00    +0.094 C 
ATOM     12  C   UNL     1      13.311  12.574  21.319  0.00  0.00    +0.130 C 
ATOM     13  C   UNL     1      12.199  10.523  22.209  0.00  0.00    +0.026 A 
ATOM     15  C   UNL     1      12.142   9.187  22.324  0.00  0.00    +0.022 A 
ATOM     16  C   UNL     1      14.349  10.371  21.035  0.00  0.00    +0.259 A 
ATOM     17  C   UNL     1      14.274   8.878  21.211  0.00  0.00    +0.047 A 
ATOM     18  C   UNL     1      13.199   8.357  21.821  0.00  0.00    +0.015 A 
ENDROOT
BRANCH  17  20
ATOM     20  C   UNL     1      15.354   7.998  20.734  0.00  0.00    -0.008 A 
ATOM     22  C   UNL     1      15.147   7.086  19.697  0.00  0.00    -0.025 A 
ATOM     25  C   UNL     1      16.611   8.086  21.339  0.00  0.00    +0.009 A 
ATOM     27  C   UNL     1      16.191   6.265  19.268  0.00  0.00    +0.005 A 
ATOM     30  C   UNL     1      17.653   7.265  20.910  0.00  0.00    +0.001 A 
ATOM     32  C   UNL     1      17.444   6.356  19.874  0.00  0.00    +0.000 A 
BRANCH  22  24
ATOM     24  C   UNL     1      13.818   6.962  19.025  0.00  0.00    +0.120 C 
BRANCH  24   6
ATOM      3  O   UNL     1      12.725   8.901  15.467  0.00  0.00    -0.377 OA
ATOM      6  N   UNL     1      13.606   8.001  18.019  0.00  0.00    -0.294 NA
ATOM     28  C   UNL     1      12.177   8.136  17.704  0.00  0.00    +0.113 C 
ATOM     29  C   UNL     1      14.366   7.708  16.797  0.00  0.00    +0.113 C 
ATOM     34  C   UNL     1      11.982   9.218  16.644  0.00  0.00    +0.175 C 
ATOM     35  C   UNL     1      14.119   8.799  15.760  0.00  0.00    +0.175 C 
ENDBRANCH  24   6
ENDBRANCH  22  24
ENDBRANCH  17  20
BRANCH   4  14
ATOM     14  C   UNL     1      12.946  12.978  25.709  0.00  0.00    +0.158 C 
BRANCH  14  19
ATOM      2  O   UNL     1      14.450  11.797  27.162  0.00  0.00    -0.458 OA
ATOM     19  C   UNL     1      14.354  12.628  26.110  0.00  0.00    +0.120 A 
ATOM     21  C   UNL     1      15.553  12.996  25.608  0.00  0.00    +0.054 A 
ATOM     23  C   UNL     1      16.514  12.335  26.418  0.00  0.00    +0.020 A 
ATOM     26  C   UNL     1      15.786  11.612  27.357  0.00  0.00    +0.135 A 
ATOM     31  C   UNL     1      17.918  12.269  26.461  0.00  0.00    +0.011 A 
ATOM     33  C   UNL     1      16.359  10.817  28.348  0.00  0.00    +0.047 A 
ATOM     36  C   UNL     1      18.524  11.477  27.447  0.00  0.00    +0.001 A 
ATOM     37  C   UNL     1      17.757  10.765  28.372  0.00  0.00    +0.004 A 
ENDBRANCH  14  19
ENDBRANCH   4  14
TORSDOF 5
ENDMDL
MODEL 4
REMARK VINA RESULT:      -7.3     23.185     26.376
REMARK  Name = 9420564
REMARK  5 active torsions:
REMARK  status: ('A' for Active; 'I' for Inactive)
REMARK    1  A    between atoms: N_4  and  C_14
REMARK    2  A    between atoms: N_6  and  C_24
REMARK    3  A    between atoms: C_14  and  C_19
REMARK    4  A    between atoms: C_17  and  C_20
REMARK    5  A    between atoms: C_22  and  C_24
REMARK                            x       y       z     vdW  Elec       q    Type
REMARK                         _______ _______ _______ _____ _____    ______ ____
ROOT
ATOM      1  O   UNL     1      -6.139 -11.715  10.952  0.00  0.00    -0.267 OA
ATOM      4  N   UNL     1      -3.189 -10.971  14.938  0.00  0.00    -0.294 NA
ATOM      5  N   UNL     1      -4.025 -11.643  11.935  0.00  0.00    -0.311 N 
ATOM      7  C   UNL     1      -3.328 -13.218  13.833  0.00  0.00    +0.024 C 
ATOM      8  C   UNL     1      -1.741 -11.555  12.987  0.00  0.00    +0.050 C 
ATOM      9  C   UNL     1      -1.926 -13.045  13.262  0.00  0.00    +0.017 C 
ATOM     10  C   UNL     1      -3.474 -12.398  15.133  0.00  0.00    +0.090 C 
ATOM     11  C   UNL     1      -1.875 -10.766  14.310  0.00  0.00    +0.094 C 
ATOM     12  C   UNL     1      -4.351 -12.813  12.763  0.00  0.00    +0.130 C 
ATOM     13  C   UNL     1      -2.755 -11.064  11.972  0.00  0.00    +0.026 A 
ATOM     15  C   UNL     1      -2.444 -10.069  11.126  0.00  0.00    +0.022 A 
ATOM     16  C   UNL     1      -5.019 -11.207  11.036  0.00  0.00    +0.259 A 
ATOM     17  C   UNL     1      -4.652 -10.066  10.124  0.00  0.00    +0.047 A 
ATOM     18  C   UNL     1      -3.411  -9.562  10.195  0.00  0.00    +0.015 A 
ENDROOT
BRANCH  17  20
ATOM     20  C   UNL     1      -5.629  -9.502   9.178  0.00  0.00    -0.008 A 
ATOM     22  C   UNL     1      -5.744  -9.987   7.873  0.00  0.00    -0.025 A 
ATOM     25  C   UNL     1      -6.454  -8.457   9.603  0.00  0.00    +0.009 A 
ATOM     27  C   UNL     1      -6.679  -9.431   6.999  0.00  0.00    +0.005 A 
ATOM     30  C   UNL     1      -7.388  -7.902   8.729  0.00  0.00    +0.001 A 
ATOM     32  C   UNL     1      -7.500  -8.389   7.428  0.00  0.00    +0.000 A 
BRANCH  22  24
ATOM     24  C   UNL     1      -4.880 -11.103   7.380  0.00  0.00    +0.120 C 
BRANCH  24   6
ATOM      3  O   UNL     1      -5.445 -13.745   4.168  0.00  0.00    -0.377 OA
ATOM      6  N   UNL     1      -5.400 -11.708   6.156  0.00  0.00    -0.294 NA
ATOM     28  C   UNL     1      -5.964 -13.038   6.431  0.00  0.00    +0.113 C 
ATOM     29  C   UNL     1      -4.349 -11.807   5.134  0.00  0.00    +0.113 C 
ATOM     34  C   UNL     1      -6.489 -13.654   5.137  0.00  0.00    +0.175 C 
ATOM     35  C   UNL     1      -4.913 -12.453   3.873  0.00  0.00    +0.175 C 
ENDBRANCH  24   6
ENDBRANCH  22  24
ENDBRANCH  17  20
BRANCH   4  14
ATOM     14  C   UNL     1      -3.285 -10.240  16.200  0.00  0.00    +0.158 C 
BRANCH  14  19
ATOM      2  O   UNL     1      -5.603  -9.625  16.063  0.00  0.00    -0.458 OA
ATOM     19  C   UNL     1      -4.676 -10.290  16.773  0.00  0.00    +0.120 A 
ATOM     21  C   UNL     1      -5.175 -10.884  17.880  0.00  0.00    +0.054 A 
ATOM     23  C   UNL     1      -6.559 -10.568  17.879  0.00  0.00    +0.020 A 
ATOM     26  C   UNL     1      -6.771  -9.794  16.744  0.00  0.00    +0.135 A 
ATOM     31  C   UNL     1      -7.655 -10.851  18.714  0.00  0.00    +0.011 A 
ATOM     33  C   UNL     1      -8.010  -9.274  16.372  0.00  0.00    +0.047 A 
ATOM     36  C   UNL     1      -8.914 -10.342  18.366  0.00  0.00    +0.001 A 
ATOM     37  C   UNL     1      -9.086  -9.567  17.216  0.00  0.00    +0.004 A 
ENDBRANCH  14  19
ENDBRANCH   4  14
TORSDOF 5
ENDMDL
MODEL 5
REMARK VINA RESULT:      -7.2     18.841     22.438
REMARK  Name = 9420564
REMARK  5 active torsions:
REMARK  status: ('A' for Active; 'I' for Inactive)
REMARK    1  A    between atoms: N_4  and  C_14
REMARK    2  A    between atoms: N_6  and  C_24
REMARK    3  A    between atoms: C_14  and  C_19
REMARK    4  A    between atoms: C_17  and  C_20
REMARK    5  A    between atoms: C_22  and  C_24
REMARK                            x       y       z     vdW  Elec       q    Type
REMARK                         _______ _______ _______ _____ _____    ______ ____
ROOT
ATOM      1  O   UNL     1      10.579  10.595  24.192  0.00  0.00    -0.267 OA
ATOM      4  N   UNL     1      13.424   7.803  21.148  0.00  0.00    -0.294 NA
ATOM      5  N   UNL     1      11.341  10.040  22.058  0.00  0.00    -0.311 N 
ATOM      7  C   UNL     1      10.921   7.748  20.992  0.00  0.00    +0.024 C 
ATOM      8  C   UNL     1      12.168   9.454  19.755  0.00  0.00    +0.050 C 
ATOM      9  C   UNL     1      10.967   8.516  19.677  0.00  0.00    +0.017 C 
ATOM     10  C   UNL     1      12.228   6.950  21.184  0.00  0.00    +0.090 C 
ATOM     11  C   UNL     1      13.461   8.624  19.929  0.00  0.00    +0.094 C 
ATOM     12  C   UNL     1      10.662   8.739  22.135  0.00  0.00    +0.130 C 
ATOM     13  C   UNL     1      12.011  10.437  20.899  0.00  0.00    +0.026 A 
ATOM     15  C   UNL     1      12.527  11.674  20.810  0.00  0.00    +0.022 A 
ATOM     16  C   UNL     1      11.192  10.898  23.166  0.00  0.00    +0.259 A 
ATOM     17  C   UNL     1      11.811  12.266  23.050  0.00  0.00    +0.047 A 
ATOM     18  C   UNL     1      12.428  12.596  21.906  0.00  0.00    +0.015 A 
ENDROOT
BRANCH  17  20
ATOM     20  C   UNL     1      11.755  13.226  24.165  0.00  0.00    -0.008 A 
ATOM     22  C   UNL     1      12.634  13.139  25.247  0.00  0.00    -0.025 A 
ATOM     25  C   UNL     1      10.799  14.244  24.130  0.00  0.00    +0.009 A 
ATOM     27  C   UNL     1      12.556  14.064  26.289  0.00  0.00    +0.005 A 
ATOM     30  C   UNL     1      10.722  15.169  25.171  0.00  0.00    +0.001 A 
ATOM     32  C   UNL     1      11.600  15.079  26.250  0.00  0.00    +0.000 A 
BRANCH  22  24
ATOM     24  C   UNL     1      13.670  12.064  25.323  0.00  0.00    +0.120 C 
BRANCH  24   6
ATOM      3  O   UNL     1      17.855  12.337  25.491  0.00  0.00    -0.377 OA
ATOM      6  N   UNL     1      15.021  12.605  25.452  0.00  0.00    -0.294 NA
ATOM     28  C   UNL     1      15.789  12.390  24.218  0.00  0.00    +0.113 C 
ATOM     29  C   UNL     1      15.720  11.997  26.593  0.00  0.00    +0.113 C 
ATOM     34  C   UNL     1      17.199  12.952  24.382  0.00  0.00    +0.175 C 
ATOM     35  C   UNL     1      17.130  12.568  26.700  0.00  0.00    +0.175 C 
ENDBRANCH  24   6
ENDBRANCH  22  24
ENDBRANCH  17  20
BRANCH   4  14
ATOM     14  C   UNL     1      14.641   7.006  21.279  0.00  0.00    +0.158 C 
BRANCH  14  19
ATOM      2  O   UNL     1      17.032   7.222  21.233  0.00  0.00    -0.458 OA
ATOM     19  C   UNL     1      15.867   7.870  21.402  0.00  0.00    +0.120 A 
ATOM     21  C   UNL     1      16.021   9.188  21.653  0.00  0.00    +0.054 A 
ATOM     23  C   UNL     1      17.423   9.408  21.644  0.00  0.00    +0.020 A 
ATOM     26  C   UNL     1      18.000   8.170  21.383  0.00  0.00    +0.135 A 
ATOM     31  C   UNL     1      18.269  10.517  21.830  0.00  0.00    +0.011 A 
ATOM     33  C   UNL     1      19.373   7.950  21.289  0.00  0.00    +0.047 A 
ATOM     36  C   UNL     1      19.655  10.327  21.742  0.00  0.00    +0.001 A 
ATOM     37  C   UNL     1      20.195   9.066  21.476  0.00  0.00    +0.004 A 
ENDBRANCH  14  19
ENDBRANCH   4  14
TORSDOF 5
ENDMDL
MODEL 6
REMARK VINA RESULT:      -7.1      1.677      2.178
REMARK  Name = 9420564
REMARK  5 active torsions:
REMARK  status: ('A' for Active; 'I' for Inactive)
REMARK    1  A    between atoms: N_4  and  C_14
REMARK    2  A    between atoms: N_6  and  C_24
REMARK    3  A    between atoms: C_14  and  C_19
REMARK    4  A    between atoms: C_17  and  C_20
REMARK    5  A    between atoms: C_22  and  C_24
REMARK                            x       y       z     vdW  Elec       q    Type
REMARK                         _______ _______ _______ _____ _____    ______ ____
ROOT
ATOM      1  O   UNL     1      12.118   7.908   2.156  0.00  0.00    -0.267 OA
ATOM      4  N   UNL     1      13.202   4.051  -0.859  0.00  0.00    -0.294 NA
ATOM      5  N   UNL     1      12.698   5.671   1.841  0.00  0.00    -0.311 N 
ATOM      7  C   UNL     1      14.902   4.953   0.748  0.00  0.00    +0.024 C 
ATOM      8  C   UNL     1      13.311   3.254   1.506  0.00  0.00    +0.050 C 
ATOM      9  C   UNL     1      14.761   3.715   1.624  0.00  0.00    +0.017 C 
ATOM     10  C   UNL     1      14.552   4.610  -0.715  0.00  0.00    +0.090 C 
ATOM     11  C   UNL     1      12.998   2.901   0.034  0.00  0.00    +0.094 C 
ATOM     12  C   UNL     1      14.014   6.067   1.321  0.00  0.00    +0.130 C 
ATOM     13  C   UNL     1      12.362   4.326   2.007  0.00  0.00    +0.026 A 
ATOM     15  C   UNL     1      11.199   3.989   2.588  0.00  0.00    +0.022 A 
ATOM     16  C   UNL     1      11.842   6.711   2.256  0.00  0.00    +0.259 A 
ATOM     17  C   UNL     1      10.531   6.302   2.873  0.00  0.00    +0.047 A 
ATOM     18  C   UNL     1      10.271   4.994   3.021  0.00  0.00    +0.015 A 
ENDROOT
BRANCH  17  20
ATOM     20  C   UNL     1       9.542   7.306   3.300  0.00  0.00    -0.008 A 
ATOM     22  C   UNL     1       9.478   7.749   4.624  0.00  0.00    -0.025 A 
ATOM     25  C   UNL     1       8.653   7.822   2.354  0.00  0.00    +0.009 A 
ATOM     27  C   UNL     1       8.530   8.701   4.999  0.00  0.00    +0.005 A 
ATOM     30  C   UNL     1       7.705   8.774   2.729  0.00  0.00    +0.001 A 
ATOM     32  C   UNL     1       7.644   9.214   4.050  0.00  0.00    +0.000 A 
BRANCH  22  24
ATOM     24  C   UNL     1      10.411   7.221   5.666  0.00  0.00    +0.120 C 
BRANCH  24   6
ATOM      3  O   UNL     1      14.180   8.619   6.871  0.00  0.00    -0.377 OA
ATOM      6  N   UNL     1      11.684   7.939   5.686  0.00  0.00    -0.294 NA
ATOM     28  C   UNL     1      12.813   6.998   5.691  0.00  0.00    +0.113 C 
ATOM     29  C   UNL     1      11.763   8.830   6.851  0.00  0.00    +0.113 C 
ATOM     34  C   UNL     1      14.129   7.771   5.725  0.00  0.00    +0.175 C 
ATOM     35  C   UNL     1      13.103   9.558   6.856  0.00  0.00    +0.175 C 
ENDBRANCH  24   6
ENDBRANCH  22  24
ENDBRANCH  17  20
BRANCH   4  14
ATOM     14  C   UNL     1      12.930   3.689  -2.248  0.00  0.00    +0.158 C 
BRANCH  14  19
ATOM      2  O   UNL     1      11.055   5.161  -1.949  0.00  0.00    -0.458 OA
ATOM     19  C   UNL     1      11.581   4.179  -2.702  0.00  0.00    +0.120 A 
ATOM     21  C   UNL     1      10.787   3.814  -3.733  0.00  0.00    +0.054 A 
ATOM     23  C   UNL     1       9.640   4.644  -3.633  0.00  0.00    +0.020 A 
ATOM     26  C   UNL     1       9.853   5.452  -2.522  0.00  0.00    +0.135 A 
ATOM     31  C   UNL     1       8.446   4.800  -4.358  0.00  0.00    +0.011 A 
ATOM     33  C   UNL     1       8.953   6.418  -2.073  0.00  0.00    +0.047 A 
ATOM     36  C   UNL     1       7.521   5.764  -3.931  0.00  0.00    +0.001 A 
ATOM     37  C   UNL     1       7.772   6.557  -2.809  0.00  0.00    +0.004 A 
ENDBRANCH  14  19
ENDBRANCH   4  14
TORSDOF 5
ENDMDL
MODEL 7
REMARK VINA RESULT:      -7.0      2.886      8.878
REMARK  Name = 9420564
REMARK  5 active torsions:
REMARK  status: ('A' for Active; 'I' for Inactive)
REMARK    1  A    between atoms: N_4  and  C_14
REMARK    2  A    between atoms: N_6  and  C_24
REMARK    3  A    between atoms: C_14  and  C_19
REMARK    4  A    between atoms: C_17  and  C_20
REMARK    5  A    between atoms: C_22  and  C_24
REMARK                            x       y       z     vdW  Elec       q    Type
REMARK                         _______ _______ _______ _____ _____    ______ ____
ROOT
ATOM      1  O   UNL     1      11.659   7.118   1.060  0.00  0.00    -0.267 OA
ATOM      4  N   UNL     1      10.990   7.008   6.028  0.00  0.00    -0.294 NA
ATOM      5  N   UNL     1      10.613   6.248   2.953  0.00  0.00    -0.311 N 
ATOM      7  C   UNL     1       9.125   7.664   4.486  0.00  0.00    +0.024 C 
ATOM      8  C   UNL     1       9.491   5.297   4.995  0.00  0.00    +0.050 C 
ATOM      9  C   UNL     1       8.409   6.347   4.760  0.00  0.00    +0.017 C 
ATOM     10  C   UNL     1      10.009   8.047   5.692  0.00  0.00    +0.090 C 
ATOM     11  C   UNL     1      10.345   5.700   6.219  0.00  0.00    +0.094 C 
ATOM     12  C   UNL     1       9.930   7.528   3.185  0.00  0.00    +0.130 C 
ATOM     13  C   UNL     1      10.366   5.140   3.766  0.00  0.00    +0.026 A 
ATOM     15  C   UNL     1      10.915   3.951   3.469  0.00  0.00    +0.022 A 
ATOM     16  C   UNL     1      11.444   6.171   1.818  0.00  0.00    +0.259 A 
ATOM     17  C   UNL     1      12.073   4.834   1.530  0.00  0.00    +0.047 A 
ATOM     18  C   UNL     1      11.784   3.802   2.337  0.00  0.00    +0.015 A 
ENDROOT
BRANCH  17  20
ATOM     20  C   UNL     1      12.994   4.651   0.395  0.00  0.00    -0.008 A 
ATOM     22  C   UNL     1      12.548   4.156  -0.833  0.00  0.00    -0.025 A 
ATOM     25  C   UNL     1      14.341   4.984   0.560  0.00  0.00    +0.009 A 
ATOM     27  C   UNL     1      13.445   3.994  -1.889  0.00  0.00    +0.005 A 
ATOM     30  C   UNL     1      15.236   4.823  -0.497  0.00  0.00    +0.001 A 
ATOM     32  C   UNL     1      14.789   4.328  -1.720  0.00  0.00    +0.000 A 
BRANCH  22  24
ATOM     24  C   UNL     1      11.116   3.788  -1.049  0.00  0.00    +0.120 C 
BRANCH  24   6
ATOM      3  O   UNL     1       8.225   5.461  -3.590  0.00  0.00    -0.377 OA
ATOM      6  N   UNL     1      10.479   4.615  -2.071  0.00  0.00    -0.294 NA
ATOM     28  C   UNL     1       9.426   5.454  -1.481  0.00  0.00    +0.113 C 
ATOM     29  C   UNL     1       9.917   3.781  -3.142  0.00  0.00    +0.113 C 
ATOM     34  C   UNL     1       8.768   6.299  -2.569  0.00  0.00    +0.175 C 
ATOM     35  C   UNL     1       9.248   4.665  -4.190  0.00  0.00    +0.175 C 
ENDBRANCH  24   6
ENDBRANCH  22  24
ENDBRANCH  17  20
BRANCH   4  14
ATOM     14  C   UNL     1      11.769   7.383   7.206  0.00  0.00    +0.158 C 
BRANCH  14  19
ATOM      2  O   UNL     1      13.255   9.255   6.968  0.00  0.00    -0.458 OA
ATOM     19  C   UNL     1      13.123   7.925   6.834  0.00  0.00    +0.120 A 
ATOM     21  C   UNL     1      14.245   7.320   6.384  0.00  0.00    +0.054 A 
ATOM     23  C   UNL     1      15.190   8.366   6.214  0.00  0.00    +0.020 A 
ATOM     26  C   UNL     1      14.533   9.534   6.586  0.00  0.00    +0.135 A 
ATOM     31  C   UNL     1      16.526   8.454   5.785  0.00  0.00    +0.011 A 
ATOM     33  C   UNL     1      15.116  10.800   6.564  0.00  0.00    +0.047 A 
ATOM     36  C   UNL     1      17.140   9.714   5.753  0.00  0.00    +0.001 A 
ATOM     37  C   UNL     1      16.446  10.864   6.135  0.00  0.00    +0.004 A 
ENDBRANCH  14  19
ENDBRANCH   4  14
TORSDOF 5
ENDMDL
MODEL 8
REMARK VINA RESULT:      -7.0     31.515     34.563
REMARK  Name = 9420564
REMARK  5 active torsions:
REMARK  status: ('A' for Active; 'I' for Inactive)
REMARK    1  A    between atoms: N_4  and  C_14
REMARK    2  A    between atoms: N_6  and  C_24
REMARK    3  A    between atoms: C_14  and  C_19
REMARK    4  A    between atoms: C_17  and  C_20
REMARK    5  A    between atoms: C_22  and  C_24
REMARK                            x       y       z     vdW  Elec       q    Type
REMARK                         _______ _______ _______ _____ _____    ______ ____
ROOT
ATOM      1  O   UNL     1      12.897  -6.507  34.603  0.00  0.00    -0.267 OA
ATOM      4  N   UNL     1       8.076  -6.981  35.896  0.00  0.00    -0.294 NA
ATOM      5  N   UNL     1      10.851  -5.568  35.210  0.00  0.00    -0.311 N 
ATOM      7  C   UNL     1       9.750  -5.999  37.484  0.00  0.00    +0.024 C 
ATOM      8  C   UNL     1       8.642  -4.548  35.853  0.00  0.00    +0.050 C 
ATOM      9  C   UNL     1       9.151  -4.612  37.290  0.00  0.00    +0.017 C 
ATOM     10  C   UNL     1       8.678  -7.080  37.232  0.00  0.00    +0.090 C 
ATOM     11  C   UNL     1       7.558  -5.629  35.639  0.00  0.00    +0.094 C 
ATOM     12  C   UNL     1      10.965  -6.147  36.556  0.00  0.00    +0.130 C 
ATOM     13  C   UNL     1       9.781  -4.738  34.869  0.00  0.00    +0.026 A 
ATOM     15  C   UNL     1       9.755  -4.129  33.672  0.00  0.00    +0.022 A 
ATOM     16  C   UNL     1      11.921  -5.808  34.325  0.00  0.00    +0.259 A 
ATOM     17  C   UNL     1      11.847  -5.140  32.978  0.00  0.00    +0.047 A 
ATOM     18  C   UNL     1      10.803  -4.341  32.714  0.00  0.00    +0.015 A 
ENDROOT
BRANCH  17  20
ATOM     20  C   UNL     1      12.888  -5.358  31.959  0.00  0.00    -0.008 A 
ATOM     22  C   UNL     1      12.780  -6.380  31.013  0.00  0.00    -0.025 A 
ATOM     25  C   UNL     1      14.006  -4.520  31.948  0.00  0.00    +0.009 A 
ATOM     27  C   UNL     1      13.783  -6.562  30.061  0.00  0.00    +0.005 A 
ATOM     30  C   UNL     1      15.008  -4.702  30.995  0.00  0.00    +0.001 A 
ATOM     32  C   UNL     1      14.897  -5.722  30.052  0.00  0.00    +0.000 A 
BRANCH  22  24
ATOM     24  C   UNL     1      11.601  -7.299  30.993  0.00  0.00    +0.120 C 
BRANCH  24   6
ATOM      3  O   UNL     1      11.070 -10.987  32.922  0.00  0.00    -0.377 OA
ATOM      6  N   UNL     1      11.740  -8.401  31.942  0.00  0.00    -0.294 NA
ATOM     28  C   UNL     1      12.192  -9.622  31.260  0.00  0.00    +0.113 C 
ATOM     29  C   UNL     1      10.471  -8.653  32.639  0.00  0.00    +0.113 C 
ATOM     34  C   UNL     1      12.318 -10.761  32.268  0.00  0.00    +0.175 C 
ATOM     35  C   UNL     1      10.639  -9.814  33.614  0.00  0.00    +0.175 C 
ENDBRANCH  24   6
ENDBRANCH  22  24
ENDBRANCH  17  20
BRANCH   4  14
ATOM     14  C   UNL     1       7.029  -7.985  35.717  0.00  0.00    +0.158 C 
BRANCH  14  19
ATOM      2  O   UNL     1       7.020  -9.799  34.144  0.00  0.00    -0.458 OA
ATOM     19  C   UNL     1       6.951  -8.466  34.293  0.00  0.00    +0.120 A 
ATOM     21  C   UNL     1       6.824  -7.803  33.122  0.00  0.00    +0.054 A 
ATOM     23  C   UNL     1       6.810  -8.812  32.123  0.00  0.00    +0.020 A 
ATOM     26  C   UNL     1       6.933 -10.019  32.801  0.00  0.00    +0.135 A 
ATOM     31  C   UNL     1       6.707  -8.837  30.721  0.00  0.00    +0.011 A 
ATOM     33  C   UNL     1       6.961 -11.267  32.180  0.00  0.00    +0.047 A 
ATOM     36  C   UNL     1       6.732 -10.076  30.067  0.00  0.00    +0.001 A 
ATOM     37  C   UNL     1       6.857 -11.268  30.785  0.00  0.00    +0.004 A 
ENDBRANCH  14  19
ENDBRANCH   4  14
TORSDOF 5
ENDMDL
MODEL 9
REMARK VINA RESULT:      -6.9     23.768     26.838
REMARK  Name = 9420564
REMARK  5 active torsions:
REMARK  status: ('A' for Active; 'I' for Inactive)
REMARK    1  A    between atoms: N_4  and  C_14
REMARK    2  A    between atoms: N_6  and  C_24
REMARK    3  A    between atoms: C_14  and  C_19
REMARK    4  A    between atoms: C_17  and  C_20
REMARK    5  A    between atoms: C_22  and  C_24
REMARK                            x       y       z     vdW  Elec       q    Type
REMARK                         _______ _______ _______ _____ _____    ______ ____
ROOT
ATOM      1  O   UNL     1      19.689  -1.174  26.350  0.00  0.00    -0.267 OA
ATOM      4  N   UNL     1      24.650  -1.514  25.697  0.00  0.00    -0.294 NA
ATOM      5  N   UNL     1      21.677  -2.389  26.452  0.00  0.00    -0.311 N 
ATOM      7  C   UNL     1      23.627  -1.728  27.977  0.00  0.00    +0.024 C 
ATOM      8  C   UNL     1      23.817  -3.709  26.551  0.00  0.00    +0.050 C 
ATOM      9  C   UNL     1      23.927  -3.221  27.993  0.00  0.00    +0.017 C 
ATOM     10  C   UNL     1      24.639  -0.994  27.071  0.00  0.00    +0.090 C 
ATOM     11  C   UNL     1      24.854  -2.970  25.675  0.00  0.00    +0.094 C 
ATOM     12  C   UNL     1      22.174  -1.520  27.527  0.00  0.00    +0.130 C 
ATOM     13  C   UNL     1      22.416  -3.490  26.014  0.00  0.00    +0.026 A 
ATOM     15  C   UNL     1      21.893  -4.335  25.110  0.00  0.00    +0.022 A 
ATOM     16  C   UNL     1      20.384  -2.116  25.964  0.00  0.00    +0.259 A 
ATOM     17  C   UNL     1      19.839  -3.061  24.926  0.00  0.00    +0.047 A 
ATOM     18  C   UNL     1      20.588  -4.110  24.557  0.00  0.00    +0.015 A 
ENDROOT
BRANCH  17  20
ATOM     20  C   UNL     1      18.516  -2.844  24.315  0.00  0.00    -0.008 A 
ATOM     22  C   UNL     1      17.369  -3.455  24.827  0.00  0.00    -0.025 A 
ATOM     25  C   UNL     1      18.418  -2.008  23.201  0.00  0.00    +0.009 A 
ATOM     27  C   UNL     1      16.129  -3.230  24.226  0.00  0.00    +0.005 A 
ATOM     30  C   UNL     1      17.179  -1.784  22.601  0.00  0.00    +0.001 A 
ATOM     32  C   UNL     1      16.035  -2.394  23.113  0.00  0.00    +0.000 A 
BRANCH  22  24
ATOM     24  C   UNL     1      17.432  -4.356  26.017  0.00  0.00    +0.120 C 
BRANCH  24   6
ATOM      3  O   UNL     1      16.803  -8.505  26.082  0.00  0.00    -0.377 OA
ATOM      6  N   UNL     1      16.880  -5.681  25.740  0.00  0.00    -0.294 NA
ATOM     28  C   UNL     1      16.350  -6.291  26.967  0.00  0.00    +0.113 C 
ATOM     29  C   UNL     1      17.897  -6.555  25.140  0.00  0.00    +0.113 C 
ATOM     34  C   UNL     1      15.791  -7.677  26.655  0.00  0.00    +0.175 C 
ATOM     35  C   UNL     1      17.301  -7.933  24.872  0.00  0.00    +0.175 C 
ENDBRANCH  24   6
ENDBRANCH  22  24
ENDBRANCH  17  20
BRANCH   4  14
ATOM     14  C   UNL     1      25.656  -0.832  24.887  0.00  0.00    +0.158 C 
BRANCH  14  19
ATOM      2  O   UNL     1      24.110   0.935  24.377  0.00  0.00    -0.458 OA
ATOM     19  C   UNL     1      25.030   0.093  23.877  0.00  0.00    +0.120 A 
ATOM     21  C   UNL     1      25.220   0.239  22.547  0.00  0.00    +0.054 A 
ATOM     23  C   UNL     1      24.335   1.277  22.156  0.00  0.00    +0.020 A 
ATOM     26  C   UNL     1      23.676   1.670  23.315  0.00  0.00    +0.135 A 
ATOM     31  C   UNL     1      24.017   1.926  20.950  0.00  0.00    +0.011 A 
ATOM     33  C   UNL     1      22.712   2.676  23.365  0.00  0.00    +0.047 A 
ATOM     36  C   UNL     1      23.051   2.943  20.967  0.00  0.00    +0.001 A 
ATOM     37  C   UNL     1      22.412   3.309  22.154  0.00  0.00    +0.004 A 
ENDBRANCH  14  19
ENDBRANCH   4  14
TORSDOF 5
ENDMDL
MODEL 10
REMARK VINA RESULT:      -6.8      3.109      7.239
REMARK  Name = 9420564
REMARK  5 active torsions:
REMARK  status: ('A' for Active; 'I' for Inactive)
REMARK    1  A    between atoms: N_4  and  C_14
REMARK    2  A    between atoms: N_6  and  C_24
REMARK    3  A    between atoms: C_14  and  C_19
REMARK    4  A    between atoms: C_17  and  C_20
REMARK    5  A    between atoms: C_22  and  C_24
REMARK                            x       y       z     vdW  Elec       q    Type
REMARK                         _______ _______ _______ _____ _____    ______ ____
ROOT
ATOM      1  O   UNL     1      14.394   6.675   6.965  0.00  0.00    -0.267 OA
ATOM      4  N   UNL     1       9.775   6.294   5.050  0.00  0.00    -0.294 NA
ATOM      5  N   UNL     1      12.242   7.518   6.660  0.00  0.00    -0.311 N 
ATOM      7  C   UNL     1      10.149   6.320   7.530  0.00  0.00    +0.024 C 
ATOM      8  C   UNL     1       9.924   8.439   6.323  0.00  0.00    +0.050 C 
ATOM      9  C   UNL     1       9.566   7.724   7.623  0.00  0.00    +0.017 C 
ATOM     10  C   UNL     1       9.554   5.579   6.314  0.00  0.00    +0.090 C 
ATOM     11  C   UNL     1       9.299   7.683   5.128  0.00  0.00    +0.094 C 
ATOM     12  C   UNL     1      11.680   6.425   7.465  0.00  0.00    +0.130 C 
ATOM     13  C   UNL     1      11.429   8.538   6.159  0.00  0.00    +0.026 A 
ATOM     15  C   UNL     1      11.977   9.585   5.523  0.00  0.00    +0.022 A 
ATOM     16  C   UNL     1      13.642   7.538   6.509  0.00  0.00    +0.259 A 
ATOM     17  C   UNL     1      14.225   8.708   5.761  0.00  0.00    +0.047 A 
ATOM     18  C   UNL     1      13.395   9.664   5.318  0.00  0.00    +0.015 A 
ENDROOT
BRANCH  17  20
ATOM     20  C   UNL     1      15.672   8.807   5.506  0.00  0.00    -0.008 A 
ATOM     22  C   UNL     1      16.307   7.979   4.577  0.00  0.00    -0.025 A 
ATOM     25  C   UNL     1      16.418   9.753   6.214  0.00  0.00    +0.009 A 
ATOM     27  C   UNL     1      17.680   8.096   4.358  0.00  0.00    +0.005 A 
ATOM     30  C   UNL     1      17.790   9.870   5.994  0.00  0.00    +0.001 A 
ATOM     32  C   UNL     1      18.421   9.043   5.067  0.00  0.00    +0.000 A 
BRANCH  22  24
ATOM     24  C   UNL     1      15.545   6.954   3.801  0.00  0.00    +0.120 C 
BRANCH  24   6
ATOM      3  O   UNL     1      13.649   7.238   0.068  0.00  0.00    -0.377 OA
ATOM      6  N   UNL     1      14.966   7.503   2.577  0.00  0.00    -0.294 NA
ATOM     28  C   UNL     1      13.533   7.187   2.491  0.00  0.00    +0.113 C 
ATOM     29  C   UNL     1      15.667   6.991   1.392  0.00  0.00    +0.113 C 
ATOM     34  C   UNL     1      12.954   7.760   1.200  0.00  0.00    +0.175 C 
ATOM     35  C   UNL     1      15.037   7.568   0.128  0.00  0.00    +0.175 C 
ENDBRANCH  24   6
ENDBRANCH  22  24
ENDBRANCH  17  20
BRANCH   4  14
ATOM     14  C   UNL     1       9.151   5.589   3.933  0.00  0.00    +0.158 C 
BRANCH  14  19
ATOM      2  O   UNL     1       9.995   5.247   1.710  0.00  0.00    -0.458 OA
ATOM     19  C   UNL     1      10.174   4.976   3.014  0.00  0.00    +0.120 A 
ATOM     21  C   UNL     1      11.251   4.196   3.255  0.00  0.00    +0.054 A 
ATOM     23  C   UNL     1      11.819   3.941   1.979  0.00  0.00    +0.020 A 
ATOM     26  C   UNL     1      11.011   4.608   1.064  0.00  0.00    +0.135 A 
ATOM     31  C   UNL     1      12.925   3.219   1.497  0.00  0.00    +0.011 A 
ATOM     33  C   UNL     1      11.226   4.610  -0.313  0.00  0.00    +0.047 A 
ATOM     36  C   UNL     1      13.168   3.203   0.116  0.00  0.00    +0.001 A 
ATOM     37  C   UNL     1      12.332   3.887  -0.771  0.00  0.00    +0.004 A 
ENDBRANCH  14  19
ENDBRANCH   4  14
TORSDOF 5
ENDMDL
