REMARK  Name = 75536737
REMARK  9 active torsions:
REMARK  status: ('A' for Active; 'I' for Inactive)
REMARK    1  A    between atoms: O_2  and  C_10
REMARK    2  A    between atoms: N_4  and  C_9
REMARK    3  A    between atoms: N_4  and  C_14
REMARK    4  A    between atoms: N_5  and  C_13
REMARK    5  A    between atoms: N_6  and  C_17
REMARK    6  A    between atoms: C_11  and  C_13
REMARK    7  A    between atoms: C_14  and  C_15
REMARK    8  A    between atoms: C_17  and  C_19
REMARK    9  A    between atoms: C_17  and  C_20
REMARK                            x       y       z     vdW  Elec       q    Type
REMARK                         _______ _______ _______ _____ _____    ______ ____
ROOT
ATOM      1  O   UNL     1       0.539  -1.152   0.306  0.00  0.00    -0.371 OA
ATOM      9  C   UNL     1      -1.431   0.021  -0.315  0.00  0.00    +0.111 C 
ATOM     10  C   UNL     1      -0.458   0.993   0.327  0.00  0.00    +0.164 C 
ATOM     11  C   UNL     1       0.857   0.242   0.163  0.00  0.00    +0.165 C 
ATOM     12  C   UNL     1      -0.883  -1.313   0.164  0.00  0.00    +0.181 C 
ENDROOT
BRANCH  10   2
ATOM      2  O   UNL     1      -0.432   2.249  -0.322  0.00  0.00    -0.388 OA
ATOM     23  H   UNL     1      -0.222   2.105  -1.260  0.00  0.00    +0.210 HD
ENDBRANCH  10   2
BRANCH   9   4
ATOM      4  N   UNL     1      -2.814   0.238   0.074  0.00  0.00    -0.302 NA
ATOM     22  H   UNL     1      -3.023   1.236   0.025  0.00  0.00    +0.123 HD
BRANCH   4  14
ATOM     14  C   UNL     1      -3.727  -0.479  -0.808  0.00  0.00    +0.156 C 
BRANCH  14  15
ATOM      7  N   UNL     1      -5.704  -0.934   0.663  0.00  0.00    -0.347 N 
ATOM      8  N   UNL     1      -6.045   0.500  -0.999  0.00  0.00    -0.240 NA
ATOM     15  C   UNL     1      -5.165  -0.279  -0.410  0.00  0.00    +0.121 A 
ATOM     18  C   UNL     1      -7.011  -0.548   0.764  0.00  0.00    +0.104 A 
ATOM     21  C   UNL     1      -7.198   0.337  -0.271  0.00  0.00    +0.130 A 
ATOM     26  H   UNL     1      -5.225  -1.585   1.271  0.00  0.00    +0.167 HD
ENDBRANCH  14  15
ENDBRANCH   4  14
ENDBRANCH   9   4
BRANCH  11  13
ATOM     13  C   UNL     1       1.905   0.637   1.188  0.00  0.00    +0.140 C 
BRANCH  13   5
ATOM      3  O   UNL     1       4.150   1.391  -0.460  0.00  0.00    -0.253 OA
ATOM      5  N   UNL     1       3.123  -0.097   0.998  0.00  0.00    -0.297 N 
ATOM      6  N   UNL     1       5.228  -0.562   0.175  0.00  0.00    -0.297 N 
ATOM     16  C   UNL     1       4.168   0.340   0.178  0.00  0.00    +0.300 C 
ATOM     24  H   UNL     1       3.226  -0.988   1.474  0.00  0.00    +0.150 HD
ATOM     25  H   UNL     1       5.180  -1.366   0.795  0.00  0.00    +0.150 HD
BRANCH   6  17
ATOM     17  C   UNL     1       6.434  -0.351  -0.591  0.00  0.00    +0.068 C 
ATOM     19  C   UNL     1       7.448   0.449   0.217  0.00  0.00    +0.027 C 
ATOM     20  C   UNL     1       7.015  -1.684  -1.042  0.00  0.00    +0.027 C 
ENDBRANCH   6  17
ENDBRANCH  13   5
ENDBRANCH  11  13
TORSDOF 7
