MODEL 1
REMARK VINA RESULT:      -7.9      0.000      0.000
REMARK  Name = 26762014
REMARK  4 active torsions:
REMARK  status: ('A' for Active; 'I' for Inactive)
REMARK    1  A    between atoms: C_11  and  C_16
REMARK    2  A    between atoms: C_17  and  C_19
REMARK    3  A    between atoms: C_20  and  C_21
REMARK    4  A    between atoms: C_31  and  C_33
REMARK                            x       y       z     vdW  Elec       q    Type
REMARK                         _______ _______ _______ _____ _____    ______ ____
ROOT
ATOM      2  O   UNL     1      -2.157 -10.199  16.280  0.00  0.00    -0.270 OA
ATOM      5  N   UNL     1      -3.079 -11.813  14.851  0.00  0.00    -0.280 N 
ATOM      6  N   UNL     1      -4.321 -15.124  13.661  0.00  0.00    -0.347 N 
ATOM      7  N   UNL     1      -2.204 -15.441  13.023  0.00  0.00    -0.240 NA
ATOM     11  C   UNL     1      -1.927 -11.750  13.890  0.00  0.00    +0.171 C 
ATOM     12  C   UNL     1      -1.303 -13.161  13.660  0.00  0.00    +0.089 C 
ATOM     13  C   UNL     1      -4.210 -12.728  14.526  0.00  0.00    +0.163 C 
ATOM     14  C   UNL     1      -2.364 -14.185  13.535  0.00  0.00    +0.066 A 
ATOM     15  C   UNL     1      -3.659 -13.965  13.938  0.00  0.00    +0.056 A 
ATOM     17  C   UNL     1      -3.067 -10.970  15.973  0.00  0.00    +0.248 C 
ATOM     18  C   UNL     1      -3.403 -15.982  13.112  0.00  0.00    +0.197 A 
ATOM     34  H   UNL     1      -5.301 -15.317  13.826  0.00  0.00    +0.167 HD
ENDROOT
BRANCH  17  19
ATOM     19  C   UNL     1      -4.239 -10.975  16.861  0.00  0.00    +0.037 A 
ATOM     22  C   UNL     1      -4.236 -11.759  18.015  0.00  0.00    +0.014 A 
ATOM     23  C   UNL     1      -5.354 -10.197  16.549  0.00  0.00    +0.014 A 
ATOM     28  C   UNL     1      -5.347 -11.763  18.857  0.00  0.00    +0.019 A 
ATOM     29  C   UNL     1      -6.465 -10.202  17.392  0.00  0.00    +0.019 A 
ATOM     31  C   UNL     1      -6.462 -10.985  18.546  0.00  0.00    +0.052 A 
BRANCH  31  33
ATOM     10  N   UNL     1      -8.526 -10.996  20.109  0.00  0.00    -0.191 NA
ATOM     33  C   UNL     1      -7.601 -10.991  19.409  0.00  0.00    +0.099 C 
ENDBRANCH  31  33
ENDBRANCH  17  19
BRANCH  11  16
ATOM      1  O   UNL     1      -1.359 -10.162  12.106  0.00  0.00    -0.336 OA
ATOM      8  N   UNL     1      -3.457 -10.937  11.997  0.00  0.00    -0.190 NA
ATOM      9  N   UNL     1      -1.943  -9.551  10.989  0.00  0.00    -0.056 NA
ATOM     16  C   UNL     1      -2.318 -10.962  12.642  0.00  0.00    +0.249 A 
ATOM     20  C   UNL     1      -3.178 -10.058  10.992  0.00  0.00    +0.202 A 
BRANCH  20  21
ATOM      3  O   UNL     1      -5.441 -10.685   6.707  0.00  0.00    -0.453 OA
ATOM      4  O   UNL     1      -6.915  -8.818   7.095  0.00  0.00    -0.453 OA
ATOM     21  C   UNL     1      -4.158  -9.709  10.003  0.00  0.00    +0.026 A 
ATOM     24  C   UNL     1      -4.249 -10.454   8.825  0.00  0.00    +0.061 A 
ATOM     25  C   UNL     1      -5.018  -8.620  10.230  0.00  0.00    +0.015 A 
ATOM     26  C   UNL     1      -5.207 -10.082   7.905  0.00  0.00    +0.167 A 
ATOM     27  C   UNL     1      -6.048  -9.016   8.126  0.00  0.00    +0.166 A 
ATOM     30  C   UNL     1      -5.979  -8.264   9.281  0.00  0.00    +0.050 A 
ATOM     32  C   UNL     1      -6.525  -9.879   6.200  0.00  0.00    +0.466 C 
ENDBRANCH  20  21
ENDBRANCH  11  16
TORSDOF 4
ENDMDL
MODEL 2
REMARK VINA RESULT:      -7.2     22.977     25.546
REMARK  Name = 26762014
REMARK  4 active torsions:
REMARK  status: ('A' for Active; 'I' for Inactive)
REMARK    1  A    between atoms: C_11  and  C_16
REMARK    2  A    between atoms: C_17  and  C_19
REMARK    3  A    between atoms: C_20  and  C_21
REMARK    4  A    between atoms: C_31  and  C_33
REMARK                            x       y       z     vdW  Elec       q    Type
REMARK                         _______ _______ _______ _____ _____    ______ ____
ROOT
ATOM      2  O   UNL     1       8.383   7.379   3.999  0.00  0.00    -0.270 OA
ATOM      5  N   UNL     1      10.631   6.875   3.562  0.00  0.00    -0.280 N 
ATOM      6  N   UNL     1      14.352   7.048   3.768  0.00  0.00    -0.347 N 
ATOM      7  N   UNL     1      14.149   8.581   2.155  0.00  0.00    -0.240 NA
ATOM     11  C   UNL     1      10.554   7.345   2.139  0.00  0.00    +0.171 C 
ATOM     12  C   UNL     1      11.640   8.423   1.839  0.00  0.00    +0.089 C 
ATOM     13  C   UNL     1      11.926   6.315   4.044  0.00  0.00    +0.163 C 
ATOM     14  C   UNL     1      12.929   8.051   2.466  0.00  0.00    +0.066 A 
ATOM     15  C   UNL     1      13.026   7.107   3.458  0.00  0.00    +0.056 A 
ATOM     17  C   UNL     1       9.472   6.926   4.353  0.00  0.00    +0.248 C 
ATOM     18  C   UNL     1      14.987   7.954   2.957  0.00  0.00    +0.197 A 
ATOM     34  H   UNL     1      14.788   6.451   4.458  0.00  0.00    +0.167 HD
ENDROOT
BRANCH  17  19
ATOM     19  C   UNL     1       9.534   6.383   5.718  0.00  0.00    +0.037 A 
ATOM     22  C   UNL     1       9.705   5.014   5.917  0.00  0.00    +0.014 A 
ATOM     23  C   UNL     1       9.422   7.239   6.814  0.00  0.00    +0.014 A 
ATOM     28  C   UNL     1       9.765   4.500   7.212  0.00  0.00    +0.019 A 
ATOM     29  C   UNL     1       9.481   6.725   8.108  0.00  0.00    +0.019 A 
ATOM     31  C   UNL     1       9.653   5.355   8.309  0.00  0.00    +0.052 A 
BRANCH  31  33
ATOM     10  N   UNL     1       9.761   4.399  10.712  0.00  0.00    -0.191 NA
ATOM     33  C   UNL     1       9.713   4.828   9.635  0.00  0.00    +0.099 C 
ENDBRANCH  31  33
ENDBRANCH  17  19
BRANCH  11  16
ATOM      1  O   UNL     1      10.150   4.958   1.736  0.00  0.00    -0.336 OA
ATOM      8  N   UNL     1      10.719   6.105  -0.101  0.00  0.00    -0.190 NA
ATOM      9  N   UNL     1      10.159   4.031   0.686  0.00  0.00    -0.056 NA
ATOM     16  C   UNL     1      10.490   6.153   1.187  0.00  0.00    +0.249 A 
ATOM     20  C   UNL     1      10.503   4.783  -0.363  0.00  0.00    +0.202 A 
BRANCH  20  21
ATOM      3  O   UNL     1       9.110   4.306  -5.022  0.00  0.00    -0.453 OA
ATOM      4  O   UNL     1      10.912   2.783  -5.513  0.00  0.00    -0.453 OA
ATOM     21  C   UNL     1      10.639   4.246  -1.687  0.00  0.00    +0.026 A 
ATOM     24  C   UNL     1       9.726   4.611  -2.679  0.00  0.00    +0.061 A 
ATOM     25  C   UNL     1      11.690   3.357  -1.972  0.00  0.00    +0.015 A 
ATOM     26  C   UNL     1       9.897   4.069  -3.936  0.00  0.00    +0.167 A 
ATOM     27  C   UNL     1      10.925   3.199  -4.217  0.00  0.00    +0.166 A 
ATOM     30  C   UNL     1      11.840   2.824  -3.255  0.00  0.00    +0.050 A 
ATOM     32  C   UNL     1       9.759   3.488  -6.017  0.00  0.00    +0.466 C 
ENDBRANCH  20  21
ENDBRANCH  11  16
TORSDOF 4
ENDMDL
MODEL 3
REMARK VINA RESULT:      -7.1     22.967     25.487
REMARK  Name = 26762014
REMARK  4 active torsions:
REMARK  status: ('A' for Active; 'I' for Inactive)
REMARK    1  A    between atoms: C_11  and  C_16
REMARK    2  A    between atoms: C_17  and  C_19
REMARK    3  A    between atoms: C_20  and  C_21
REMARK    4  A    between atoms: C_31  and  C_33
REMARK                            x       y       z     vdW  Elec       q    Type
REMARK                         _______ _______ _______ _____ _____    ______ ____
ROOT
ATOM      2  O   UNL     1      10.919   9.762   3.768  0.00  0.00    -0.270 OA
ATOM      5  N   UNL     1      10.190   7.926   5.032  0.00  0.00    -0.280 N 
ATOM      6  N   UNL     1       8.976   5.968   7.967  0.00  0.00    -0.347 N 
ATOM      7  N   UNL     1      11.151   5.690   8.400  0.00  0.00    -0.240 NA
ATOM     11  C   UNL     1      11.513   7.223   4.940  0.00  0.00    +0.171 C 
ATOM     12  C   UNL     1      12.067   6.871   6.355  0.00  0.00    +0.089 C 
ATOM     13  C   UNL     1       9.084   7.242   5.761  0.00  0.00    +0.163 C 
ATOM     14  C   UNL     1      10.982   6.373   7.230  0.00  0.00    +0.066 A 
ATOM     15  C   UNL     1       9.652   6.560   6.941  0.00  0.00    +0.056 A 
ATOM     17  C   UNL     1      10.037   9.160   4.381  0.00  0.00    +0.248 C 
ATOM     18  C   UNL     1       9.922   5.458   8.819  0.00  0.00    +0.197 A 
ATOM     34  H   UNL     1       7.973   5.910   8.079  0.00  0.00    +0.167 HD
ENDROOT
BRANCH  17  19
ATOM     19  C   UNL     1       8.713   9.800   4.403  0.00  0.00    +0.037 A 
ATOM     22  C   UNL     1       8.505  10.947   5.169  0.00  0.00    +0.014 A 
ATOM     23  C   UNL     1       7.665   9.259   3.658  0.00  0.00    +0.014 A 
ATOM     28  C   UNL     1       7.250  11.554   5.188  0.00  0.00    +0.019 A 
ATOM     29  C   UNL     1       6.410   9.865   3.679  0.00  0.00    +0.019 A 
ATOM     31  C   UNL     1       6.201  11.013   4.444  0.00  0.00    +0.052 A 
BRANCH  31  33
ATOM     10  N   UNL     1       3.870  12.138   4.482  0.00  0.00    -0.191 NA
ATOM     33  C   UNL     1       4.915  11.634   4.465  0.00  0.00    +0.099 C 
ENDBRANCH  31  33
ENDBRANCH  17  19
BRANCH  11  16
ATOM      1  O   UNL     1      10.930   4.905   4.381  0.00  0.00    -0.336 OA
ATOM      8  N   UNL     1      11.802   6.060   2.672  0.00  0.00    -0.190 NA
ATOM      9  N   UNL     1      10.965   4.023   3.293  0.00  0.00    -0.056 NA
ATOM     16  C   UNL     1      11.440   6.081   3.930  0.00  0.00    +0.249 A 
ATOM     20  C   UNL     1      11.491   4.777   2.324  0.00  0.00    +0.202 A 
BRANCH  20  21
ATOM      3  O   UNL     1      10.118   3.917  -2.285  0.00  0.00    -0.453 OA
ATOM      4  O   UNL     1      12.234   2.902  -2.835  0.00  0.00    -0.453 OA
ATOM     21  C   UNL     1      11.717   4.281   0.997  0.00  0.00    +0.026 A 
ATOM     24  C   UNL     1      10.709   4.390   0.035  0.00  0.00    +0.061 A 
ATOM     25  C   UNL     1      12.951   3.689   0.677  0.00  0.00    +0.015 A 
ATOM     26  C   UNL     1      10.973   3.899  -1.227  0.00  0.00    +0.167 A 
ATOM     27  C   UNL     1      12.181   3.320  -1.541  0.00  0.00    +0.166 A 
ATOM     30  C   UNL     1      13.193   3.200  -0.610  0.00  0.00    +0.050 A 
ATOM     32  C   UNL     1      10.923   3.284  -3.301  0.00  0.00    +0.466 C 
ENDBRANCH  20  21
ENDBRANCH  11  16
TORSDOF 4
ENDMDL
MODEL 4
REMARK VINA RESULT:      -7.1     24.577     29.021
REMARK  Name = 26762014
REMARK  4 active torsions:
REMARK  status: ('A' for Active; 'I' for Inactive)
REMARK    1  A    between atoms: C_11  and  C_16
REMARK    2  A    between atoms: C_17  and  C_19
REMARK    3  A    between atoms: C_20  and  C_21
REMARK    4  A    between atoms: C_31  and  C_33
REMARK                            x       y       z     vdW  Elec       q    Type
REMARK                         _______ _______ _______ _____ _____    ______ ____
ROOT
ATOM      2  O   UNL     1     -12.707   8.687  36.759  0.00  0.00    -0.270 OA
ATOM      5  N   UNL     1     -12.520   8.549  34.425  0.00  0.00    -0.280 N 
ATOM      6  N   UNL     1     -11.992   9.631  30.894  0.00  0.00    -0.347 N 
ATOM      7  N   UNL     1     -14.190  10.029  30.920  0.00  0.00    -0.240 NA
ATOM     11  C   UNL     1     -13.966   8.191  34.240  0.00  0.00    +0.171 C 
ATOM     12  C   UNL     1     -14.671   9.173  33.255  0.00  0.00    +0.089 C 
ATOM     13  C   UNL     1     -11.658   8.623  33.212  0.00  0.00    +0.163 C 
ATOM     14  C   UNL     1     -13.792   9.476  32.104  0.00  0.00    +0.066 A 
ATOM     15  C   UNL     1     -12.442   9.224  32.115  0.00  0.00    +0.056 A 
ATOM     17  C   UNL     1     -12.034   8.738  35.729  0.00  0.00    +0.248 C 
ATOM     18  C   UNL     1     -13.081  10.108  30.211  0.00  0.00    +0.197 A 
ATOM     34  H   UNL     1     -11.040   9.589  30.553  0.00  0.00    +0.167 HD
ENDROOT
BRANCH  17  19
ATOM     19  C   UNL     1     -10.599   9.002  35.906  0.00  0.00    +0.037 A 
ATOM     22  C   UNL     1      -9.815   8.127  36.658  0.00  0.00    +0.014 A 
ATOM     23  C   UNL     1     -10.021  10.130  35.322  0.00  0.00    +0.014 A 
ATOM     28  C   UNL     1      -8.454   8.379  36.825  0.00  0.00    +0.019 A 
ATOM     29  C   UNL     1      -8.660  10.381  35.491  0.00  0.00    +0.019 A 
ATOM     31  C   UNL     1      -7.875   9.506  36.242  0.00  0.00    +0.052 A 
BRANCH  31  33
ATOM     10  N   UNL     1      -5.348   9.973  36.554  0.00  0.00    -0.191 NA
ATOM     33  C   UNL     1      -6.481   9.763  36.414  0.00  0.00    +0.099 C 
ENDBRANCH  31  33
ENDBRANCH  17  19
BRANCH  11  16
ATOM      1  O   UNL     1     -14.029   5.860  35.007  0.00  0.00    -0.336 OA
ATOM      8  N   UNL     1     -14.306   6.097  32.797  0.00  0.00    -0.190 NA
ATOM      9  N   UNL     1     -14.188   4.567  34.494  0.00  0.00    -0.056 NA
ATOM     16  C   UNL     1     -14.112   6.701  33.943  0.00  0.00    +0.249 A 
ATOM     20  C   UNL     1     -14.346   4.789  33.186  0.00  0.00    +0.202 A 
BRANCH  20  21
ATOM      3  O   UNL     1     -14.912   0.086  31.988  0.00  0.00    -0.453 OA
ATOM      4  O   UNL     1     -15.122   0.602  29.644  0.00  0.00    -0.453 OA
ATOM     21  C   UNL     1     -14.548   3.728  32.241  0.00  0.00    +0.026 A 
ATOM     24  C   UNL     1     -14.621   2.407  32.688  0.00  0.00    +0.061 A 
ATOM     25  C   UNL     1     -14.670   4.030  30.874  0.00  0.00    +0.015 A 
ATOM     26  C   UNL     1     -14.817   1.422  31.742  0.00  0.00    +0.167 A 
ATOM     27  C   UNL     1     -14.937   1.716  30.404  0.00  0.00    +0.166 A 
ATOM     30  C   UNL     1     -14.868   3.012  29.937  0.00  0.00    +0.050 A 
ATOM     32  C   UNL     1     -15.106  -0.427  30.654  0.00  0.00    +0.466 C 
ENDBRANCH  20  21
ENDBRANCH  11  16
TORSDOF 4
ENDMDL
MODEL 5
REMARK VINA RESULT:      -7.1     24.710     27.726
REMARK  Name = 26762014
REMARK  4 active torsions:
REMARK  status: ('A' for Active; 'I' for Inactive)
REMARK    1  A    between atoms: C_11  and  C_16
REMARK    2  A    between atoms: C_17  and  C_19
REMARK    3  A    between atoms: C_20  and  C_21
REMARK    4  A    between atoms: C_31  and  C_33
REMARK                            x       y       z     vdW  Elec       q    Type
REMARK                         _______ _______ _______ _____ _____    ______ ____
ROOT
ATOM      2  O   UNL     1      14.624  10.001   2.917  0.00  0.00    -0.270 OA
ATOM      5  N   UNL     1      14.328   7.677   2.812  0.00  0.00    -0.280 N 
ATOM      6  N   UNL     1      14.935   4.118   1.871  0.00  0.00    -0.347 N 
ATOM      7  N   UNL     1      13.632   4.590   0.119  0.00  0.00    -0.240 NA
ATOM     11  C   UNL     1      13.019   7.786   2.084  0.00  0.00    +0.171 C 
ATOM     12  C   UNL     1      13.041   6.970   0.756  0.00  0.00    +0.089 C 
ATOM     13  C   UNL     1      14.822   6.315   3.161  0.00  0.00    +0.163 C 
ATOM     14  C   UNL     1      13.711   5.666   0.957  0.00  0.00    +0.066 A 
ATOM     15  C   UNL     1      14.510   5.402   2.042  0.00  0.00    +0.056 A 
ATOM     17  C   UNL     1      14.993   8.856   3.182  0.00  0.00    +0.248 C 
ATOM     18  C   UNL     1      14.379   3.672   0.699  0.00  0.00    +0.197 A 
ATOM     34  H   UNL     1      15.540   3.592   2.488  0.00  0.00    +0.167 HD
ENDROOT
BRANCH  17  19
ATOM     19  C   UNL     1      16.229   8.741   3.970  0.00  0.00    +0.037 A 
ATOM     22  C   UNL     1      16.197   8.932   5.352  0.00  0.00    +0.014 A 
ATOM     23  C   UNL     1      17.435   8.442   3.335  0.00  0.00    +0.014 A 
ATOM     28  C   UNL     1      17.369   8.822   6.098  0.00  0.00    +0.019 A 
ATOM     29  C   UNL     1      18.607   8.334   4.082  0.00  0.00    +0.019 A 
ATOM     31  C   UNL     1      18.575   8.523   5.464  0.00  0.00    +0.052 A 
BRANCH  31  33
ATOM     10  N   UNL     1      20.753   8.321   6.850  0.00  0.00    -0.191 NA
ATOM     33  C   UNL     1      19.777   8.411   6.229  0.00  0.00    +0.099 C 
ENDBRANCH  31  33
ENDBRANCH  17  19
BRANCH  11  16
ATOM      1  O   UNL     1      10.608   7.604   2.507  0.00  0.00    -0.336 OA
ATOM      8  N   UNL     1      11.879   7.208   4.308  0.00  0.00    -0.190 NA
ATOM      9  N   UNL     1       9.722   7.321   3.554  0.00  0.00    -0.056 NA
ATOM     16  C   UNL     1      11.857   7.516   3.036  0.00  0.00    +0.249 A 
ATOM     20  C   UNL     1      10.546   7.099   4.581  0.00  0.00    +0.202 A 
BRANCH  20  21
ATOM      3  O   UNL     1      10.120   4.093   8.410  0.00  0.00    -0.453 OA
ATOM      4  O   UNL     1       8.778   5.676   9.635  0.00  0.00    -0.453 OA
ATOM     21  C   UNL     1      10.071   6.763   5.893  0.00  0.00    +0.026 A 
ATOM     24  C   UNL     1      10.391   5.521   6.449  0.00  0.00    +0.061 A 
ATOM     25  C   UNL     1       9.289   7.687   6.607  0.00  0.00    +0.015 A 
ATOM     26  C   UNL     1       9.913   5.243   7.713  0.00  0.00    +0.167 A 
ATOM     27  C   UNL     1       9.147   6.147   8.412  0.00  0.00    +0.166 A 
ATOM     30  C   UNL     1       8.817   7.379   7.887  0.00  0.00    +0.050 A 
ATOM     32  C   UNL     1       9.399   4.374   9.627  0.00  0.00    +0.466 C 
ENDBRANCH  20  21
ENDBRANCH  11  16
TORSDOF 4
ENDMDL
MODEL 6
REMARK VINA RESULT:      -7.0      4.444      7.548
REMARK  Name = 26762014
REMARK  4 active torsions:
REMARK  status: ('A' for Active; 'I' for Inactive)
REMARK    1  A    between atoms: C_11  and  C_16
REMARK    2  A    between atoms: C_17  and  C_19
REMARK    3  A    between atoms: C_20  and  C_21
REMARK    4  A    between atoms: C_31  and  C_33
REMARK                            x       y       z     vdW  Elec       q    Type
REMARK                         _______ _______ _______ _____ _____    ______ ____
ROOT
ATOM      2  O   UNL     1      -5.661 -13.222  10.405  0.00  0.00    -0.270 OA
ATOM      5  N   UNL     1      -5.691 -11.119   9.369  0.00  0.00    -0.280 N 
ATOM      6  N   UNL     1      -6.410  -7.497   8.839  0.00  0.00    -0.347 N 
ATOM      7  N   UNL     1      -8.299  -8.236   7.902  0.00  0.00    -0.240 NA
ATOM     11  C   UNL     1      -6.545 -11.593   8.228  0.00  0.00    +0.171 C 
ATOM     12  C   UNL     1      -7.828 -10.718   8.081  0.00  0.00    +0.089 C 
ATOM     13  C   UNL     1      -5.236  -9.700   9.358  0.00  0.00    +0.163 C 
ATOM     14  C   UNL     1      -7.506  -9.286   8.267  0.00  0.00    +0.066 A 
ATOM     15  C   UNL     1      -6.338  -8.858   8.849  0.00  0.00    +0.056 A 
ATOM     17  C   UNL     1      -5.311 -12.043  10.355  0.00  0.00    +0.248 C 
ATOM     18  C   UNL     1      -7.610  -7.170   8.258  0.00  0.00    +0.197 A 
ATOM     34  H   UNL     1      -5.716  -6.849   9.188  0.00  0.00    +0.167 HD
ENDROOT
BRANCH  17  19
ATOM     19  C   UNL     1      -4.404 -11.591  11.420  0.00  0.00    +0.037 A 
ATOM     22  C   UNL     1      -4.923 -11.099  12.617  0.00  0.00    +0.014 A 
ATOM     23  C   UNL     1      -3.023 -11.655  11.233  0.00  0.00    +0.014 A 
ATOM     28  C   UNL     1      -4.062 -10.672  13.627  0.00  0.00    +0.019 A 
ATOM     29  C   UNL     1      -2.162 -11.227  12.242  0.00  0.00    +0.019 A 
ATOM     31  C   UNL     1      -2.681 -10.736  13.440  0.00  0.00    +0.052 A 
BRANCH  31  33
ATOM     10  N   UNL     1      -1.082  -9.940  15.315  0.00  0.00    -0.191 NA
ATOM     33  C   UNL     1      -1.798 -10.297  14.475  0.00  0.00    +0.099 C 
ENDBRANCH  31  33
ENDBRANCH  17  19
BRANCH  11  16
ATOM      1  O   UNL     1      -6.082 -11.087   5.872  0.00  0.00    -0.336 OA
ATOM      8  N   UNL     1      -4.641 -12.535   6.790  0.00  0.00    -0.190 NA
ATOM      9  N   UNL     1      -5.169 -11.421   4.863  0.00  0.00    -0.056 NA
ATOM     16  C   UNL     1      -5.699 -11.785   6.973  0.00  0.00    +0.249 A 
ATOM     20  C   UNL     1      -4.353 -12.278   5.481  0.00  0.00    +0.202 A 
BRANCH  20  21
ATOM      3  O   UNL     1      -1.661 -13.297   1.532  0.00  0.00    -0.453 OA
ATOM      4  O   UNL     1      -0.092 -14.604   2.812  0.00  0.00    -0.453 OA
ATOM     21  C   UNL     1      -3.237 -12.895   4.821  0.00  0.00    +0.026 A 
ATOM     24  C   UNL     1      -3.071 -12.732   3.444  0.00  0.00    +0.061 A 
ATOM     25  C   UNL     1      -2.323 -13.657   5.568  0.00  0.00    +0.015 A 
ATOM     26  C   UNL     1      -1.983 -13.343   2.854  0.00  0.00    +0.167 A 
ATOM     27  C   UNL     1      -1.088 -14.089   3.584  0.00  0.00    +0.166 A 
ATOM     30  C   UNL     1      -1.229 -14.266   4.945  0.00  0.00    +0.050 A 
ATOM     32  C   UNL     1      -0.462 -14.098   1.513  0.00  0.00    +0.466 C 
ENDBRANCH  20  21
ENDBRANCH  11  16
TORSDOF 4
ENDMDL
MODEL 7
REMARK VINA RESULT:      -6.9     24.529     26.405
REMARK  Name = 26762014
REMARK  4 active torsions:
REMARK  status: ('A' for Active; 'I' for Inactive)
REMARK    1  A    between atoms: C_11  and  C_16
REMARK    2  A    between atoms: C_17  and  C_19
REMARK    3  A    between atoms: C_20  and  C_21
REMARK    4  A    between atoms: C_31  and  C_33
REMARK                            x       y       z     vdW  Elec       q    Type
REMARK                         _______ _______ _______ _____ _____    ______ ____
ROOT
ATOM      2  O   UNL     1       9.941   4.436   4.637  0.00  0.00    -0.270 OA
ATOM      5  N   UNL     1      11.482   6.201   4.571  0.00  0.00    -0.280 N 
ATOM      6  N   UNL     1      14.762   7.969   4.365  0.00  0.00    -0.347 N 
ATOM      7  N   UNL     1      14.771   7.745   6.588  0.00  0.00    -0.240 NA
ATOM     11  C   UNL     1      11.188   6.631   5.979  0.00  0.00    +0.171 C 
ATOM     12  C   UNL     1      12.487   6.678   6.840  0.00  0.00    +0.089 C 
ATOM     13  C   UNL     1      12.476   6.994   3.793  0.00  0.00    +0.163 C 
ATOM     14  C   UNL     1      13.603   7.267   6.066  0.00  0.00    +0.066 A 
ATOM     15  C   UNL     1      13.573   7.390   4.698  0.00  0.00    +0.056 A 
ATOM     17  C   UNL     1      10.769   5.118   4.034  0.00  0.00    +0.248 C 
ATOM     18  C   UNL     1      15.448   8.163   5.536  0.00  0.00    +0.197 A 
ATOM     34  H   UNL     1      15.078   8.212   3.435  0.00  0.00    +0.167 HD
ENDROOT
BRANCH  17  19
ATOM     19  C   UNL     1      11.001   4.760   2.627  0.00  0.00    +0.037 A 
ATOM     22  C   UNL     1      10.169   5.270   1.630  0.00  0.00    +0.014 A 
ATOM     23  C   UNL     1      12.053   3.909   2.289  0.00  0.00    +0.014 A 
ATOM     28  C   UNL     1      10.390   4.931   0.296  0.00  0.00    +0.019 A 
ATOM     29  C   UNL     1      12.273   3.569   0.955  0.00  0.00    +0.019 A 
ATOM     31  C   UNL     1      11.443   4.080  -0.043  0.00  0.00    +0.052 A 
BRANCH  31  33
ATOM     10  N   UNL     1      11.852   3.448  -2.520  0.00  0.00    -0.191 NA
ATOM     33  C   UNL     1      11.668   3.731  -1.410  0.00  0.00    +0.099 C 
ENDBRANCH  31  33
ENDBRANCH  17  19
BRANCH  11  16
ATOM      1  O   UNL     1      10.545   8.777   6.982  0.00  0.00    -0.336 OA
ATOM      8  N   UNL     1       9.365   8.238   5.156  0.00  0.00    -0.190 NA
ATOM      9  N   UNL     1       9.640   9.827   6.779  0.00  0.00    -0.056 NA
ATOM     16  C   UNL     1      10.317   7.885   5.983  0.00  0.00    +0.249 A 
ATOM     20  C   UNL     1       8.981   9.436   5.686  0.00  0.00    +0.202 A 
BRANCH  20  21
ATOM      3  O   UNL     1       4.917   9.952   3.022  0.00  0.00    -0.453 OA
ATOM      4  O   UNL     1       4.883  12.340   3.348  0.00  0.00    -0.453 OA
ATOM     21  C   UNL     1       7.933  10.219   5.094  0.00  0.00    +0.026 A 
ATOM     24  C   UNL     1       6.943   9.590   4.335  0.00  0.00    +0.061 A 
ATOM     25  C   UNL     1       7.914  11.611   5.285  0.00  0.00    +0.015 A 
ATOM     26  C   UNL     1       5.957  10.384   3.787  0.00  0.00    +0.167 A 
ATOM     27  C   UNL     1       5.937  11.747   3.973  0.00  0.00    +0.166 A 
ATOM     30  C   UNL     1       6.903  12.392   4.718  0.00  0.00    +0.050 A 
ATOM     32  C   UNL     1       4.241  11.197   2.747  0.00  0.00    +0.466 C 
ENDBRANCH  20  21
ENDBRANCH  11  16
TORSDOF 4
ENDMDL
MODEL 8
REMARK VINA RESULT:      -6.9      2.125      2.939
REMARK  Name = 26762014
REMARK  4 active torsions:
REMARK  status: ('A' for Active; 'I' for Inactive)
REMARK    1  A    between atoms: C_11  and  C_16
REMARK    2  A    between atoms: C_17  and  C_19
REMARK    3  A    between atoms: C_20  and  C_21
REMARK    4  A    between atoms: C_31  and  C_33
REMARK                            x       y       z     vdW  Elec       q    Type
REMARK                         _______ _______ _______ _____ _____    ______ ____
ROOT
ATOM      2  O   UNL     1      -2.448 -10.251  13.987  0.00  0.00    -0.270 OA
ATOM      5  N   UNL     1      -4.211 -11.481  13.050  0.00  0.00    -0.280 N 
ATOM      6  N   UNL     1      -6.502 -14.349  12.386  0.00  0.00    -0.347 N 
ATOM      7  N   UNL     1      -4.990 -14.913  10.841  0.00  0.00    -0.240 NA
ATOM     11  C   UNL     1      -3.607 -11.471  11.676  0.00  0.00    +0.171 C 
ATOM     12  C   UNL     1      -3.452 -12.919  11.116  0.00  0.00    +0.089 C 
ATOM     13  C   UNL     1      -5.533 -12.147  13.228  0.00  0.00    +0.163 C 
ATOM     14  C   UNL     1      -4.648 -13.730  11.433  0.00  0.00    +0.066 A 
ATOM     15  C   UNL     1      -5.562 -13.363  12.390  0.00  0.00    +0.056 A 
ATOM     17  C   UNL     1      -3.539 -10.814  14.087  0.00  0.00    +0.248 C 
ATOM     18  C   UNL     1      -6.113 -15.260  11.436  0.00  0.00    +0.197 A 
ATOM     34  H   UNL     1      -7.329 -14.402  12.966  0.00  0.00    +0.167 HD
ENDROOT
BRANCH  17  19
ATOM     19  C   UNL     1      -4.180 -10.754  15.408  0.00  0.00    +0.037 A 
ATOM     22  C   UNL     1      -5.326  -9.981  15.594  0.00  0.00    +0.014 A 
ATOM     23  C   UNL     1      -3.642 -11.470  16.478  0.00  0.00    +0.014 A 
ATOM     28  C   UNL     1      -5.934  -9.925  16.847  0.00  0.00    +0.019 A 
ATOM     29  C   UNL     1      -4.249 -11.413  17.731  0.00  0.00    +0.019 A 
ATOM     31  C   UNL     1      -5.396 -10.641  17.917  0.00  0.00    +0.052 A 
BRANCH  31  33
ATOM     10  N   UNL     1      -6.523 -10.534  20.245  0.00  0.00    -0.191 NA
ATOM     33  C   UNL     1      -6.018 -10.582  19.201  0.00  0.00    +0.099 C 
ENDBRANCH  31  33
ENDBRANCH  17  19
BRANCH  11  16
ATOM      1  O   UNL     1      -4.266  -9.163  11.166  0.00  0.00    -0.336 OA
ATOM      8  N   UNL     1      -5.014 -10.669   9.687  0.00  0.00    -0.190 NA
ATOM      9  N   UNL     1      -4.992  -8.442  10.209  0.00  0.00    -0.056 NA
ATOM     16  C   UNL     1      -4.329 -10.465  10.784  0.00  0.00    +0.249 A 
ATOM     20  C   UNL     1      -5.401  -9.399   9.371  0.00  0.00    +0.202 A 
BRANCH  20  21
ATOM      3  O   UNL     1      -9.084  -7.174   7.056  0.00  0.00    -0.453 OA
ATOM      4  O   UNL     1      -8.544  -8.236   4.961  0.00  0.00    -0.453 OA
ATOM     21  C   UNL     1      -6.194  -9.120   8.209  0.00  0.00    +0.026 A 
ATOM     24  C   UNL     1      -7.272  -8.235   8.301  0.00  0.00    +0.061 A 
ATOM     25  C   UNL     1      -5.879  -9.739   6.987  0.00  0.00    +0.015 A 
ATOM     26  C   UNL     1      -8.005  -7.999   7.157  0.00  0.00    +0.167 A 
ATOM     27  C   UNL     1      -7.698  -8.605   5.961  0.00  0.00    +0.166 A 
ATOM     30  C   UNL     1      -6.639  -9.481   5.843  0.00  0.00    +0.050 A 
ATOM     32  C   UNL     1      -9.420  -7.329   5.662  0.00  0.00    +0.466 C 
ENDBRANCH  20  21
ENDBRANCH  11  16
TORSDOF 4
ENDMDL
MODEL 9
REMARK VINA RESULT:      -6.9     23.343     25.957
REMARK  Name = 26762014
REMARK  4 active torsions:
REMARK  status: ('A' for Active; 'I' for Inactive)
REMARK    1  A    between atoms: C_11  and  C_16
REMARK    2  A    between atoms: C_17  and  C_19
REMARK    3  A    between atoms: C_20  and  C_21
REMARK    4  A    between atoms: C_31  and  C_33
REMARK                            x       y       z     vdW  Elec       q    Type
REMARK                         _______ _______ _______ _____ _____    ______ ____
ROOT
ATOM      2  O   UNL     1      10.722   8.036   2.696  0.00  0.00    -0.270 OA
ATOM      5  N   UNL     1      11.852   6.095   2.021  0.00  0.00    -0.280 N 
ATOM      6  N   UNL     1      14.502   3.474   1.863  0.00  0.00    -0.347 N 
ATOM      7  N   UNL     1      15.427   4.815   0.334  0.00  0.00    -0.240 NA
ATOM     11  C   UNL     1      12.087   6.607   0.630  0.00  0.00    +0.171 C 
ATOM     12  C   UNL     1      13.602   6.571   0.262  0.00  0.00    +0.089 C 
ATOM     13  C   UNL     1      12.335   4.724   2.352  0.00  0.00    +0.163 C 
ATOM     14  C   UNL     1      14.225   5.318   0.745  0.00  0.00    +0.066 A 
ATOM     15  C   UNL     1      13.636   4.512   1.688  0.00  0.00    +0.056 A 
ATOM     17  C   UNL     1      11.139   6.900   2.924  0.00  0.00    +0.248 C 
ATOM     18  C   UNL     1      15.565   3.702   1.026  0.00  0.00    +0.197 A 
ATOM     34  H   UNL     1      14.386   2.685   2.485  0.00  0.00    +0.167 HD
ENDROOT
BRANCH  17  19
ATOM     19  C   UNL     1      10.838   6.355   4.256  0.00  0.00    +0.037 A 
ATOM     22  C   UNL     1      11.610   6.731   5.355  0.00  0.00    +0.014 A 
ATOM     23  C   UNL     1       9.779   5.461   4.420  0.00  0.00    +0.014 A 
ATOM     28  C   UNL     1      11.323   6.215   6.618  0.00  0.00    +0.019 A 
ATOM     29  C   UNL     1       9.494   4.944   5.683  0.00  0.00    +0.019 A 
ATOM     31  C   UNL     1      10.264   5.321   6.783  0.00  0.00    +0.052 A 
BRANCH  31  33
ATOM     10  N   UNL     1       9.734   4.360   9.127  0.00  0.00    -0.191 NA
ATOM     33  C   UNL     1       9.972   4.791   8.077  0.00  0.00    +0.099 C 
ENDBRANCH  31  33
ENDBRANCH  17  19
BRANCH  11  16
ATOM      1  O   UNL     1       9.883   5.660   0.114  0.00  0.00    -0.336 OA
ATOM      8  N   UNL     1      11.325   5.589  -1.598  0.00  0.00    -0.190 NA
ATOM      9  N   UNL     1       9.196   5.060  -0.950  0.00  0.00    -0.056 NA
ATOM     16  C   UNL     1      11.128   5.941  -0.352  0.00  0.00    +0.249 A 
ATOM     20  C   UNL     1      10.112   5.054  -1.921  0.00  0.00    +0.202 A 
BRANCH  20  21
ATOM      3  O   UNL     1       8.370   5.381  -6.475  0.00  0.00    -0.453 OA
ATOM      4  O   UNL     1       9.033   3.125  -7.001  0.00  0.00    -0.453 OA
ATOM     21  C   UNL     1       9.848   4.522  -3.228  0.00  0.00    +0.026 A 
ATOM     24  C   UNL     1       9.209   5.317  -4.183  0.00  0.00    +0.061 A 
ATOM     25  C   UNL     1      10.235   3.206  -3.535  0.00  0.00    +0.015 A 
ATOM     26  C   UNL     1       8.977   4.763  -5.425  0.00  0.00    +0.167 A 
ATOM     27  C   UNL     1       9.356   3.475  -5.726  0.00  0.00    +0.166 A 
ATOM     30  C   UNL     1       9.988   2.669  -4.801  0.00  0.00    +0.050 A 
ATOM     32  C   UNL     1       8.409   4.338  -7.470  0.00  0.00    +0.466 C 
ENDBRANCH  20  21
ENDBRANCH  11  16
TORSDOF 4
ENDMDL
MODEL 10
REMARK VINA RESULT:      -6.8     24.029     27.081
REMARK  Name = 26762014
REMARK  4 active torsions:
REMARK  status: ('A' for Active; 'I' for Inactive)
REMARK    1  A    between atoms: C_11  and  C_16
REMARK    2  A    between atoms: C_17  and  C_19
REMARK    3  A    between atoms: C_20  and  C_21
REMARK    4  A    between atoms: C_31  and  C_33
REMARK                            x       y       z     vdW  Elec       q    Type
REMARK                         _______ _______ _______ _____ _____    ______ ____
ROOT
ATOM      2  O   UNL     1       9.478   8.096   3.909  0.00  0.00    -0.270 OA
ATOM      5  N   UNL     1      10.207   7.080   5.892  0.00  0.00    -0.280 N 
ATOM      6  N   UNL     1      10.578   4.502   8.564  0.00  0.00    -0.347 N 
ATOM      7  N   UNL     1       8.794   5.500   9.466  0.00  0.00    -0.240 NA
ATOM     11  C   UNL     1       9.510   8.081   6.767  0.00  0.00    +0.171 C 
ATOM     12  C   UNL     1       8.557   7.378   7.782  0.00  0.00    +0.089 C 
ATOM     13  C   UNL     1      11.008   6.010   6.554  0.00  0.00    +0.163 C 
ATOM     14  C   UNL     1       9.195   6.166   8.343  0.00  0.00    +0.066 A 
ATOM     15  C   UNL     1      10.290   5.570   7.767  0.00  0.00    +0.056 A 
ATOM     17  C   UNL     1      10.125   7.230   4.499  0.00  0.00    +0.248 C 
ATOM     18  C   UNL     1       9.649   4.503   9.573  0.00  0.00    +0.197 A 
ATOM     34  H   UNL     1      11.331   3.838   8.440  0.00  0.00    +0.167 HD
ENDROOT
BRANCH  17  19
ATOM     19  C   UNL     1      10.882   6.298   3.651  0.00  0.00    +0.037 A 
ATOM     22  C   UNL     1      10.376   5.025   3.388  0.00  0.00    +0.014 A 
ATOM     23  C   UNL     1      12.108   6.686   3.110  0.00  0.00    +0.014 A 
ATOM     28  C   UNL     1      11.094   4.142   2.583  0.00  0.00    +0.019 A 
ATOM     29  C   UNL     1      12.827   5.802   2.306  0.00  0.00    +0.019 A 
ATOM     31  C   UNL     1      12.320   4.530   2.041  0.00  0.00    +0.052 A 
BRANCH  31  33
ATOM     10  N   UNL     1      13.654   2.888   0.550  0.00  0.00    -0.191 NA
ATOM     33  C   UNL     1      13.056   3.624   1.218  0.00  0.00    +0.099 C 
ENDBRANCH  31  33
ENDBRANCH  17  19
BRANCH  11  16
ATOM      1  O   UNL     1      11.759   9.065   6.798  0.00  0.00    -0.336 OA
ATOM      8  N   UNL     1      10.361   9.946   8.310  0.00  0.00    -0.190 NA
ATOM      9  N   UNL     1      12.492  10.043   7.483  0.00  0.00    -0.056 NA
ATOM     16  C   UNL     1      10.515   9.073   7.346  0.00  0.00    +0.249 A 
ATOM     20  C   UNL     1      11.600  10.517   8.357  0.00  0.00    +0.202 A 
BRANCH  20  21
ATOM      3  O   UNL     1      14.233  14.343   9.872  0.00  0.00    -0.453 OA
ATOM      4  O   UNL     1      12.913  14.591  11.873  0.00  0.00    -0.453 OA
ATOM     21  C   UNL     1      11.912  11.562   9.289  0.00  0.00    +0.026 A 
ATOM     24  C   UNL     1      12.979  12.426   9.029  0.00  0.00    +0.061 A 
ATOM     25  C   UNL     1      11.142  11.706  10.456  0.00  0.00    +0.015 A 
ATOM     26  C   UNL     1      13.241  13.415   9.954  0.00  0.00    +0.167 A 
ATOM     27  C   UNL     1      12.487  13.557  11.097  0.00  0.00    +0.166 A 
ATOM     30  C   UNL     1      11.429  12.717  11.377  0.00  0.00    +0.050 A 
ATOM     32  C   UNL     1      14.019  15.085  11.091  0.00  0.00    +0.466 C 
ENDBRANCH  20  21
ENDBRANCH  11  16
TORSDOF 4
ENDMDL
