MODEL 1
REMARK VINA RESULT:      -6.8      0.000      0.000
REMARK  Name = 26743868
REMARK  12 active torsions:
REMARK  status: ('A' for Active; 'I' for Inactive)
REMARK    1  A    between atoms: O_1  and  C_11
REMARK    2  A    between atoms: O_3  and  C_16
REMARK    3  A    between atoms: O_3  and  C_25
REMARK    4  A    between atoms: O_4  and  C_19
REMARK    5  A    between atoms: O_4  and  C_29
REMARK    6  A    between atoms: O_5  and  C_21
REMARK    7  A    between atoms: O_5  and  C_30
REMARK    8  A    between atoms: N_6  and  C_13
REMARK    9  A    between atoms: C_9  and  C_14
REMARK   10  A    between atoms: C_13  and  C_15
REMARK   11  A    between atoms: C_18  and  C_22
REMARK   12  A    between atoms: C_26  and  C_31
REMARK                            x       y       z     vdW  Elec       q    Type
REMARK                         _______ _______ _______ _____ _____    ______ ____
ROOT
ATOM      6  N   UNL     1      -3.558 -10.740  14.767  0.00  0.00    -0.284 NA
ATOM      9  C   UNL     1      -3.587 -11.360  16.108  0.00  0.00    +0.149 C 
ATOM     10  C   UNL     1      -2.255 -10.946  16.761  0.00  0.00    +0.061 C 
ATOM     11  C   UNL     1      -1.528 -10.136  15.696  0.00  0.00    +0.130 C 
ATOM     12  C   UNL     1      -2.149 -10.618  14.398  0.00  0.00    +0.116 C 
ENDROOT
BRANCH   9  14
ATOM      2  O   UNL     1      -4.639 -10.918  18.269  0.00  0.00    -0.336 OA
ATOM      7  N   UNL     1      -5.986 -10.582  16.511  0.00  0.00    -0.190 NA
ATOM      8  N   UNL     1      -5.870 -10.503  18.794  0.00  0.00    -0.056 NA
ATOM     14  C   UNL     1      -4.794 -10.937  16.919  0.00  0.00    +0.245 A 
ATOM     18  C   UNL     1      -6.610 -10.325  17.697  0.00  0.00    +0.202 A 
BRANCH  18  22
ATOM     22  C   UNL     1      -7.976  -9.891  17.749  0.00  0.00    +0.023 A 
ATOM     23  C   UNL     1      -8.396  -8.808  16.976  0.00  0.00    +0.015 A 
ATOM     24  C   UNL     1      -8.886 -10.553  18.575  0.00  0.00    +0.012 A 
ATOM     26  C   UNL     1      -9.725  -8.387  17.028  0.00  0.00    -0.050 A 
ATOM     27  C   UNL     1     -10.215 -10.131  18.626  0.00  0.00    +0.001 A 
ATOM     28  C   UNL     1     -10.634  -9.050  17.852  0.00  0.00    +0.003 A 
ATOM     31  C   UNL     1     -10.174  -7.231  16.201  0.00  0.00    +0.044 C 
ENDBRANCH  18  22
ENDBRANCH   9  14
BRANCH  11   1
ATOM      1  O   UNL     1      -0.137 -10.387  15.737  0.00  0.00    -0.390 OA
ATOM     32  H   UNL     1       0.190 -10.377  14.822  0.00  0.00    +0.210 HD
ENDBRANCH  11   1
BRANCH   6  13
ATOM     13  C   UNL     1      -4.321 -11.485  13.774  0.00  0.00    +0.124 C 
BRANCH  13  15
ATOM     15  C   UNL     1      -4.785 -10.602  12.646  0.00  0.00    +0.012 A 
ATOM     16  C   UNL     1      -4.203 -10.693  11.382  0.00  0.00    +0.170 A 
ATOM     17  C   UNL     1      -5.810  -9.683  12.878  0.00  0.00    +0.012 A 
ATOM     19  C   UNL     1      -4.646  -9.868  10.349  0.00  0.00    +0.204 A 
ATOM     20  C   UNL     1      -6.252  -8.858  11.844  0.00  0.00    +0.050 A 
ATOM     21  C   UNL     1      -5.670  -8.949  10.580  0.00  0.00    +0.165 A 
BRANCH  16   3
ATOM      3  O   UNL     1      -3.202 -11.591  11.153  0.00  0.00    -0.491 OA
ATOM     25  C   UNL     1      -3.591 -12.913  10.788  0.00  0.00    +0.277 C 
ENDBRANCH  16   3
BRANCH  19   4
ATOM      4  O   UNL     1      -4.077  -9.956   9.112  0.00  0.00    -0.488 OA
ATOM     29  C   UNL     1      -4.768 -10.734   8.138  0.00  0.00    +0.277 C 
ENDBRANCH  19   4
BRANCH  21   5
ATOM      5  O   UNL     1      -6.112  -8.136   9.581  0.00  0.00    -0.491 OA
ATOM     30  C   UNL     1      -7.476  -8.275   9.188  0.00  0.00    +0.277 C 
ENDBRANCH  21   5
ENDBRANCH  13  15
ENDBRANCH   6  13
TORSDOF 8
ENDMDL
MODEL 2
REMARK VINA RESULT:      -6.5      2.563      7.088
REMARK  Name = 26743868
REMARK  12 active torsions:
REMARK  status: ('A' for Active; 'I' for Inactive)
REMARK    1  A    between atoms: O_1  and  C_11
REMARK    2  A    between atoms: O_3  and  C_16
REMARK    3  A    between atoms: O_3  and  C_25
REMARK    4  A    between atoms: O_4  and  C_19
REMARK    5  A    between atoms: O_4  and  C_29
REMARK    6  A    between atoms: O_5  and  C_21
REMARK    7  A    between atoms: O_5  and  C_30
REMARK    8  A    between atoms: N_6  and  C_13
REMARK    9  A    between atoms: C_9  and  C_14
REMARK   10  A    between atoms: C_13  and  C_15
REMARK   11  A    between atoms: C_18  and  C_22
REMARK   12  A    between atoms: C_26  and  C_31
REMARK                            x       y       z     vdW  Elec       q    Type
REMARK                         _______ _______ _______ _____ _____    ______ ____
ROOT
ATOM      6  N   UNL     1      -7.879  -9.830  16.385  0.00  0.00    -0.284 NA
ATOM      9  C   UNL     1      -8.776  -9.939  15.216  0.00  0.00    +0.149 C 
ATOM     10  C   UNL     1      -9.773  -8.776  15.375  0.00  0.00    +0.061 C 
ATOM     11  C   UNL     1      -9.384  -8.099  16.684  0.00  0.00    +0.130 C 
ATOM     12  C   UNL     1      -8.656  -9.191  17.445  0.00  0.00    +0.116 C 
ENDROOT
BRANCH   9  14
ATOM      2  O   UNL     1      -8.767 -10.089  12.777  0.00  0.00    -0.336 OA
ATOM      7  N   UNL     1      -6.754  -9.693  13.678  0.00  0.00    -0.190 NA
ATOM      8  N   UNL     1      -7.870 -10.004  11.705  0.00  0.00    -0.056 NA
ATOM     14  C   UNL     1      -8.028  -9.894  13.901  0.00  0.00    +0.245 A 
ATOM     18  C   UNL     1      -6.705  -9.770  12.315  0.00  0.00    +0.202 A 
BRANCH  18  22
ATOM     22  C   UNL     1      -5.475  -9.607  11.596  0.00  0.00    +0.023 A 
ATOM     23  C   UNL     1      -4.287 -10.116  12.119  0.00  0.00    +0.015 A 
ATOM     24  C   UNL     1      -5.468  -8.938  10.372  0.00  0.00    +0.012 A 
ATOM     26  C   UNL     1      -3.091  -9.957  11.419  0.00  0.00    -0.050 A 
ATOM     27  C   UNL     1      -4.271  -8.779   9.671  0.00  0.00    +0.001 A 
ATOM     28  C   UNL     1      -3.084  -9.289  10.194  0.00  0.00    +0.003 A 
ATOM     31  C   UNL     1      -1.821 -10.502  11.978  0.00  0.00    +0.044 C 
ENDBRANCH  18  22
ENDBRANCH   9  14
BRANCH  11   1
ATOM      1  O   UNL     1     -10.533  -7.651  17.377  0.00  0.00    -0.390 OA
ATOM     32  H   UNL     1     -10.574  -6.685  17.280  0.00  0.00    +0.210 HD
ENDBRANCH  11   1
BRANCH   6  13
ATOM     13  C   UNL     1      -7.327 -11.110  16.807  0.00  0.00    +0.124 C 
BRANCH  13  15
ATOM     15  C   UNL     1      -5.877 -11.249  16.422  0.00  0.00    +0.012 A 
ATOM     16  C   UNL     1      -5.418 -12.395  15.773  0.00  0.00    +0.170 A 
ATOM     17  C   UNL     1      -4.990 -10.215  16.722  0.00  0.00    +0.012 A 
ATOM     19  C   UNL     1      -4.073 -12.508  15.423  0.00  0.00    +0.204 A 
ATOM     20  C   UNL     1      -3.645 -10.327  16.372  0.00  0.00    +0.050 A 
ATOM     21  C   UNL     1      -3.186 -11.473  15.723  0.00  0.00    +0.165 A 
BRANCH  16   3
ATOM      3  O   UNL     1      -6.283 -13.408  15.478  0.00  0.00    -0.491 OA
ATOM     25  C   UNL     1      -6.944 -13.346  14.216  0.00  0.00    +0.277 C 
ENDBRANCH  16   3
BRANCH  19   4
ATOM      4  O   UNL     1      -3.622 -13.628  14.790  0.00  0.00    -0.488 OA
ATOM     29  C   UNL     1      -3.429 -13.539  13.380  0.00  0.00    +0.277 C 
ENDBRANCH  19   4
BRANCH  21   5
ATOM      5  O   UNL     1      -1.869 -11.569  15.388  0.00  0.00    -0.491 OA
ATOM     30  C   UNL     1      -1.044 -10.441  15.674  0.00  0.00    +0.277 C 
ENDBRANCH  21   5
ENDBRANCH  13  15
ENDBRANCH   6  13
TORSDOF 8
ENDMDL
MODEL 3
REMARK VINA RESULT:      -6.4      1.416      2.254
REMARK  Name = 26743868
REMARK  12 active torsions:
REMARK  status: ('A' for Active; 'I' for Inactive)
REMARK    1  A    between atoms: O_1  and  C_11
REMARK    2  A    between atoms: O_3  and  C_16
REMARK    3  A    between atoms: O_3  and  C_25
REMARK    4  A    between atoms: O_4  and  C_19
REMARK    5  A    between atoms: O_4  and  C_29
REMARK    6  A    between atoms: O_5  and  C_21
REMARK    7  A    between atoms: O_5  and  C_30
REMARK    8  A    between atoms: N_6  and  C_13
REMARK    9  A    between atoms: C_9  and  C_14
REMARK   10  A    between atoms: C_13  and  C_15
REMARK   11  A    between atoms: C_18  and  C_22
REMARK   12  A    between atoms: C_26  and  C_31
REMARK                            x       y       z     vdW  Elec       q    Type
REMARK                         _______ _______ _______ _____ _____    ______ ____
ROOT
ATOM      6  N   UNL     1      -3.372 -10.715  14.346  0.00  0.00    -0.284 NA
ATOM      9  C   UNL     1      -3.579 -11.317  15.680  0.00  0.00    +0.149 C 
ATOM     10  C   UNL     1      -2.365 -10.858  16.510  0.00  0.00    +0.061 C 
ATOM     11  C   UNL     1      -1.513 -10.042  15.546  0.00  0.00    +0.130 C 
ATOM     12  C   UNL     1      -1.929 -10.558  14.181  0.00  0.00    +0.116 C 
ENDROOT
BRANCH   9  14
ATOM      2  O   UNL     1      -5.347  -9.665  16.019  0.00  0.00    -0.336 OA
ATOM      7  N   UNL     1      -5.690 -11.605  17.087  0.00  0.00    -0.190 NA
ATOM      8  N   UNL     1      -6.566  -9.528  16.696  0.00  0.00    -0.056 NA
ATOM     14  C   UNL     1      -4.899 -10.916  16.302  0.00  0.00    +0.245 A 
ATOM     18  C   UNL     1      -6.699 -10.711  17.302  0.00  0.00    +0.202 A 
BRANCH  18  22
ATOM     22  C   UNL     1      -7.826 -11.033  18.128  0.00  0.00    +0.023 A 
ATOM     23  C   UNL     1      -7.827 -12.205  18.883  0.00  0.00    +0.015 A 
ATOM     24  C   UNL     1      -8.923 -10.172  18.174  0.00  0.00    +0.012 A 
ATOM     26  C   UNL     1      -8.924 -12.518  19.686  0.00  0.00    -0.050 A 
ATOM     27  C   UNL     1     -10.021 -10.485  18.979  0.00  0.00    +0.001 A 
ATOM     28  C   UNL     1     -10.020 -11.657  19.734  0.00  0.00    +0.003 A 
ATOM     31  C   UNL     1      -8.924 -13.770  20.495  0.00  0.00    +0.044 C 
ENDBRANCH  18  22
ENDBRANCH   9  14
BRANCH  11   1
ATOM      1  O   UNL     1      -0.136 -10.255  15.791  0.00  0.00    -0.390 OA
ATOM     32  H   UNL     1       0.066  -9.883  16.666  0.00  0.00    +0.210 HD
ENDBRANCH  11   1
BRANCH   6  13
ATOM     13  C   UNL     1      -3.966 -11.493  13.267  0.00  0.00    +0.124 C 
BRANCH  13  15
ATOM     15  C   UNL     1      -4.857 -10.651  12.392  0.00  0.00    +0.012 A 
ATOM     16  C   UNL     1      -4.407 -10.180  11.159  0.00  0.00    +0.170 A 
ATOM     17  C   UNL     1      -6.146 -10.342  12.829  0.00  0.00    +0.012 A 
ATOM     19  C   UNL     1      -5.244  -9.401  10.362  0.00  0.00    +0.204 A 
ATOM     20  C   UNL     1      -6.984  -9.563  12.031  0.00  0.00    +0.050 A 
ATOM     21  C   UNL     1      -6.534  -9.092  10.798  0.00  0.00    +0.165 A 
BRANCH  16   3
ATOM      3  O   UNL     1      -3.147 -10.481  10.730  0.00  0.00    -0.491 OA
ATOM     25  C   UNL     1      -2.170  -9.446  10.815  0.00  0.00    +0.277 C 
ENDBRANCH  16   3
BRANCH  19   4
ATOM      4  O   UNL     1      -4.806  -8.939   9.156  0.00  0.00    -0.488 OA
ATOM     29  C   UNL     1      -5.080  -9.749   8.015  0.00  0.00    +0.277 C 
ENDBRANCH  19   4
BRANCH  21   5
ATOM      5  O   UNL     1      -7.363  -8.332  10.030  0.00  0.00    -0.491 OA
ATOM     30  C   UNL     1      -8.693  -8.811   9.843  0.00  0.00    +0.277 C 
ENDBRANCH  21   5
ENDBRANCH  13  15
ENDBRANCH   6  13
TORSDOF 8
ENDMDL
MODEL 4
REMARK VINA RESULT:      -6.1      1.401      2.682
REMARK  Name = 26743868
REMARK  12 active torsions:
REMARK  status: ('A' for Active; 'I' for Inactive)
REMARK    1  A    between atoms: O_1  and  C_11
REMARK    2  A    between atoms: O_3  and  C_16
REMARK    3  A    between atoms: O_3  and  C_25
REMARK    4  A    between atoms: O_4  and  C_19
REMARK    5  A    between atoms: O_4  and  C_29
REMARK    6  A    between atoms: O_5  and  C_21
REMARK    7  A    between atoms: O_5  and  C_30
REMARK    8  A    between atoms: N_6  and  C_13
REMARK    9  A    between atoms: C_9  and  C_14
REMARK   10  A    between atoms: C_13  and  C_15
REMARK   11  A    between atoms: C_18  and  C_22
REMARK   12  A    between atoms: C_26  and  C_31
REMARK                            x       y       z     vdW  Elec       q    Type
REMARK                         _______ _______ _______ _____ _____    ______ ____
ROOT
ATOM      6  N   UNL     1      -3.736 -10.964  14.514  0.00  0.00    -0.284 NA
ATOM      9  C   UNL     1      -4.017 -11.379  15.904  0.00  0.00    +0.149 C 
ATOM     10  C   UNL     1      -2.793 -10.905  16.710  0.00  0.00    +0.061 C 
ATOM     11  C   UNL     1      -1.861 -10.277  15.681  0.00  0.00    +0.130 C 
ATOM     12  C   UNL     1      -2.282 -10.929  14.378  0.00  0.00    +0.116 C 
ENDROOT
BRANCH   9  14
ATOM      2  O   UNL     1      -5.573  -9.510  16.142  0.00  0.00    -0.336 OA
ATOM      7  N   UNL     1      -6.255 -11.401  17.132  0.00  0.00    -0.190 NA
ATOM      8  N   UNL     1      -6.814  -9.220  16.723  0.00  0.00    -0.056 NA
ATOM     14  C   UNL     1      -5.319 -10.814  16.429  0.00  0.00    +0.245 A 
ATOM     18  C   UNL     1      -7.151 -10.383  17.288  0.00  0.00    +0.202 A 
BRANCH  18  22
ATOM     22  C   UNL     1      -8.375 -10.562  18.014  0.00  0.00    +0.023 A 
ATOM     23  C   UNL     1      -8.537 -11.668  18.849  0.00  0.00    +0.015 A 
ATOM     24  C   UNL     1      -9.405  -9.629  17.884  0.00  0.00    +0.012 A 
ATOM     26  C   UNL     1      -9.727 -11.841  19.555  0.00  0.00    -0.050 A 
ATOM     27  C   UNL     1     -10.596  -9.804  18.591  0.00  0.00    +0.001 A 
ATOM     28  C   UNL     1     -10.756 -10.909  19.426  0.00  0.00    +0.003 A 
ATOM     31  C   UNL     1      -9.899 -13.022  20.448  0.00  0.00    +0.044 C 
ENDBRANCH  18  22
ENDBRANCH   9  14
BRANCH  11   1
ATOM      1  O   UNL     1      -0.510 -10.552  15.995  0.00  0.00    -0.390 OA
ATOM     32  H   UNL     1      -0.012  -9.723  15.895  0.00  0.00    +0.210 HD
ENDBRANCH  11   1
BRANCH   6  13
ATOM     13  C   UNL     1      -4.359 -11.828  13.519  0.00  0.00    +0.124 C 
BRANCH  13  15
ATOM     15  C   UNL     1      -4.488 -11.144  12.184  0.00  0.00    +0.012 A 
ATOM     16  C   UNL     1      -5.420 -10.124  11.992  0.00  0.00    +0.170 A 
ATOM     17  C   UNL     1      -3.662 -11.541  11.132  0.00  0.00    +0.012 A 
ATOM     19  C   UNL     1      -5.526  -9.500  10.750  0.00  0.00    +0.204 A 
ATOM     20  C   UNL     1      -3.768 -10.917   9.889  0.00  0.00    +0.050 A 
ATOM     21  C   UNL     1      -4.700  -9.897   9.697  0.00  0.00    +0.165 A 
BRANCH  16   3
ATOM      3  O   UNL     1      -6.228  -9.733  13.020  0.00  0.00    -0.491 OA
ATOM     25  C   UNL     1      -7.420 -10.486  13.227  0.00  0.00    +0.277 C 
ENDBRANCH  16   3
BRANCH  19   4
ATOM      4  O   UNL     1      -6.437  -8.504  10.560  0.00  0.00    -0.488 OA
ATOM     29  C   UNL     1      -7.696  -8.877  10.003  0.00  0.00    +0.277 C 
ENDBRANCH  19   4
BRANCH  21   5
ATOM      5  O   UNL     1      -4.793  -9.298   8.478  0.00  0.00    -0.491 OA
ATOM     30  C   UNL     1      -5.310 -10.085   7.407  0.00  0.00    +0.277 C 
ENDBRANCH  21   5
ENDBRANCH  13  15
ENDBRANCH   6  13
TORSDOF 8
ENDMDL
MODEL 5
REMARK VINA RESULT:      -6.1     19.442     20.978
REMARK  Name = 26743868
REMARK  12 active torsions:
REMARK  status: ('A' for Active; 'I' for Inactive)
REMARK    1  A    between atoms: O_1  and  C_11
REMARK    2  A    between atoms: O_3  and  C_16
REMARK    3  A    between atoms: O_3  and  C_25
REMARK    4  A    between atoms: O_4  and  C_19
REMARK    5  A    between atoms: O_4  and  C_29
REMARK    6  A    between atoms: O_5  and  C_21
REMARK    7  A    between atoms: O_5  and  C_30
REMARK    8  A    between atoms: N_6  and  C_13
REMARK    9  A    between atoms: C_9  and  C_14
REMARK   10  A    between atoms: C_13  and  C_15
REMARK   11  A    between atoms: C_18  and  C_22
REMARK   12  A    between atoms: C_26  and  C_31
REMARK                            x       y       z     vdW  Elec       q    Type
REMARK                         _______ _______ _______ _____ _____    ______ ____
ROOT
ATOM      6  N   UNL     1     -15.447   5.597  21.833  0.00  0.00    -0.284 NA
ATOM      9  C   UNL     1     -16.731   5.271  22.488  0.00  0.00    +0.149 C 
ATOM     10  C   UNL     1     -17.675   4.886  21.334  0.00  0.00    +0.061 C 
ATOM     11  C   UNL     1     -16.846   5.069  20.069  0.00  0.00    +0.130 C 
ATOM     12  C   UNL     1     -15.775   6.059  20.486  0.00  0.00    +0.116 C 
ENDROOT
BRANCH   9  14
ATOM      2  O   UNL     1     -16.417   2.914  23.052  0.00  0.00    -0.336 OA
ATOM      7  N   UNL     1     -16.624   4.261  24.831  0.00  0.00    -0.190 NA
ATOM      8  N   UNL     1     -16.319   2.089  24.180  0.00  0.00    -0.056 NA
ATOM     14  C   UNL     1     -16.595   4.176  23.525  0.00  0.00    +0.245 A 
ATOM     18  C   UNL     1     -16.451   2.955  25.188  0.00  0.00    +0.202 A 
BRANCH  18  22
ATOM     22  C   UNL     1     -16.414   2.550  26.563  0.00  0.00    +0.023 A 
ATOM     23  C   UNL     1     -15.891   3.407  27.531  0.00  0.00    +0.015 A 
ATOM     24  C   UNL     1     -16.902   1.295  26.933  0.00  0.00    +0.012 A 
ATOM     26  C   UNL     1     -15.856   3.013  28.868  0.00  0.00    -0.050 A 
ATOM     27  C   UNL     1     -16.866   0.901  28.271  0.00  0.00    +0.001 A 
ATOM     28  C   UNL     1     -16.344   1.759  29.238  0.00  0.00    +0.003 A 
ATOM     31  C   UNL     1     -15.298   3.930  29.903  0.00  0.00    +0.044 C 
ENDBRANCH  18  22
ENDBRANCH   9  14
BRANCH  11   1
ATOM      1  O   UNL     1     -17.644   5.572  19.015  0.00  0.00    -0.390 OA
ATOM     32  H   UNL     1     -17.537   6.538  19.002  0.00  0.00    +0.210 HD
ENDBRANCH  11   1
BRANCH   6  13
ATOM     13  C   UNL     1     -14.658   6.575  22.571  0.00  0.00    +0.124 C 
BRANCH  13  15
ATOM     15  C   UNL     1     -13.589   7.196  21.710  0.00  0.00    +0.012 A 
ATOM     16  C   UNL     1     -13.617   8.558  21.410  0.00  0.00    +0.170 A 
ATOM     17  C   UNL     1     -12.563   6.393  21.210  0.00  0.00    +0.012 A 
ATOM     19  C   UNL     1     -12.620   9.117  20.612  0.00  0.00    +0.204 A 
ATOM     20  C   UNL     1     -11.566   6.952  20.413  0.00  0.00    +0.050 A 
ATOM     21  C   UNL     1     -11.594   8.314  20.113  0.00  0.00    +0.165 A 
BRANCH  16   3
ATOM      3  O   UNL     1     -14.618   9.346  21.898  0.00  0.00    -0.491 OA
ATOM     25  C   UNL     1     -14.364  10.029  23.123  0.00  0.00    +0.277 C 
ENDBRANCH  16   3
BRANCH  19   4
ATOM      4  O   UNL     1     -12.646  10.448  20.317  0.00  0.00    -0.488 OA
ATOM     29  C   UNL     1     -13.395  10.841  19.169  0.00  0.00    +0.277 C 
ENDBRANCH  19   4
BRANCH  21   5
ATOM      5  O   UNL     1     -10.613   8.846  19.331  0.00  0.00    -0.491 OA
ATOM     30  C   UNL     1     -10.677   8.569  17.934  0.00  0.00    +0.277 C 
ENDBRANCH  21   5
ENDBRANCH  13  15
ENDBRANCH   6  13
TORSDOF 8
ENDMDL
MODEL 6
REMARK VINA RESULT:      -6.1      2.348      4.353
REMARK  Name = 26743868
REMARK  12 active torsions:
REMARK  status: ('A' for Active; 'I' for Inactive)
REMARK    1  A    between atoms: O_1  and  C_11
REMARK    2  A    between atoms: O_3  and  C_16
REMARK    3  A    between atoms: O_3  and  C_25
REMARK    4  A    between atoms: O_4  and  C_19
REMARK    5  A    between atoms: O_4  and  C_29
REMARK    6  A    between atoms: O_5  and  C_21
REMARK    7  A    between atoms: O_5  and  C_30
REMARK    8  A    between atoms: N_6  and  C_13
REMARK    9  A    between atoms: C_9  and  C_14
REMARK   10  A    between atoms: C_13  and  C_15
REMARK   11  A    between atoms: C_18  and  C_22
REMARK   12  A    between atoms: C_26  and  C_31
REMARK                            x       y       z     vdW  Elec       q    Type
REMARK                         _______ _______ _______ _____ _____    ______ ____
ROOT
ATOM      6  N   UNL     1      -6.358 -11.371  17.381  0.00  0.00    -0.284 NA
ATOM      9  C   UNL     1      -7.730 -11.622  17.869  0.00  0.00    +0.149 C 
ATOM     10  C   UNL     1      -7.702 -11.204  19.351  0.00  0.00    +0.061 C 
ATOM     11  C   UNL     1      -6.263 -10.776  19.614  0.00  0.00    +0.130 C 
ATOM     12  C   UNL     1      -5.476 -11.501  18.539  0.00  0.00    +0.116 C 
ENDROOT
BRANCH   9  14
ATOM      2  O   UNL     1      -9.566 -11.630  16.257  0.00  0.00    -0.336 OA
ATOM      7  N   UNL     1      -9.045  -9.596  17.041  0.00  0.00    -0.190 NA
ATOM      8  N   UNL     1     -10.444 -10.734  15.632  0.00  0.00    -0.056 NA
ATOM     14  C   UNL     1      -8.778 -10.878  17.070  0.00  0.00    +0.245 A 
ATOM     18  C   UNL     1     -10.074  -9.557  16.144  0.00  0.00    +0.202 A 
BRANCH  18  22
ATOM     22  C   UNL     1     -10.711  -8.324  15.784  0.00  0.00    +0.023 A 
ATOM     23  C   UNL     1     -11.373  -8.211  14.561  0.00  0.00    +0.015 A 
ATOM     24  C   UNL     1     -10.667  -7.236  16.657  0.00  0.00    +0.012 A 
ATOM     26  C   UNL     1     -11.992  -7.011  14.211  0.00  0.00    -0.050 A 
ATOM     27  C   UNL     1     -11.287  -6.036  16.306  0.00  0.00    +0.001 A 
ATOM     28  C   UNL     1     -11.950  -5.924  15.084  0.00  0.00    +0.003 A 
ATOM     31  C   UNL     1     -12.701  -6.890  12.905  0.00  0.00    +0.044 C 
ENDBRANCH  18  22
ENDBRANCH   9  14
BRANCH  11   1
ATOM      1  O   UNL     1      -5.856 -11.159  20.912  0.00  0.00    -0.390 OA
ATOM     32  H   UNL     1      -5.879 -12.130  20.952  0.00  0.00    +0.210 HD
ENDBRANCH  11   1
BRANCH   6  13
ATOM     13  C   UNL     1      -5.966 -12.256  16.292  0.00  0.00    +0.124 C 
BRANCH  13  15
ATOM     15  C   UNL     1      -5.643 -11.490  15.036  0.00  0.00    +0.012 A 
ATOM     16  C   UNL     1      -4.320 -11.274  14.651  0.00  0.00    +0.170 A 
ATOM     17  C   UNL     1      -6.687 -10.993  14.253  0.00  0.00    +0.012 A 
ATOM     19  C   UNL     1      -4.039 -10.563  13.485  0.00  0.00    +0.204 A 
ATOM     20  C   UNL     1      -6.406 -10.282  13.087  0.00  0.00    +0.050 A 
ATOM     21  C   UNL     1      -5.083 -10.066  12.703  0.00  0.00    +0.165 A 
BRANCH  16   3
ATOM      3  O   UNL     1      -3.299 -11.760  15.413  0.00  0.00    -0.491 OA
ATOM     25  C   UNL     1      -2.657 -10.842  16.296  0.00  0.00    +0.277 C 
ENDBRANCH  16   3
BRANCH  19   4
ATOM      4  O   UNL     1      -2.746 -10.351  13.108  0.00  0.00    -0.488 OA
ATOM     29  C   UNL     1      -2.144 -11.342  12.278  0.00  0.00    +0.277 C 
ENDBRANCH  19   4
BRANCH  21   5
ATOM      5  O   UNL     1      -4.824  -9.369  11.562  0.00  0.00    -0.491 OA
ATOM     30  C   UNL     1      -5.161  -9.998  10.328  0.00  0.00    +0.277 C 
ENDBRANCH  21   5
ENDBRANCH  13  15
ENDBRANCH   6  13
TORSDOF 8
ENDMDL
MODEL 7
REMARK VINA RESULT:      -6.1     24.751     27.211
REMARK  Name = 26743868
REMARK  12 active torsions:
REMARK  status: ('A' for Active; 'I' for Inactive)
REMARK    1  A    between atoms: O_1  and  C_11
REMARK    2  A    between atoms: O_3  and  C_16
REMARK    3  A    between atoms: O_3  and  C_25
REMARK    4  A    between atoms: O_4  and  C_19
REMARK    5  A    between atoms: O_4  and  C_29
REMARK    6  A    between atoms: O_5  and  C_21
REMARK    7  A    between atoms: O_5  and  C_30
REMARK    8  A    between atoms: N_6  and  C_13
REMARK    9  A    between atoms: C_9  and  C_14
REMARK   10  A    between atoms: C_13  and  C_15
REMARK   11  A    between atoms: C_18  and  C_22
REMARK   12  A    between atoms: C_26  and  C_31
REMARK                            x       y       z     vdW  Elec       q    Type
REMARK                         _______ _______ _______ _____ _____    ______ ____
ROOT
ATOM      6  N   UNL     1      10.328   5.601   6.099  0.00  0.00    -0.284 NA
ATOM      9  C   UNL     1      10.120   6.778   6.967  0.00  0.00    +0.149 C 
ATOM     10  C   UNL     1       9.993   6.201   8.388  0.00  0.00    +0.061 C 
ATOM     11  C   UNL     1      10.097   4.691   8.212  0.00  0.00    +0.130 C 
ATOM     12  C   UNL     1       9.684   4.473   6.769  0.00  0.00    +0.116 C 
ENDROOT
BRANCH   9  14
ATOM      2  O   UNL     1      10.873   9.103   6.936  0.00  0.00    -0.336 OA
ATOM      7  N   UNL     1      12.516   7.605   6.660  0.00  0.00    -0.190 NA
ATOM      8  N   UNL     1      12.055   9.842   6.796  0.00  0.00    -0.056 NA
ATOM     14  C   UNL     1      11.234   7.796   6.845  0.00  0.00    +0.245 A 
ATOM     18  C   UNL     1      12.978   8.890   6.637  0.00  0.00    +0.202 A 
BRANCH  18  22
ATOM     22  C   UNL     1      14.369   9.186   6.453  0.00  0.00    +0.023 A 
ATOM     23  C   UNL     1      14.837  10.487   6.642  0.00  0.00    +0.015 A 
ATOM     24  C   UNL     1      15.254   8.173   6.084  0.00  0.00    +0.012 A 
ATOM     26  C   UNL     1      16.190  10.774   6.463  0.00  0.00    -0.050 A 
ATOM     27  C   UNL     1      16.608   8.461   5.905  0.00  0.00    +0.001 A 
ATOM     28  C   UNL     1      17.076   9.761   6.095  0.00  0.00    +0.003 A 
ATOM     31  C   UNL     1      16.691  12.164   6.665  0.00  0.00    +0.044 C 
ENDBRANCH  18  22
ENDBRANCH   9  14
BRANCH  11   1
ATOM      1  O   UNL     1       9.236   4.020   9.112  0.00  0.00    -0.390 OA
ATOM     32  H   UNL     1       8.356   3.984   8.702  0.00  0.00    +0.210 HD
ENDBRANCH  11   1
BRANCH   6  13
ATOM     13  C   UNL     1       9.828   5.791   4.743  0.00  0.00    +0.124 C 
BRANCH  13  15
ATOM     15  C   UNL     1      10.848   5.393   3.709  0.00  0.00    +0.012 A 
ATOM     16  C   UNL     1      11.734   6.333   3.183  0.00  0.00    +0.170 A 
ATOM     17  C   UNL     1      10.899   4.067   3.276  0.00  0.00    +0.012 A 
ATOM     19  C   UNL     1      12.673   5.948   2.226  0.00  0.00    +0.204 A 
ATOM     20  C   UNL     1      11.837   3.683   2.319  0.00  0.00    +0.050 A 
ATOM     21  C   UNL     1      12.724   4.622   1.793  0.00  0.00    +0.165 A 
BRANCH  16   3
ATOM      3  O   UNL     1      11.687   7.629   3.605  0.00  0.00    -0.491 OA
ATOM     25  C   UNL     1      10.861   8.522   2.862  0.00  0.00    +0.277 C 
ENDBRANCH  16   3
BRANCH  19   4
ATOM      4  O   UNL     1      13.540   6.866   1.711  0.00  0.00    -0.488 OA
ATOM     29  C   UNL     1      14.740   7.102   2.443  0.00  0.00    +0.277 C 
ENDBRANCH  19   4
BRANCH  21   5
ATOM      5  O   UNL     1      13.634   4.232   0.858  0.00  0.00    -0.491 OA
ATOM     30  C   UNL     1      14.803   3.566   1.331  0.00  0.00    +0.277 C 
ENDBRANCH  21   5
ENDBRANCH  13  15
ENDBRANCH   6  13
TORSDOF 8
ENDMDL
MODEL 8
REMARK VINA RESULT:      -6.1     23.503     25.858
REMARK  Name = 26743868
REMARK  12 active torsions:
REMARK  status: ('A' for Active; 'I' for Inactive)
REMARK    1  A    between atoms: O_1  and  C_11
REMARK    2  A    between atoms: O_3  and  C_16
REMARK    3  A    between atoms: O_3  and  C_25
REMARK    4  A    between atoms: O_4  and  C_19
REMARK    5  A    between atoms: O_4  and  C_29
REMARK    6  A    between atoms: O_5  and  C_21
REMARK    7  A    between atoms: O_5  and  C_30
REMARK    8  A    between atoms: N_6  and  C_13
REMARK    9  A    between atoms: C_9  and  C_14
REMARK   10  A    between atoms: C_13  and  C_15
REMARK   11  A    between atoms: C_18  and  C_22
REMARK   12  A    between atoms: C_26  and  C_31
REMARK                            x       y       z     vdW  Elec       q    Type
REMARK                         _______ _______ _______ _____ _____    ______ ____
ROOT
ATOM      6  N   UNL     1       8.164   9.437   2.920  0.00  0.00    -0.284 NA
ATOM      9  C   UNL     1       7.978  10.092   4.231  0.00  0.00    +0.149 C 
ATOM     10  C   UNL     1       6.479  10.439   4.288  0.00  0.00    +0.061 C 
ATOM     11  C   UNL     1       5.917   9.982   2.947  0.00  0.00    +0.130 C 
ATOM     12  C   UNL     1       7.131   9.975   2.038  0.00  0.00    +0.116 C 
ENDROOT
BRANCH   9  14
ATOM      2  O   UNL     1       8.775   9.864   6.530  0.00  0.00    -0.336 OA
ATOM      7  N   UNL     1       8.521   7.916   5.452  0.00  0.00    -0.190 NA
ATOM      8  N   UNL     1       9.142   8.864   7.439  0.00  0.00    -0.056 NA
ATOM     14  C   UNL     1       8.422   9.220   5.386  0.00  0.00    +0.245 A 
ATOM     18  C   UNL     1       8.967   7.745   6.731  0.00  0.00    +0.202 A 
BRANCH  18  22
ATOM     22  C   UNL     1       9.226   6.442   7.269  0.00  0.00    +0.023 A 
ATOM     23  C   UNL     1       8.999   6.186   8.622  0.00  0.00    +0.015 A 
ATOM     24  C   UNL     1       9.707   5.428   6.439  0.00  0.00    +0.012 A 
ATOM     26  C   UNL     1       9.252   4.918   9.145  0.00  0.00    -0.050 A 
ATOM     27  C   UNL     1       9.959   4.159   6.963  0.00  0.00    +0.001 A 
ATOM     28  C   UNL     1       9.731   3.904   8.315  0.00  0.00    +0.003 A 
ATOM     31  C   UNL     1       9.008   4.644  10.590  0.00  0.00    +0.044 C 
ENDBRANCH  18  22
ENDBRANCH   9  14
BRANCH  11   1
ATOM      1  O   UNL     1       4.922  10.877   2.489  0.00  0.00    -0.390 OA
ATOM     32  H   UNL     1       4.358  11.101   3.249  0.00  0.00    +0.210 HD
ENDBRANCH  11   1
BRANCH   6  13
ATOM     13  C   UNL     1       9.502   9.619   2.371  0.00  0.00    +0.124 C 
BRANCH  13  15
ATOM     15  C   UNL     1      10.234   8.310   2.232  0.00  0.00    +0.012 A 
ATOM     16  C   UNL     1      11.499   8.137   2.793  0.00  0.00    +0.170 A 
ATOM     17  C   UNL     1       9.632   7.264   1.531  0.00  0.00    +0.012 A 
ATOM     19  C   UNL     1      12.163   6.919   2.655  0.00  0.00    +0.204 A 
ATOM     20  C   UNL     1      10.296   6.045   1.393  0.00  0.00    +0.050 A 
ATOM     21  C   UNL     1      11.561   5.872   1.954  0.00  0.00    +0.165 A 
BRANCH  16   3
ATOM      3  O   UNL     1      12.089   9.158   3.479  0.00  0.00    -0.491 OA
ATOM     25  C   UNL     1      12.008   9.112   4.902  0.00  0.00    +0.277 C 
ENDBRANCH  16   3
BRANCH  19   4
ATOM      4  O   UNL     1      13.400   6.748   3.202  0.00  0.00    -0.488 OA
ATOM     29  C   UNL     1      14.520   7.055   2.375  0.00  0.00    +0.277 C 
ENDBRANCH  19   4
BRANCH  21   5
ATOM      5  O   UNL     1      12.198   4.677   1.811  0.00  0.00    -0.491 OA
ATOM     30  C   UNL     1      11.589   3.541   2.423  0.00  0.00    +0.277 C 
ENDBRANCH  21   5
ENDBRANCH  13  15
ENDBRANCH   6  13
TORSDOF 8
ENDMDL
MODEL 9
REMARK VINA RESULT:      -6.0     24.246     26.807
REMARK  Name = 26743868
REMARK  12 active torsions:
REMARK  status: ('A' for Active; 'I' for Inactive)
REMARK    1  A    between atoms: O_1  and  C_11
REMARK    2  A    between atoms: O_3  and  C_16
REMARK    3  A    between atoms: O_3  and  C_25
REMARK    4  A    between atoms: O_4  and  C_19
REMARK    5  A    between atoms: O_4  and  C_29
REMARK    6  A    between atoms: O_5  and  C_21
REMARK    7  A    between atoms: O_5  and  C_30
REMARK    8  A    between atoms: N_6  and  C_13
REMARK    9  A    between atoms: C_9  and  C_14
REMARK   10  A    between atoms: C_13  and  C_15
REMARK   11  A    between atoms: C_18  and  C_22
REMARK   12  A    between atoms: C_26  and  C_31
REMARK                            x       y       z     vdW  Elec       q    Type
REMARK                         _______ _______ _______ _____ _____    ______ ____
ROOT
ATOM      6  N   UNL     1      13.359   4.082  -0.186  0.00  0.00    -0.284 NA
ATOM      9  C   UNL     1      13.531   4.001   1.280  0.00  0.00    +0.149 C 
ATOM     10  C   UNL     1      14.747   4.897   1.583  0.00  0.00    +0.061 C 
ATOM     11  C   UNL     1      15.216   5.400   0.223  0.00  0.00    +0.130 C 
ATOM     12  C   UNL     1      14.681   4.359  -0.743  0.00  0.00    +0.116 C 
ENDROOT
BRANCH   9  14
ATOM      2  O   UNL     1      11.568   3.428   2.617  0.00  0.00    -0.336 OA
ATOM      7  N   UNL     1      11.794   5.621   2.218  0.00  0.00    -0.190 NA
ATOM      8  N   UNL     1      10.485   4.053   3.247  0.00  0.00    -0.056 NA
ATOM     14  C   UNL     1      12.289   4.422   2.036  0.00  0.00    +0.245 A 
ATOM     18  C   UNL     1      10.687   5.343   2.967  0.00  0.00    +0.202 A 
BRANCH  18  22
ATOM     22  C   UNL     1       9.805   6.379   3.418  0.00  0.00    +0.023 A 
ATOM     23  C   UNL     1       9.454   6.461   4.766  0.00  0.00    +0.015 A 
ATOM     24  C   UNL     1       9.297   7.307   2.508  0.00  0.00    +0.012 A 
ATOM     26  C   UNL     1       8.596   7.469   5.205  0.00  0.00    -0.050 A 
ATOM     27  C   UNL     1       8.439   8.316   2.947  0.00  0.00    +0.001 A 
ATOM     28  C   UNL     1       8.089   8.397   4.295  0.00  0.00    +0.003 A 
ATOM     31  C   UNL     1       8.222   7.557   6.645  0.00  0.00    +0.044 C 
ENDBRANCH  18  22
ENDBRANCH   9  14
BRANCH  11   1
ATOM      1  O   UNL     1      16.627   5.483   0.179  0.00  0.00    -0.390 OA
ATOM     32  H   UNL     1      16.980   4.689   0.614  0.00  0.00    +0.210 HD
ENDBRANCH  11   1
BRANCH   6  13
ATOM     13  C   UNL     1      12.763   2.883  -0.761  0.00  0.00    +0.124 C 
BRANCH  13  15
ATOM     15  C   UNL     1      12.115   3.163  -2.091  0.00  0.00    +0.012 A 
ATOM     16  C   UNL     1      10.834   3.711  -2.159  0.00  0.00    +0.170 A 
ATOM     17  C   UNL     1      12.810   2.868  -3.264  0.00  0.00    +0.012 A 
ATOM     19  C   UNL     1      10.248   3.964  -3.399  0.00  0.00    +0.204 A 
ATOM     20  C   UNL     1      12.225   3.121  -4.504  0.00  0.00    +0.050 A 
ATOM     21  C   UNL     1      10.944   3.669  -4.572  0.00  0.00    +0.165 A 
BRANCH  16   3
ATOM      3  O   UNL     1      10.152   4.002  -1.014  0.00  0.00    -0.491 OA
ATOM     25  C   UNL     1      10.066   5.376  -0.644  0.00  0.00    +0.277 C 
ENDBRANCH  16   3
BRANCH  19   4
ATOM      4  O   UNL     1       8.996   4.499  -3.467  0.00  0.00    -0.488 OA
ATOM     29  C   UNL     1       8.897   5.864  -3.869  0.00  0.00    +0.277 C 
ENDBRANCH  19   4
BRANCH  21   5
ATOM      5  O   UNL     1      10.384   3.910  -5.791  0.00  0.00    -0.491 OA
ATOM     30  C   UNL     1       9.715   2.820  -6.423  0.00  0.00    +0.277 C 
ENDBRANCH  21   5
ENDBRANCH  13  15
ENDBRANCH   6  13
TORSDOF 8
ENDMDL
MODEL 10
REMARK VINA RESULT:      -6.0      1.914      3.107
REMARK  Name = 26743868
REMARK  12 active torsions:
REMARK  status: ('A' for Active; 'I' for Inactive)
REMARK    1  A    between atoms: O_1  and  C_11
REMARK    2  A    between atoms: O_3  and  C_16
REMARK    3  A    between atoms: O_3  and  C_25
REMARK    4  A    between atoms: O_4  and  C_19
REMARK    5  A    between atoms: O_4  and  C_29
REMARK    6  A    between atoms: O_5  and  C_21
REMARK    7  A    between atoms: O_5  and  C_30
REMARK    8  A    between atoms: N_6  and  C_13
REMARK    9  A    between atoms: C_9  and  C_14
REMARK   10  A    between atoms: C_13  and  C_15
REMARK   11  A    between atoms: C_18  and  C_22
REMARK   12  A    between atoms: C_26  and  C_31
REMARK                            x       y       z     vdW  Elec       q    Type
REMARK                         _______ _______ _______ _____ _____    ______ ____
ROOT
ATOM      6  N   UNL     1      -5.226 -11.584  16.679  0.00  0.00    -0.284 NA
ATOM      9  C   UNL     1      -6.201 -11.867  17.752  0.00  0.00    +0.149 C 
ATOM     10  C   UNL     1      -5.391 -11.753  19.058  0.00  0.00    +0.061 C 
ATOM     11  C   UNL     1      -3.966 -11.448  18.613  0.00  0.00    +0.130 C 
ATOM     12  C   UNL     1      -3.917 -11.980  17.193  0.00  0.00    +0.116 C 
ENDROOT
BRANCH   9  14
ATOM      2  O   UNL     1      -7.145  -9.650  17.349  0.00  0.00    -0.336 OA
ATOM      7  N   UNL     1      -8.648 -11.180  17.996  0.00  0.00    -0.190 NA
ATOM      8  N   UNL     1      -8.380  -8.990  17.391  0.00  0.00    -0.056 NA
ATOM     14  C   UNL     1      -7.392 -10.934  17.718  0.00  0.00    +0.245 A 
ATOM     18  C   UNL     1      -9.215  -9.957  17.781  0.00  0.00    +0.202 A 
BRANCH  18  22
ATOM     22  C   UNL     1     -10.620  -9.736  17.966  0.00  0.00    +0.023 A 
ATOM     23  C   UNL     1     -11.205  -9.961  19.212  0.00  0.00    +0.015 A 
ATOM     24  C   UNL     1     -11.401  -9.297  16.897  0.00  0.00    +0.012 A 
ATOM     26  C   UNL     1     -12.571  -9.746  19.391  0.00  0.00    -0.050 A 
ATOM     27  C   UNL     1     -12.769  -9.081  17.076  0.00  0.00    +0.001 A 
ATOM     28  C   UNL     1     -13.353  -9.305  18.323  0.00  0.00    +0.003 A 
ATOM     31  C   UNL     1     -13.197  -9.985  20.723  0.00  0.00    +0.044 C 
ENDBRANCH  18  22
ENDBRANCH   9  14
BRANCH  11   1
ATOM      1  O   UNL     1      -3.030 -12.098  19.451  0.00  0.00    -0.390 OA
ATOM     32  H   UNL     1      -2.297 -12.403  18.889  0.00  0.00    +0.210 HD
ENDBRANCH  11   1
BRANCH   6  13
ATOM     13  C   UNL     1      -5.545 -12.252  15.423  0.00  0.00    +0.124 C 
BRANCH  13  15
ATOM     15  C   UNL     1      -5.690 -11.272  14.289  0.00  0.00    +0.012 A 
ATOM     16  C   UNL     1      -4.620 -11.005  13.436  0.00  0.00    +0.170 A 
ATOM     17  C   UNL     1      -6.913 -10.629  14.096  0.00  0.00    +0.012 A 
ATOM     19  C   UNL     1      -4.771 -10.095  12.390  0.00  0.00    +0.204 A 
ATOM     20  C   UNL     1      -7.065  -9.719  13.050  0.00  0.00    +0.050 A 
ATOM     21  C   UNL     1      -5.994  -9.452  12.197  0.00  0.00    +0.165 A 
BRANCH  16   3
ATOM      3  O   UNL     1      -3.423 -11.633  13.621  0.00  0.00    -0.491 OA
ATOM     25  C   UNL     1      -2.363 -10.855  14.172  0.00  0.00    +0.277 C 
ENDBRANCH  16   3
BRANCH  19   4
ATOM      4  O   UNL     1      -3.725  -9.832  11.555  0.00  0.00    -0.488 OA
ATOM     29  C   UNL     1      -3.628 -10.621  10.372  0.00  0.00    +0.277 C 
ENDBRANCH  19   4
BRANCH  21   5
ATOM      5  O   UNL     1      -6.157  -8.560  11.180  0.00  0.00    -0.491 OA
ATOM     30  C   UNL     1      -7.177  -8.845  10.225  0.00  0.00    +0.277 C 
ENDBRANCH  21   5
ENDBRANCH  13  15
ENDBRANCH   6  13
TORSDOF 8
ENDMDL
