MODEL 1
REMARK VINA RESULT:      -6.3      0.000      0.000
REMARK  Name = 75536380
REMARK  11 active torsions:
REMARK  status: ('A' for Active; 'I' for Inactive)
REMARK    1  A    between atoms: O_2  and  C_9
REMARK    2  A    between atoms: O_4  and  C_27
REMARK    3  A    between atoms: O_4  and  C_31
REMARK    4  A    between atoms: O_5  and  C_28
REMARK    5  A    between atoms: N_6  and  C_13
REMARK    6  A    between atoms: N_6  and  C_16
REMARK    7  A    between atoms: C_8  and  C_13
REMARK    8  A    between atoms: C_10  and  C_14
REMARK    9  A    between atoms: C_14  and  C_15
REMARK   10  A    between atoms: C_16  and  C_18
REMARK   11  A    between atoms: C_19  and  C_20
REMARK                            x       y       z     vdW  Elec       q    Type
REMARK                         _______ _______ _______ _____ _____    ______ ____
ROOT
ATOM      1  O   UNL     1      19.368   7.392  22.249  0.00  0.00    -0.369 OA
ATOM      8  C   UNL     1      19.899   8.587  22.838  0.00  0.00    +0.161 C 
ATOM      9  C   UNL     1      21.432   8.606  22.772  0.00  0.00    +0.145 C 
ATOM     10  C   UNL     1      19.776   7.146  20.901  0.00  0.00    +0.125 C 
ATOM     11  C   UNL     1      21.957   8.296  21.373  0.00  0.00    +0.036 C 
ATOM     12  C   UNL     1      21.297   7.042  20.808  0.00  0.00    +0.034 C 
ENDROOT
BRANCH   9   2
ATOM      2  O   UNL     1      21.944   7.612  23.662  0.00  0.00    -0.389 OA
ATOM     33  H   UNL     1      21.849   6.749  23.225  0.00  0.00    +0.210 HD
ENDBRANCH   9   2
BRANCH   8  13
ATOM     13  C   UNL     1      19.259   9.832  22.230  0.00  0.00    +0.115 C 
BRANCH  13   6
ATOM      6  N   UNL     1      17.808   9.731  22.245  0.00  0.00    -0.309 NA
ATOM     32  H   UNL     1      17.539   8.746  22.208  0.00  0.00    +0.122 HD
BRANCH   6  16
ATOM     16  C   UNL     1      17.223  10.420  21.103  0.00  0.00    +0.116 C 
BRANCH  16  18
ATOM     18  C   UNL     1      15.721  10.479  21.192  0.00  0.00    -0.033 A 
ATOM     21  C   UNL     1      15.000  11.277  20.303  0.00  0.00    +0.008 A 
ATOM     22  C   UNL     1      15.051   9.736  22.163  0.00  0.00    +0.008 A 
ATOM     23  C   UNL     1      13.609  11.331  20.385  0.00  0.00    +0.046 A 
ATOM     24  C   UNL     1      13.660   9.791  22.246  0.00  0.00    +0.046 A 
ATOM     27  C   UNL     1      12.938  10.587  21.357  0.00  0.00    +0.120 A 
BRANCH  27   4
ATOM      4  O   UNL     1      11.581  10.640  21.437  0.00  0.00    -0.495 OA
ATOM     31  C   UNL     1      10.978  10.079  22.602  0.00  0.00    +0.277 C 
ENDBRANCH  27   4
ENDBRANCH  16  18
ENDBRANCH   6  16
ENDBRANCH  13   6
ENDBRANCH   8  13
BRANCH  10  14
ATOM     14  C   UNL     1      19.114   5.848  20.452  0.00  0.00    +0.090 C 
BRANCH  14  15
ATOM      3  O   UNL     1      16.217   5.940  18.308  0.00  0.00    -0.354 OA
ATOM      7  N   UNL     1      17.492   5.493  18.635  0.00  0.00    -0.083 NA
ATOM     15  C   UNL     1      17.787   6.101  19.787  0.00  0.00    +0.087 A 
ATOM     17  C   UNL     1      16.746   6.934  20.232  0.00  0.00    +0.076 A 
ATOM     19  C   UNL     1      15.784   6.798  19.267  0.00  0.00    +0.168 A 
BRANCH  19  20
ATOM     20  C   UNL     1      14.474   7.345  19.067  0.00  0.00    +0.023 A 
ATOM     25  C   UNL     1      13.424   6.963  19.901  0.00  0.00    +0.057 A 
ATOM     26  C   UNL     1      14.250   8.258  18.036  0.00  0.00    +0.012 A 
ATOM     28  C   UNL     1      12.149   7.495  19.704  0.00  0.00    +0.118 A 
ATOM     29  C   UNL     1      12.975   8.788  17.839  0.00  0.00    +0.004 A 
ATOM     30  C   UNL     1      11.925   8.407  18.674  0.00  0.00    +0.045 A 
BRANCH  28   5
ATOM      5  O   UNL     1      11.123   7.122  20.519  0.00  0.00    -0.507 OA
ATOM     34  H   UNL     1      10.945   7.839  21.150  0.00  0.00    +0.292 HD
ENDBRANCH  28   5
ENDBRANCH  19  20
ENDBRANCH  14  15
ENDBRANCH  10  14
TORSDOF 10
ENDMDL
MODEL 2
REMARK VINA RESULT:      -6.0     18.551     21.362
REMARK  Name = 75536380
REMARK  11 active torsions:
REMARK  status: ('A' for Active; 'I' for Inactive)
REMARK    1  A    between atoms: O_2  and  C_9
REMARK    2  A    between atoms: O_4  and  C_27
REMARK    3  A    between atoms: O_4  and  C_31
REMARK    4  A    between atoms: O_5  and  C_28
REMARK    5  A    between atoms: N_6  and  C_13
REMARK    6  A    between atoms: N_6  and  C_16
REMARK    7  A    between atoms: C_8  and  C_13
REMARK    8  A    between atoms: C_10  and  C_14
REMARK    9  A    between atoms: C_14  and  C_15
REMARK   10  A    between atoms: C_16  and  C_18
REMARK   11  A    between atoms: C_19  and  C_20
REMARK                            x       y       z     vdW  Elec       q    Type
REMARK                         _______ _______ _______ _____ _____    ______ ____
ROOT
ATOM      1  O   UNL     1      12.955   2.969   0.598  0.00  0.00    -0.369 OA
ATOM      8  C   UNL     1      13.366   3.710   1.754  0.00  0.00    +0.161 C 
ATOM      9  C   UNL     1      14.815   4.196   1.619  0.00  0.00    +0.145 C 
ATOM     10  C   UNL     1      13.098   3.656  -0.647  0.00  0.00    +0.125 C 
ATOM     11  C   UNL     1      15.072   4.896   0.287  0.00  0.00    +0.036 C 
ATOM     12  C   UNL     1      14.554   4.058  -0.878  0.00  0.00    +0.034 C 
ENDROOT
BRANCH   9   2
ATOM      2  O   UNL     1      15.688   3.067   1.695  0.00  0.00    -0.389 OA
ATOM     33  H   UNL     1      15.462   2.470   0.961  0.00  0.00    +0.210 HD
ENDBRANCH   9   2
BRANCH   8  13
ATOM     13  C   UNL     1      12.384   4.838   2.062  0.00  0.00    +0.115 C 
BRANCH  13   6
ATOM      6  N   UNL     1      11.432   4.434   3.084  0.00  0.00    -0.309 NA
ATOM     32  H   UNL     1      10.750   3.794   2.675  0.00  0.00    +0.122 HD
BRANCH   6  16
ATOM     16  C   UNL     1      10.726   5.587   3.628  0.00  0.00    +0.116 C 
BRANCH  16  18
ATOM     18  C   UNL     1      10.653   5.542   5.131  0.00  0.00    -0.033 A 
ATOM     21  C   UNL     1      11.447   6.397   5.894  0.00  0.00    +0.008 A 
ATOM     22  C   UNL     1       9.789   4.645   5.760  0.00  0.00    +0.008 A 
ATOM     23  C   UNL     1      11.378   6.356   7.287  0.00  0.00    +0.046 A 
ATOM     24  C   UNL     1       9.721   4.603   7.152  0.00  0.00    +0.046 A 
ATOM     27  C   UNL     1      10.515   5.459   7.917  0.00  0.00    +0.120 A 
BRANCH  27   4
ATOM      4  O   UNL     1      10.448   5.419   9.274  0.00  0.00    -0.495 OA
ATOM     31  C   UNL     1       9.338   4.730   9.849  0.00  0.00    +0.277 C 
ENDBRANCH  27   4
ENDBRANCH  16  18
ENDBRANCH   6  16
ENDBRANCH  13   6
ENDBRANCH   8  13
BRANCH  10  14
ATOM     14  C   UNL     1      12.612   2.719  -1.747  0.00  0.00    +0.090 C 
BRANCH  14  15
ATOM      3  O   UNL     1       9.339   3.010  -3.229  0.00  0.00    -0.354 OA
ATOM      7  N   UNL     1      10.424   2.266  -2.779  0.00  0.00    -0.083 NA
ATOM     15  C   UNL     1      11.296   3.170  -2.322  0.00  0.00    +0.087 A 
ATOM     17  C   UNL     1      10.820   4.486  -2.455  0.00  0.00    +0.076 A 
ATOM     19  C   UNL     1       9.587   4.330  -3.029  0.00  0.00    +0.168 A 
BRANCH  19  20
ATOM     20  C   UNL     1       8.549   5.228  -3.445  0.00  0.00    +0.023 A 
ATOM     25  C   UNL     1       7.913   5.039  -4.671  0.00  0.00    +0.057 A 
ATOM     26  C   UNL     1       8.177   6.291  -2.622  0.00  0.00    +0.012 A 
ATOM     28  C   UNL     1       6.905   5.915  -5.075  0.00  0.00    +0.118 A 
ATOM     29  C   UNL     1       7.170   7.166  -3.027  0.00  0.00    +0.004 A 
ATOM     30  C   UNL     1       6.533   6.978  -4.253  0.00  0.00    +0.045 A 
BRANCH  28   5
ATOM      5  O   UNL     1       6.284   5.731  -6.273  0.00  0.00    -0.507 OA
ATOM     34  H   UNL     1       6.714   6.293  -6.941  0.00  0.00    +0.292 HD
ENDBRANCH  28   5
ENDBRANCH  19  20
ENDBRANCH  14  15
ENDBRANCH  10  14
TORSDOF 10
ENDMDL
MODEL 3
REMARK VINA RESULT:      -6.0     14.801     17.942
REMARK  Name = 75536380
REMARK  11 active torsions:
REMARK  status: ('A' for Active; 'I' for Inactive)
REMARK    1  A    between atoms: O_2  and  C_9
REMARK    2  A    between atoms: O_4  and  C_27
REMARK    3  A    between atoms: O_4  and  C_31
REMARK    4  A    between atoms: O_5  and  C_28
REMARK    5  A    between atoms: N_6  and  C_13
REMARK    6  A    between atoms: N_6  and  C_16
REMARK    7  A    between atoms: C_8  and  C_13
REMARK    8  A    between atoms: C_10  and  C_14
REMARK    9  A    between atoms: C_14  and  C_15
REMARK   10  A    between atoms: C_16  and  C_18
REMARK   11  A    between atoms: C_19  and  C_20
REMARK                            x       y       z     vdW  Elec       q    Type
REMARK                         _______ _______ _______ _____ _____    ______ ____
ROOT
ATOM      1  O   UNL     1      13.293   4.797   1.955  0.00  0.00    -0.369 OA
ATOM      8  C   UNL     1      14.608   5.294   1.675  0.00  0.00    +0.161 C 
ATOM      9  C   UNL     1      15.395   4.320   0.788  0.00  0.00    +0.145 C 
ATOM     10  C   UNL     1      12.505   4.481   0.805  0.00  0.00    +0.125 C 
ATOM     11  C   UNL     1      14.602   3.885  -0.441  0.00  0.00    +0.036 C 
ATOM     12  C   UNL     1      13.200   3.425  -0.052  0.00  0.00    +0.034 C 
ENDROOT
BRANCH   9   2
ATOM      2  O   UNL     1      15.701   3.149   1.548  0.00  0.00    -0.389 OA
ATOM     33  H   UNL     1      16.610   2.884   1.325  0.00  0.00    +0.210 HD
ENDBRANCH   9   2
BRANCH   8  13
ATOM     13  C   UNL     1      14.552   6.709   1.106  0.00  0.00    +0.115 C 
BRANCH  13   6
ATOM      6  N   UNL     1      14.359   7.688   2.165  0.00  0.00    -0.309 NA
ATOM     32  H   UNL     1      14.676   7.293   3.051  0.00  0.00    +0.122 HD
BRANCH   6  16
ATOM     16  C   UNL     1      12.954   8.053   2.290  0.00  0.00    +0.116 C 
BRANCH  16  18
ATOM     18  C   UNL     1      12.585   8.384   3.712  0.00  0.00    -0.033 A 
ATOM     21  C   UNL     1      13.188   7.699   4.767  0.00  0.00    +0.008 A 
ATOM     22  C   UNL     1      11.640   9.377   3.974  0.00  0.00    +0.008 A 
ATOM     23  C   UNL     1      12.847   8.007   6.083  0.00  0.00    +0.046 A 
ATOM     24  C   UNL     1      11.298   9.683   5.290  0.00  0.00    +0.046 A 
ATOM     27  C   UNL     1      11.902   9.000   6.346  0.00  0.00    +0.120 A 
BRANCH  27   4
ATOM      4  O   UNL     1      11.569   9.299   7.630  0.00  0.00    -0.495 OA
ATOM     31  C   UNL     1      10.686  10.402   7.832  0.00  0.00    +0.277 C 
ENDBRANCH  27   4
ENDBRANCH  16  18
ENDBRANCH   6  16
ENDBRANCH  13   6
ENDBRANCH   8  13
BRANCH  10  14
ATOM     14  C   UNL     1      11.154   3.977   1.298  0.00  0.00    +0.090 C 
BRANCH  14  15
ATOM      3  O   UNL     1       9.599   6.566   3.267  0.00  0.00    -0.354 OA
ATOM      7  N   UNL     1       9.996   6.013   2.054  0.00  0.00    -0.083 NA
ATOM     15  C   UNL     1      10.590   4.861   2.378  0.00  0.00    +0.087 A 
ATOM     17  C   UNL     1      10.597   4.637   3.766  0.00  0.00    +0.076 A 
ATOM     19  C   UNL     1       9.963   5.737   4.278  0.00  0.00    +0.168 A 
BRANCH  19  20
ATOM     20  C   UNL     1       9.616   6.176   5.598  0.00  0.00    +0.023 A 
ATOM     25  C   UNL     1      10.227   5.596   6.709  0.00  0.00    +0.057 A 
ATOM     26  C   UNL     1       8.666   7.183   5.770  0.00  0.00    +0.012 A 
ATOM     28  C   UNL     1       9.887   6.022   7.993  0.00  0.00    +0.118 A 
ATOM     29  C   UNL     1       8.327   7.609   7.054  0.00  0.00    +0.004 A 
ATOM     30  C   UNL     1       8.938   7.029   8.166  0.00  0.00    +0.045 A 
BRANCH  28   5
ATOM      5  O   UNL     1      10.483   5.455   9.078  0.00  0.00    -0.507 OA
ATOM     34  H   UNL     1      11.229   4.908   8.778  0.00  0.00    +0.292 HD
ENDBRANCH  28   5
ENDBRANCH  19  20
ENDBRANCH  14  15
ENDBRANCH  10  14
TORSDOF 10
ENDMDL
MODEL 4
REMARK VINA RESULT:      -5.6     17.837     21.368
REMARK  Name = 75536380
REMARK  11 active torsions:
REMARK  status: ('A' for Active; 'I' for Inactive)
REMARK    1  A    between atoms: O_2  and  C_9
REMARK    2  A    between atoms: O_4  and  C_27
REMARK    3  A    between atoms: O_4  and  C_31
REMARK    4  A    between atoms: O_5  and  C_28
REMARK    5  A    between atoms: N_6  and  C_13
REMARK    6  A    between atoms: N_6  and  C_16
REMARK    7  A    between atoms: C_8  and  C_13
REMARK    8  A    between atoms: C_10  and  C_14
REMARK    9  A    between atoms: C_14  and  C_15
REMARK   10  A    between atoms: C_16  and  C_18
REMARK   11  A    between atoms: C_19  and  C_20
REMARK                            x       y       z     vdW  Elec       q    Type
REMARK                         _______ _______ _______ _____ _____    ______ ____
ROOT
ATOM      1  O   UNL     1      10.353   7.454   3.245  0.00  0.00    -0.369 OA
ATOM      8  C   UNL     1      10.269   6.799   4.518  0.00  0.00    +0.161 C 
ATOM      9  C   UNL     1       9.291   7.522   5.454  0.00  0.00    +0.145 C 
ATOM     10  C   UNL     1       9.107   7.626   2.567  0.00  0.00    +0.125 C 
ATOM     11  C   UNL     1       7.946   7.798   4.788  0.00  0.00    +0.036 C 
ATOM     12  C   UNL     1       8.138   8.445   3.419  0.00  0.00    +0.034 C 
ENDROOT
BRANCH   9   2
ATOM      2  O   UNL     1       9.858   8.779   5.831  0.00  0.00    -0.389 OA
ATOM     33  H   UNL     1      10.820   8.718   5.700  0.00  0.00    +0.210 HD
ENDBRANCH   9   2
BRANCH   8  13
ATOM     13  C   UNL     1       9.952   5.315   4.353  0.00  0.00    +0.115 C 
BRANCH  13   6
ATOM      6  N   UNL     1      11.163   4.548   4.111  0.00  0.00    -0.309 NA
ATOM     32  H   UNL     1      11.976   5.151   4.246  0.00  0.00    +0.122 HD
BRANCH   6  16
ATOM     16  C   UNL     1      11.188   4.024   2.751  0.00  0.00    +0.116 C 
BRANCH  16  18
ATOM     18  C   UNL     1      12.501   4.301   2.067  0.00  0.00    -0.033 A 
ATOM     21  C   UNL     1      13.148   3.286   1.362  0.00  0.00    +0.008 A 
ATOM     22  C   UNL     1      13.070   5.573   2.139  0.00  0.00    +0.008 A 
ATOM     23  C   UNL     1      14.363   3.543   0.728  0.00  0.00    +0.046 A 
ATOM     24  C   UNL     1      14.286   5.829   1.507  0.00  0.00    +0.046 A 
ATOM     27  C   UNL     1      14.933   4.815   0.800  0.00  0.00    +0.120 A 
BRANCH  27   4
ATOM      4  O   UNL     1      16.118   5.064   0.182  0.00  0.00    -0.495 OA
ATOM     31  C   UNL     1      16.408   4.310  -0.995  0.00  0.00    +0.277 C 
ENDBRANCH  27   4
ENDBRANCH  16  18
ENDBRANCH   6  16
ENDBRANCH  13   6
ENDBRANCH   8  13
BRANCH  10  14
ATOM     14  C   UNL     1       9.396   8.330   1.247  0.00  0.00    +0.090 C 
BRANCH  14  15
ATOM      3  O   UNL     1      11.948   6.973  -0.908  0.00  0.00    -0.354 OA
ATOM      7  N   UNL     1      11.408   7.991  -0.130  0.00  0.00    -0.083 NA
ATOM     15  C   UNL     1      10.264   7.492   0.347  0.00  0.00    +0.087 A 
ATOM     17  C   UNL     1      10.033   6.176  -0.090  0.00  0.00    +0.076 A 
ATOM     19  C   UNL     1      11.120   5.897  -0.875  0.00  0.00    +0.168 A 
BRANCH  19  20
ATOM     20  C   UNL     1      11.547   4.759  -1.635  0.00  0.00    +0.023 A 
ATOM     25  C   UNL     1      10.726   3.637  -1.735  0.00  0.00    +0.057 A 
ATOM     26  C   UNL     1      12.788   4.775  -2.274  0.00  0.00    +0.012 A 
ATOM     28  C   UNL     1      11.144   2.530  -2.473  0.00  0.00    +0.118 A 
ATOM     29  C   UNL     1      13.206   3.667  -3.011  0.00  0.00    +0.004 A 
ATOM     30  C   UNL     1      12.384   2.545  -3.111  0.00  0.00    +0.045 A 
BRANCH  28   5
ATOM      5  O   UNL     1      10.342   1.434  -2.570  0.00  0.00    -0.507 OA
ATOM     34  H   UNL     1       9.498   1.621  -2.122  0.00  0.00    +0.292 HD
ENDBRANCH  28   5
ENDBRANCH  19  20
ENDBRANCH  14  15
ENDBRANCH  10  14
TORSDOF 10
ENDMDL
MODEL 5
REMARK VINA RESULT:      -5.6     28.549     30.431
REMARK  Name = 75536380
REMARK  11 active torsions:
REMARK  status: ('A' for Active; 'I' for Inactive)
REMARK    1  A    between atoms: O_2  and  C_9
REMARK    2  A    between atoms: O_4  and  C_27
REMARK    3  A    between atoms: O_4  and  C_31
REMARK    4  A    between atoms: O_5  and  C_28
REMARK    5  A    between atoms: N_6  and  C_13
REMARK    6  A    between atoms: N_6  and  C_16
REMARK    7  A    between atoms: C_8  and  C_13
REMARK    8  A    between atoms: C_10  and  C_14
REMARK    9  A    between atoms: C_14  and  C_15
REMARK   10  A    between atoms: C_16  and  C_18
REMARK   11  A    between atoms: C_19  and  C_20
REMARK                            x       y       z     vdW  Elec       q    Type
REMARK                         _______ _______ _______ _____ _____    ______ ____
ROOT
ATOM      1  O   UNL     1      -6.812 -11.738  17.207  0.00  0.00    -0.369 OA
ATOM      8  C   UNL     1      -7.878 -11.070  17.896  0.00  0.00    +0.161 C 
ATOM      9  C   UNL     1      -7.569 -10.922  19.392  0.00  0.00    +0.145 C 
ATOM     10  C   UNL     1      -5.523 -11.139  17.356  0.00  0.00    +0.125 C 
ATOM     11  C   UNL     1      -6.181 -10.339  19.643  0.00  0.00    +0.036 C 
ATOM     12  C   UNL     1      -5.123 -11.078  18.829  0.00  0.00    +0.034 C 
ENDROOT
BRANCH   9   2
ATOM      2  O   UNL     1      -7.617 -12.213  20.002  0.00  0.00    -0.389 OA
ATOM     33  H   UNL     1      -8.549 -12.410  20.200  0.00  0.00    +0.210 HD
ENDBRANCH   9   2
BRANCH   8  13
ATOM     13  C   UNL     1      -8.221  -9.744  17.222  0.00  0.00    +0.115 C 
BRANCH  13   6
ATOM      6  N   UNL     1      -9.041  -8.915  18.093  0.00  0.00    -0.309 NA
ATOM     32  H   UNL     1      -8.774  -9.081  19.064  0.00  0.00    +0.122 HD
BRANCH   6  16
ATOM     16  C   UNL     1     -10.455  -9.229  17.935  0.00  0.00    +0.116 C 
BRANCH  16  18
ATOM     18  C   UNL     1     -11.157  -8.227  17.057  0.00  0.00    -0.033 A 
ATOM     21  C   UNL     1     -12.458  -8.473  16.620  0.00  0.00    +0.008 A 
ATOM     22  C   UNL     1     -10.505  -7.052  16.681  0.00  0.00    +0.008 A 
ATOM     23  C   UNL     1     -13.109  -7.545  15.808  0.00  0.00    +0.046 A 
ATOM     24  C   UNL     1     -11.155  -6.124  15.868  0.00  0.00    +0.046 A 
ATOM     27  C   UNL     1     -12.457  -6.369  15.431  0.00  0.00    +0.120 A 
BRANCH  27   4
ATOM      4  O   UNL     1     -13.092  -5.464  14.639  0.00  0.00    -0.495 OA
ATOM     31  C   UNL     1     -12.353  -4.935  13.538  0.00  0.00    +0.277 C 
ENDBRANCH  27   4
ENDBRANCH  16  18
ENDBRANCH   6  16
ENDBRANCH  13   6
ENDBRANCH   8  13
BRANCH  10  14
ATOM     14  C   UNL     1      -4.532 -11.980  16.559  0.00  0.00    +0.090 C 
BRANCH  14  15
ATOM      3  O   UNL     1      -2.944 -10.403  13.734  0.00  0.00    -0.354 OA
ATOM      7  N   UNL     1      -2.918 -10.955  15.010  0.00  0.00    -0.083 NA
ATOM     15  C   UNL     1      -4.178 -11.331  15.248  0.00  0.00    +0.087 A 
ATOM     17  C   UNL     1      -5.033 -11.045  14.170  0.00  0.00    +0.076 A 
ATOM     19  C   UNL     1      -4.209 -10.463  13.245  0.00  0.00    +0.168 A 
BRANCH  19  20
ATOM     20  C   UNL     1      -4.392  -9.929  11.927  0.00  0.00    +0.023 A 
ATOM     25  C   UNL     1      -5.640  -9.443  11.538  0.00  0.00    +0.057 A 
ATOM     26  C   UNL     1      -3.321  -9.897  11.033  0.00  0.00    +0.012 A 
ATOM     28  C   UNL     1      -5.818  -8.926  10.255  0.00  0.00    +0.118 A 
ATOM     29  C   UNL     1      -3.500  -9.380   9.750  0.00  0.00    +0.004 A 
ATOM     30  C   UNL     1      -4.748  -8.894   9.361  0.00  0.00    +0.045 A 
BRANCH  28   5
ATOM      5  O   UNL     1      -7.037  -8.453   9.875  0.00  0.00    -0.507 OA
ATOM     34  H   UNL     1      -7.111  -8.514   8.907  0.00  0.00    +0.292 HD
ENDBRANCH  28   5
ENDBRANCH  19  20
ENDBRANCH  14  15
ENDBRANCH  10  14
TORSDOF 10
ENDMDL
MODEL 6
REMARK VINA RESULT:      -5.5      1.608      2.312
REMARK  Name = 75536380
REMARK  11 active torsions:
REMARK  status: ('A' for Active; 'I' for Inactive)
REMARK    1  A    between atoms: O_2  and  C_9
REMARK    2  A    between atoms: O_4  and  C_27
REMARK    3  A    between atoms: O_4  and  C_31
REMARK    4  A    between atoms: O_5  and  C_28
REMARK    5  A    between atoms: N_6  and  C_13
REMARK    6  A    between atoms: N_6  and  C_16
REMARK    7  A    between atoms: C_8  and  C_13
REMARK    8  A    between atoms: C_10  and  C_14
REMARK    9  A    between atoms: C_14  and  C_15
REMARK   10  A    between atoms: C_16  and  C_18
REMARK   11  A    between atoms: C_19  and  C_20
REMARK                            x       y       z     vdW  Elec       q    Type
REMARK                         _______ _______ _______ _____ _____    ______ ____
ROOT
ATOM      1  O   UNL     1      19.600   7.386  22.310  0.00  0.00    -0.369 OA
ATOM      8  C   UNL     1      20.091   8.596  22.901  0.00  0.00    +0.161 C 
ATOM      9  C   UNL     1      21.625   8.634  22.902  0.00  0.00    +0.145 C 
ATOM     10  C   UNL     1      20.069   7.123  20.985  0.00  0.00    +0.125 C 
ATOM     11  C   UNL     1      22.215   8.308  21.532  0.00  0.00    +0.036 C 
ATOM     12  C   UNL     1      21.594   7.036  20.960  0.00  0.00    +0.034 C 
ENDROOT
BRANCH   9   2
ATOM      2  O   UNL     1      22.110   7.661  23.829  0.00  0.00    -0.389 OA
ATOM     33  H   UNL     1      22.602   8.135  24.522  0.00  0.00    +0.210 HD
ENDBRANCH   9   2
BRANCH   8  13
ATOM     13  C   UNL     1      19.463   9.823  22.246  0.00  0.00    +0.115 C 
BRANCH  13   6
ATOM      6  N   UNL     1      18.021   9.832  22.434  0.00  0.00    -0.309 NA
ATOM     32  H   UNL     1      17.591   9.187  21.769  0.00  0.00    +0.122 HD
BRANCH   6  16
ATOM     16  C   UNL     1      17.473  11.164  22.216  0.00  0.00    +0.116 C 
BRANCH  16  18
ATOM     18  C   UNL     1      16.750  11.265  20.899  0.00  0.00    -0.033 A 
ATOM     21  C   UNL     1      17.158  12.201  19.949  0.00  0.00    +0.008 A 
ATOM     22  C   UNL     1      15.672  10.422  20.630  0.00  0.00    +0.008 A 
ATOM     23  C   UNL     1      16.489  12.294  18.729  0.00  0.00    +0.046 A 
ATOM     24  C   UNL     1      15.002  10.516  19.410  0.00  0.00    +0.046 A 
ATOM     27  C   UNL     1      15.410  11.451  18.459  0.00  0.00    +0.120 A 
BRANCH  27   4
ATOM      4  O   UNL     1      14.758  11.542  17.269  0.00  0.00    -0.495 OA
ATOM     31  C   UNL     1      14.419  10.317  16.620  0.00  0.00    +0.277 C 
ENDBRANCH  27   4
ENDBRANCH  16  18
ENDBRANCH   6  16
ENDBRANCH  13   6
ENDBRANCH   8  13
BRANCH  10  14
ATOM     14  C   UNL     1      19.444   5.810  20.529  0.00  0.00    +0.090 C 
BRANCH  14  15
ATOM      3  O   UNL     1      16.338   5.904  18.702  0.00  0.00    -0.354 OA
ATOM      7  N   UNL     1      17.681   5.569  18.828  0.00  0.00    -0.083 NA
ATOM     15  C   UNL     1      18.033   6.005  20.041  0.00  0.00    +0.087 A 
ATOM     17  C   UNL     1      16.964   6.616  20.719  0.00  0.00    +0.076 A 
ATOM     19  C   UNL     1      15.923   6.527  19.835  0.00  0.00    +0.168 A 
BRANCH  19  20
ATOM     20  C   UNL     1      14.548   6.933  19.853  0.00  0.00    +0.023 A 
ATOM     25  C   UNL     1      13.836   7.041  18.660  0.00  0.00    +0.057 A 
ATOM     26  C   UNL     1      13.924   7.223  21.067  0.00  0.00    +0.012 A 
ATOM     28  C   UNL     1      12.499   7.438  18.679  0.00  0.00    +0.118 A 
ATOM     29  C   UNL     1      12.588   7.621  21.086  0.00  0.00    +0.004 A 
ATOM     30  C   UNL     1      11.875   7.728  19.892  0.00  0.00    +0.045 A 
BRANCH  28   5
ATOM      5  O   UNL     1      11.804   7.544  17.513  0.00  0.00    -0.507 OA
ATOM     34  H   UNL     1      11.689   8.486  17.299  0.00  0.00    +0.292 HD
ENDBRANCH  28   5
ENDBRANCH  19  20
ENDBRANCH  14  15
ENDBRANCH  10  14
TORSDOF 10
ENDMDL
MODEL 7
REMARK VINA RESULT:      -5.5     15.014     18.478
REMARK  Name = 75536380
REMARK  11 active torsions:
REMARK  status: ('A' for Active; 'I' for Inactive)
REMARK    1  A    between atoms: O_2  and  C_9
REMARK    2  A    between atoms: O_4  and  C_27
REMARK    3  A    between atoms: O_4  and  C_31
REMARK    4  A    between atoms: O_5  and  C_28
REMARK    5  A    between atoms: N_6  and  C_13
REMARK    6  A    between atoms: N_6  and  C_16
REMARK    7  A    between atoms: C_8  and  C_13
REMARK    8  A    between atoms: C_10  and  C_14
REMARK    9  A    between atoms: C_14  and  C_15
REMARK   10  A    between atoms: C_16  and  C_18
REMARK   11  A    between atoms: C_19  and  C_20
REMARK                            x       y       z     vdW  Elec       q    Type
REMARK                         _______ _______ _______ _____ _____    ______ ____
ROOT
ATOM      1  O   UNL     1      10.761   7.386   5.554  0.00  0.00    -0.369 OA
ATOM      8  C   UNL     1      11.199   7.637   6.896  0.00  0.00    +0.161 C 
ATOM      9  C   UNL     1      10.055   8.176   7.764  0.00  0.00    +0.145 C 
ATOM     10  C   UNL     1       9.639   6.510   5.435  0.00  0.00    +0.125 C 
ATOM     11  C   UNL     1       8.792   7.327   7.653  0.00  0.00    +0.036 C 
ATOM     12  C   UNL     1       8.435   7.068   6.192  0.00  0.00    +0.034 C 
ENDROOT
BRANCH   9   2
ATOM      2  O   UNL     1       9.732   9.499   7.331  0.00  0.00    -0.389 OA
ATOM     33  H   UNL     1       9.808  10.088   8.101  0.00  0.00    +0.210 HD
ENDBRANCH   9   2
BRANCH   8  13
ATOM     13  C   UNL     1      11.874   6.405   7.493  0.00  0.00    +0.115 C 
BRANCH  13   6
ATOM      6  N   UNL     1      13.263   6.316   7.070  0.00  0.00    -0.309 NA
ATOM     32  H   UNL     1      13.802   5.829   7.787  0.00  0.00    +0.122 HD
BRANCH   6  16
ATOM     16  C   UNL     1      13.835   7.641   6.871  0.00  0.00    +0.116 C 
BRANCH  16  18
ATOM     18  C   UNL     1      14.640   7.718   5.600  0.00  0.00    -0.033 A 
ATOM     21  C   UNL     1      15.974   8.122   5.643  0.00  0.00    +0.008 A 
ATOM     22  C   UNL     1      14.051   7.385   4.380  0.00  0.00    +0.008 A 
ATOM     23  C   UNL     1      16.720   8.193   4.467  0.00  0.00    +0.046 A 
ATOM     24  C   UNL     1      14.796   7.457   3.204  0.00  0.00    +0.046 A 
ATOM     27  C   UNL     1      16.131   7.860   3.246  0.00  0.00    +0.120 A 
BRANCH  27   4
ATOM      4  O   UNL     1      16.859   7.929   2.099  0.00  0.00    -0.495 OA
ATOM     31  C   UNL     1      16.289   7.336   0.933  0.00  0.00    +0.277 C 
ENDBRANCH  27   4
ENDBRANCH  16  18
ENDBRANCH   6  16
ENDBRANCH  13   6
ENDBRANCH   8  13
BRANCH  10  14
ATOM     14  C   UNL     1       9.326   6.364   3.950  0.00  0.00    +0.090 C 
BRANCH  14  15
ATOM      3  O   UNL     1      11.696   3.945   2.714  0.00  0.00    -0.354 OA
ATOM      7  N   UNL     1      10.669   4.338   3.564  0.00  0.00    -0.083 NA
ATOM     15  C   UNL     1      10.404   5.602   3.226  0.00  0.00    +0.087 A 
ATOM     17  C   UNL     1      11.223   6.057   2.178  0.00  0.00    +0.076 A 
ATOM     19  C   UNL     1      12.017   4.978   1.893  0.00  0.00    +0.168 A 
BRANCH  19  20
ATOM     20  C   UNL     1      13.066   4.721   0.951  0.00  0.00    +0.023 A 
ATOM     25  C   UNL     1      14.261   4.143   1.378  0.00  0.00    +0.057 A 
ATOM     26  C   UNL     1      12.892   5.051  -0.394  0.00  0.00    +0.012 A 
ATOM     28  C   UNL     1      15.283   3.896   0.461  0.00  0.00    +0.118 A 
ATOM     29  C   UNL     1      13.914   4.805  -1.310  0.00  0.00    +0.004 A 
ATOM     30  C   UNL     1      15.109   4.226  -0.883  0.00  0.00    +0.045 A 
BRANCH  28   5
ATOM      5  O   UNL     1      16.450   3.332   0.878  0.00  0.00    -0.507 OA
ATOM     34  H   UNL     1      16.279   2.813   1.683  0.00  0.00    +0.292 HD
ENDBRANCH  28   5
ENDBRANCH  19  20
ENDBRANCH  14  15
ENDBRANCH  10  14
TORSDOF 10
ENDMDL
MODEL 8
REMARK VINA RESULT:      -5.4     14.752     17.898
REMARK  Name = 75536380
REMARK  11 active torsions:
REMARK  status: ('A' for Active; 'I' for Inactive)
REMARK    1  A    between atoms: O_2  and  C_9
REMARK    2  A    between atoms: O_4  and  C_27
REMARK    3  A    between atoms: O_4  and  C_31
REMARK    4  A    between atoms: O_5  and  C_28
REMARK    5  A    between atoms: N_6  and  C_13
REMARK    6  A    between atoms: N_6  and  C_16
REMARK    7  A    between atoms: C_8  and  C_13
REMARK    8  A    between atoms: C_10  and  C_14
REMARK    9  A    between atoms: C_14  and  C_15
REMARK   10  A    between atoms: C_16  and  C_18
REMARK   11  A    between atoms: C_19  and  C_20
REMARK                            x       y       z     vdW  Elec       q    Type
REMARK                         _______ _______ _______ _____ _____    ______ ____
ROOT
ATOM      1  O   UNL     1      13.170   4.885   2.036  0.00  0.00    -0.369 OA
ATOM      8  C   UNL     1      14.527   5.302   1.837  0.00  0.00    +0.161 C 
ATOM      9  C   UNL     1      15.305   4.286   0.992  0.00  0.00    +0.145 C 
ATOM     10  C   UNL     1      12.435   4.619   0.840  0.00  0.00    +0.125 C 
ATOM     11  C   UNL     1      14.562   3.901  -0.284  0.00  0.00    +0.036 C 
ATOM     12  C   UNL     1      13.115   3.525   0.020  0.00  0.00    +0.034 C 
ENDROOT
BRANCH   9   2
ATOM      2  O   UNL     1      15.496   3.097   1.762  0.00  0.00    -0.389 OA
ATOM     33  H   UNL     1      15.540   2.348   1.142  0.00  0.00    +0.210 HD
ENDBRANCH   9   2
BRANCH   8  13
ATOM     13  C   UNL     1      14.590   6.720   1.274  0.00  0.00    +0.115 C 
BRANCH  13   6
ATOM      6  N   UNL     1      14.770   7.695   2.338  0.00  0.00    -0.309 NA
ATOM     32  H   UNL     1      15.444   8.401   2.038  0.00  0.00    +0.122 HD
BRANCH   6  16
ATOM     16  C   UNL     1      15.267   7.059   3.552  0.00  0.00    +0.116 C 
BRANCH  16  18
ATOM     18  C   UNL     1      16.056   8.018   4.404  0.00  0.00    -0.033 A 
ATOM     21  C   UNL     1      17.442   8.096   4.266  0.00  0.00    +0.008 A 
ATOM     22  C   UNL     1      15.401   8.828   5.332  0.00  0.00    +0.008 A 
ATOM     23  C   UNL     1      18.173   8.984   5.054  0.00  0.00    +0.046 A 
ATOM     24  C   UNL     1      16.132   9.715   6.121  0.00  0.00    +0.046 A 
ATOM     27  C   UNL     1      17.518   9.794   5.983  0.00  0.00    +0.120 A 
BRANCH  27   4
ATOM      4  O   UNL     1      18.231  10.660   6.752  0.00  0.00    -0.495 OA
ATOM     31  C   UNL     1      19.571  10.290   7.073  0.00  0.00    +0.277 C 
ENDBRANCH  27   4
ENDBRANCH  16  18
ENDBRANCH   6  16
ENDBRANCH  13   6
ENDBRANCH   8  13
BRANCH  10  14
ATOM     14  C   UNL     1      11.029   4.196   1.250  0.00  0.00    +0.090 C 
BRANCH  14  15
ATOM      3  O   UNL     1       9.793   6.509   3.724  0.00  0.00    -0.354 OA
ATOM      7  N   UNL     1      10.122   6.164   2.418  0.00  0.00    -0.083 NA
ATOM     15  C   UNL     1      10.574   4.909   2.495  0.00  0.00    +0.087 A 
ATOM     17  C   UNL     1      10.552   4.415   3.811  0.00  0.00    +0.076 A 
ATOM     19  C   UNL     1      10.053   5.459   4.544  0.00  0.00    +0.168 A 
BRANCH  19  20
ATOM     20  C   UNL     1       9.760   5.665   5.932  0.00  0.00    +0.023 A 
ATOM     25  C   UNL     1      10.059   4.673   6.864  0.00  0.00    +0.057 A 
ATOM     26  C   UNL     1       9.172   6.860   6.349  0.00  0.00    +0.012 A 
ATOM     28  C   UNL     1       9.771   4.874   8.214  0.00  0.00    +0.118 A 
ATOM     29  C   UNL     1       8.884   7.061   7.699  0.00  0.00    +0.004 A 
ATOM     30  C   UNL     1       9.185   6.068   8.631  0.00  0.00    +0.045 A 
BRANCH  28   5
ATOM      5  O   UNL     1      10.063   3.904   9.124  0.00  0.00    -0.507 OA
ATOM     34  H   UNL     1      10.636   4.282   9.814  0.00  0.00    +0.292 HD
ENDBRANCH  28   5
ENDBRANCH  19  20
ENDBRANCH  14  15
ENDBRANCH  10  14
TORSDOF 10
ENDMDL
MODEL 9
REMARK VINA RESULT:      -5.3      6.863      9.717
REMARK  Name = 75536380
REMARK  11 active torsions:
REMARK  status: ('A' for Active; 'I' for Inactive)
REMARK    1  A    between atoms: O_2  and  C_9
REMARK    2  A    between atoms: O_4  and  C_27
REMARK    3  A    between atoms: O_4  and  C_31
REMARK    4  A    between atoms: O_5  and  C_28
REMARK    5  A    between atoms: N_6  and  C_13
REMARK    6  A    between atoms: N_6  and  C_16
REMARK    7  A    between atoms: C_8  and  C_13
REMARK    8  A    between atoms: C_10  and  C_14
REMARK    9  A    between atoms: C_14  and  C_15
REMARK   10  A    between atoms: C_16  and  C_18
REMARK   11  A    between atoms: C_19  and  C_20
REMARK                            x       y       z     vdW  Elec       q    Type
REMARK                         _______ _______ _______ _____ _____    ______ ____
ROOT
ATOM      1  O   UNL     1      23.603   1.028  23.209  0.00  0.00    -0.369 OA
ATOM      8  C   UNL     1      23.649   0.704  24.605  0.00  0.00    +0.161 C 
ATOM      9  C   UNL     1      25.064   0.878  25.173  0.00  0.00    +0.145 C 
ATOM     10  C   UNL     1      24.080   2.332  22.872  0.00  0.00    +0.125 C 
ATOM     11  C   UNL     1      25.673   2.229  24.810  0.00  0.00    +0.036 C 
ATOM     12  C   UNL     1      25.530   2.509  23.317  0.00  0.00    +0.034 C 
ENDROOT
BRANCH   9   2
ATOM      2  O   UNL     1      25.906  -0.141  24.629  0.00  0.00    -0.389 OA
ATOM     33  H   UNL     1      25.968  -0.854  25.288  0.00  0.00    +0.210 HD
ENDBRANCH   9   2
BRANCH   8  13
ATOM     13  C   UNL     1      22.593   1.483  25.385  0.00  0.00    +0.115 C 
BRANCH  13   6
ATOM      6  N   UNL     1      21.321   0.778  25.386  0.00  0.00    -0.309 NA
ATOM     32  H   UNL     1      20.731   1.150  26.131  0.00  0.00    +0.122 HD
BRANCH   6  16
ATOM     16  C   UNL     1      21.514  -0.649  25.609  0.00  0.00    +0.116 C 
BRANCH  16  18
ATOM     18  C   UNL     1      20.303  -1.449  25.207  0.00  0.00    -0.033 A 
ATOM     21  C   UNL     1      19.063  -0.823  25.088  0.00  0.00    +0.008 A 
ATOM     22  C   UNL     1      20.423  -2.815  24.953  0.00  0.00    +0.008 A 
ATOM     23  C   UNL     1      17.941  -1.563  24.715  0.00  0.00    +0.046 A 
ATOM     24  C   UNL     1      19.302  -3.556  24.581  0.00  0.00    +0.046 A 
ATOM     27  C   UNL     1      18.060  -2.930  24.461  0.00  0.00    +0.120 A 
BRANCH  27   4
ATOM      4  O   UNL     1      16.966  -3.652  24.097  0.00  0.00    -0.495 OA
ATOM     31  C   UNL     1      16.093  -3.065  23.133  0.00  0.00    +0.277 C 
ENDBRANCH  27   4
ENDBRANCH  16  18
ENDBRANCH   6  16
ENDBRANCH  13   6
ENDBRANCH   8  13
BRANCH  10  14
ATOM     14  C   UNL     1      23.952   2.491  21.362  0.00  0.00    +0.090 C 
BRANCH  14  15
ATOM      3  O   UNL     1      22.241   5.442  20.196  0.00  0.00    -0.354 OA
ATOM      7  N   UNL     1      23.387   4.677  20.382  0.00  0.00    -0.083 NA
ATOM     15  C   UNL     1      22.966   3.568  20.996  0.00  0.00    +0.087 A 
ATOM     17  C   UNL     1      21.578   3.577  21.221  0.00  0.00    +0.076 A 
ATOM     19  C   UNL     1      21.171   4.776  20.699  0.00  0.00    +0.168 A 
BRANCH  19  20
ATOM     20  C   UNL     1      19.908   5.444  20.577  0.00  0.00    +0.023 A 
ATOM     25  C   UNL     1      19.017   5.075  19.571  0.00  0.00    +0.057 A 
ATOM     26  C   UNL     1      19.573   6.466  21.467  0.00  0.00    +0.012 A 
ATOM     28  C   UNL     1      17.790   5.728  19.452  0.00  0.00    +0.118 A 
ATOM     29  C   UNL     1      18.346   7.119  21.347  0.00  0.00    +0.004 A 
ATOM     30  C   UNL     1      17.454   6.749  20.340  0.00  0.00    +0.045 A 
BRANCH  28   5
ATOM      5  O   UNL     1      16.920   5.368  18.468  0.00  0.00    -0.507 OA
ATOM     34  H   UNL     1      16.162   5.977  18.479  0.00  0.00    +0.292 HD
ENDBRANCH  28   5
ENDBRANCH  19  20
ENDBRANCH  14  15
ENDBRANCH  10  14
TORSDOF 10
ENDMDL
MODEL 10
REMARK VINA RESULT:      -5.2     16.962     20.238
REMARK  Name = 75536380
REMARK  11 active torsions:
REMARK  status: ('A' for Active; 'I' for Inactive)
REMARK    1  A    between atoms: O_2  and  C_9
REMARK    2  A    between atoms: O_4  and  C_27
REMARK    3  A    between atoms: O_4  and  C_31
REMARK    4  A    between atoms: O_5  and  C_28
REMARK    5  A    between atoms: N_6  and  C_13
REMARK    6  A    between atoms: N_6  and  C_16
REMARK    7  A    between atoms: C_8  and  C_13
REMARK    8  A    between atoms: C_10  and  C_14
REMARK    9  A    between atoms: C_14  and  C_15
REMARK   10  A    between atoms: C_16  and  C_18
REMARK   11  A    between atoms: C_19  and  C_20
REMARK                            x       y       z     vdW  Elec       q    Type
REMARK                         _______ _______ _______ _____ _____    ______ ____
ROOT
ATOM      1  O   UNL     1      12.985   4.872   2.081  0.00  0.00    -0.369 OA
ATOM      8  C   UNL     1      14.267   5.399   1.715  0.00  0.00    +0.161 C 
ATOM      9  C   UNL     1      15.123   4.341   1.006  0.00  0.00    +0.145 C 
ATOM     10  C   UNL     1      12.229   4.310   1.006  0.00  0.00    +0.125 C 
ATOM     11  C   UNL     1      14.371   3.648  -0.126  0.00  0.00    +0.036 C 
ATOM     12  C   UNL     1      12.999   3.170   0.343  0.00  0.00    +0.034 C 
ENDROOT
BRANCH   9   2
ATOM      2  O   UNL     1      15.500   3.342   1.956  0.00  0.00    -0.389 OA
ATOM     33  H   UNL     1      15.787   3.799   2.765  0.00  0.00    +0.210 HD
ENDBRANCH   9   2
BRANCH   8  13
ATOM     13  C   UNL     1      14.122   6.688   0.910  0.00  0.00    +0.115 C 
BRANCH  13   6
ATOM      6  N   UNL     1      12.775   7.224   1.024  0.00  0.00    -0.309 NA
ATOM     32  H   UNL     1      12.138   6.476   1.302  0.00  0.00    +0.122 HD
BRANCH   6  16
ATOM     16  C   UNL     1      12.323   7.778  -0.246  0.00  0.00    +0.116 C 
BRANCH  16  18
ATOM     18  C   UNL     1      11.513   6.783  -1.035  0.00  0.00    -0.033 A 
ATOM     21  C   UNL     1      12.107   6.068  -2.075  0.00  0.00    +0.008 A 
ATOM     22  C   UNL     1      10.168   6.578  -0.725  0.00  0.00    +0.008 A 
ATOM     23  C   UNL     1      11.357   5.147  -2.805  0.00  0.00    +0.046 A 
ATOM     24  C   UNL     1       9.418   5.657  -1.456  0.00  0.00    +0.046 A 
ATOM     27  C   UNL     1      10.012   4.941  -2.496  0.00  0.00    +0.120 A 
BRANCH  27   4
ATOM      4  O   UNL     1       9.281   4.042  -3.208  0.00  0.00    -0.495 OA
ATOM     31  C   UNL     1       9.886   2.777  -3.473  0.00  0.00    +0.277 C 
ENDBRANCH  27   4
ENDBRANCH  16  18
ENDBRANCH   6  16
ENDBRANCH  13   6
ENDBRANCH   8  13
BRANCH  10  14
ATOM     14  C   UNL     1      10.910   3.810   1.584  0.00  0.00    +0.090 C 
BRANCH  14  15
ATOM      3  O   UNL     1       9.875   6.259   4.018  0.00  0.00    -0.354 OA
ATOM      7  N   UNL     1      10.178   5.868   2.718  0.00  0.00    -0.083 NA
ATOM     15  C   UNL     1      10.516   4.579   2.816  0.00  0.00    +0.087 A 
ATOM     17  C   UNL     1      10.445   4.108   4.139  0.00  0.00    +0.076 A 
ATOM     19  C   UNL     1      10.038   5.202   4.854  0.00  0.00    +0.168 A 
BRANCH  19  20
ATOM     20  C   UNL     1       9.759   5.454   6.237  0.00  0.00    +0.023 A 
ATOM     25  C   UNL     1       9.315   6.713   6.642  0.00  0.00    +0.057 A 
ATOM     26  C   UNL     1       9.933   4.440   7.179  0.00  0.00    +0.012 A 
ATOM     28  C   UNL     1       9.047   6.958   7.989  0.00  0.00    +0.118 A 
ATOM     29  C   UNL     1       9.665   4.685   8.526  0.00  0.00    +0.004 A 
ATOM     30  C   UNL     1       9.220   5.944   8.930  0.00  0.00    +0.045 A 
BRANCH  28   5
ATOM      5  O   UNL     1       8.614   8.187   8.383  0.00  0.00    -0.507 OA
ATOM     34  H   UNL     1       8.898   8.341   9.301  0.00  0.00    +0.292 HD
ENDBRANCH  28   5
ENDBRANCH  19  20
ENDBRANCH  14  15
ENDBRANCH  10  14
TORSDOF 10
ENDMDL
