MODEL 1
REMARK VINA RESULT:      -7.6      0.000      0.000
REMARK  Name = 56776079
REMARK  3 active torsions:
REMARK  status: ('A' for Active; 'I' for Inactive)
REMARK    1  A    between atoms: N_9  and  C_30
REMARK    2  A    between atoms: C_11  and  C_16
REMARK    3  A    between atoms: C_16  and  C_18
REMARK                            x       y       z     vdW  Elec       q    Type
REMARK                         _______ _______ _______ _____ _____    ______ ____
ROOT
ATOM      1  O   UNL     1      -3.514 -11.820  16.506  0.00  0.00    -0.492 OA
ATOM      3  O   UNL     1      -2.347 -14.684  14.608  0.00  0.00    -0.274 OA
ATOM      6  N   UNL     1      -3.146 -13.569  12.743  0.00  0.00    -0.300 N 
ATOM      8  N   UNL     1      -5.382 -14.021  14.926  0.00  0.00    -0.304 NA
ATOM     10  C   UNL     1      -2.191 -11.302  12.495  0.00  0.00    +0.010 C 
ATOM     11  C   UNL     1      -3.101 -11.078  11.255  0.00  0.00    +0.004 C 
ATOM     12  C   UNL     1      -4.395 -11.903  11.367  0.00  0.00    +0.023 C 
ATOM     13  C   UNL     1      -1.900 -12.814  12.580  0.00  0.00    +0.111 C 
ATOM     14  C   UNL     1      -2.824 -10.755  13.797  0.00  0.00    +0.008 C 
ATOM     15  C   UNL     1      -4.119 -13.379  11.658  0.00  0.00    +0.108 C 
ATOM     17  C   UNL     1      -1.924 -10.817  15.041  0.00  0.00    +0.041 C 
ATOM     19  C   UNL     1      -3.279 -14.425  13.837  0.00  0.00    +0.229 C 
ATOM     20  C   UNL     1      -2.764 -10.619  16.307  0.00  0.00    +0.229 C 
ATOM     21  C   UNL     1      -4.647 -15.011  14.135  0.00  0.00    +0.178 C 
ATOM     26  C   UNL     1      -5.083 -14.135  16.358  0.00  0.00    +0.120 C 
ATOM     27  C   UNL     1      -4.691 -11.757  17.201  0.00  0.00    +0.125 A 
ATOM     28  C   UNL     1      -5.510 -12.905  17.131  0.00  0.00    +0.010 A 
ATOM     29  C   UNL     1      -6.748 -12.905  17.791  0.00  0.00    +0.031 A 
ATOM     30  C   UNL     1      -7.155 -11.799  18.534  0.00  0.00    +0.030 A 
ATOM     31  C   UNL     1      -5.099 -10.661  17.969  0.00  0.00    +0.048 A 
ATOM     32  C   UNL     1      -6.329 -10.683  18.628  0.00  0.00    +0.027 A 
ATOM     37  H   UNL     1      -6.384 -14.164  14.795  0.00  0.00    +0.123 HD
ENDROOT
BRANCH  30   9
ATOM      5  O   UNL     1     -11.001 -11.921  20.231  0.00  0.00    -0.377 OA
ATOM      9  N   UNL     1      -8.398 -11.807  19.177  0.00  0.00    -0.326 N 
ATOM     33  C   UNL     1      -9.317 -10.675  19.006  0.00  0.00    +0.133 C 
ATOM     34  C   UNL     1      -9.042 -13.104  19.426  0.00  0.00    +0.133 C 
ATOM     35  C   UNL     1     -10.334 -10.662  20.142  0.00  0.00    +0.178 C 
ATOM     36  C   UNL     1     -10.073 -12.960  20.540  0.00  0.00    +0.178 C 
ENDBRANCH  30   9
BRANCH  11  16
ATOM     16  C   UNL     1      -3.418  -9.606  10.988  0.00  0.00    +0.100 C 
BRANCH  16  18
ATOM      2  O   UNL     1      -4.199  -9.680   8.751  0.00  0.00    -0.276 OA
ATOM      4  O   UNL     1      -8.450  -9.298  11.249  0.00  0.00    -0.377 OA
ATOM      7  N   UNL     1      -5.771  -9.178  10.383  0.00  0.00    -0.297 N 
ATOM     18  C   UNL     1      -4.490  -9.492   9.934  0.00  0.00    +0.216 C 
ATOM     22  C   UNL     1      -6.127  -8.825  11.763  0.00  0.00    +0.136 C 
ATOM     23  C   UNL     1      -6.871  -9.052   9.429  0.00  0.00    +0.136 C 
ATOM     24  C   UNL     1      -7.398  -9.554  12.182  0.00  0.00    +0.179 C 
ATOM     25  C   UNL     1      -8.107  -9.776   9.945  0.00  0.00    +0.179 C 
ENDBRANCH  16  18
ENDBRANCH  11  16
TORSDOF 3
ENDMDL
MODEL 2
REMARK VINA RESULT:      -7.5     21.269     25.740
REMARK  Name = 56776079
REMARK  3 active torsions:
REMARK  status: ('A' for Active; 'I' for Inactive)
REMARK    1  A    between atoms: N_9  and  C_30
REMARK    2  A    between atoms: C_11  and  C_16
REMARK    3  A    between atoms: C_16  and  C_18
REMARK                            x       y       z     vdW  Elec       q    Type
REMARK                         _______ _______ _______ _____ _____    ______ ____
ROOT
ATOM      1  O   UNL     1     -17.443   3.613  29.772  0.00  0.00    -0.492 OA
ATOM      3  O   UNL     1     -15.539   1.170  31.661  0.00  0.00    -0.274 OA
ATOM      6  N   UNL     1     -14.251   2.961  32.367  0.00  0.00    -0.300 N 
ATOM      8  N   UNL     1     -14.330   2.700  29.221  0.00  0.00    -0.304 NA
ATOM     10  C   UNL     1     -15.589   4.748  33.429  0.00  0.00    +0.010 C 
ATOM     11  C   UNL     1     -14.295   5.600  33.572  0.00  0.00    +0.004 C 
ATOM     12  C   UNL     1     -13.289   5.262  32.458  0.00  0.00    +0.023 C 
ATOM     13  C   UNL     1     -15.164   3.267  33.472  0.00  0.00    +0.111 C 
ATOM     14  C   UNL     1     -16.382   5.092  32.146  0.00  0.00    +0.008 C 
ATOM     15  C   UNL     1     -13.017   3.760  32.358  0.00  0.00    +0.108 C 
ATOM     17  C   UNL     1     -17.741   4.388  32.007  0.00  0.00    +0.041 C 
ATOM     19  C   UNL     1     -14.580   1.931  31.484  0.00  0.00    +0.229 C 
ATOM     20  C   UNL     1     -18.243   4.497  30.563  0.00  0.00    +0.229 C 
ATOM     21  C   UNL     1     -13.765   1.782  30.212  0.00  0.00    +0.178 C 
ATOM     26  C   UNL     1     -15.460   2.099  28.502  0.00  0.00    +0.120 C 
ATOM     27  C   UNL     1     -17.295   3.873  28.437  0.00  0.00    +0.125 A 
ATOM     28  C   UNL     1     -16.290   3.135  27.774  0.00  0.00    +0.010 A 
ATOM     29  C   UNL     1     -16.055   3.368  26.411  0.00  0.00    +0.031 A 
ATOM     30  C   UNL     1     -16.822   4.294  25.707  0.00  0.00    +0.030 A 
ATOM     31  C   UNL     1     -18.075   4.783  27.716  0.00  0.00    +0.048 A 
ATOM     32  C   UNL     1     -17.834   4.994  26.357  0.00  0.00    +0.027 A 
ATOM     37  H   UNL     1     -13.611   2.945  28.541  0.00  0.00    +0.123 HD
ENDROOT
BRANCH  30   9
ATOM      5  O   UNL     1     -16.086   4.718  21.589  0.00  0.00    -0.377 OA
ATOM      9  N   UNL     1     -16.570   4.527  24.351  0.00  0.00    -0.326 N 
ATOM     33  C   UNL     1     -15.208   4.379  23.825  0.00  0.00    +0.133 C 
ATOM     34  C   UNL     1     -17.646   4.253  23.388  0.00  0.00    +0.133 C 
ATOM     35  C   UNL     1     -15.079   5.138  22.509  0.00  0.00    +0.178 C 
ATOM     36  C   UNL     1     -17.386   5.019  22.096  0.00  0.00    +0.178 C 
ENDBRANCH  30   9
BRANCH  11  16
ATOM     16  C   UNL     1     -14.559   7.105  33.625  0.00  0.00    +0.100 C 
BRANCH  16  18
ATOM      2  O   UNL     1     -12.992   7.522  35.355  0.00  0.00    -0.276 OA
ATOM      4  O   UNL     1     -11.061  10.157  31.641  0.00  0.00    -0.377 OA
ATOM      7  N   UNL     1     -12.762   8.783  33.419  0.00  0.00    -0.297 N 
ATOM     18  C   UNL     1     -13.370   7.817  34.219  0.00  0.00    +0.216 C 
ATOM     22  C   UNL     1     -13.259   9.248  32.119  0.00  0.00    +0.136 C 
ATOM     23  C   UNL     1     -11.600   9.518  33.915  0.00  0.00    +0.136 C 
ATOM     24  C   UNL     1     -12.113   9.342  31.119  0.00  0.00    +0.179 C 
ATOM     25  C   UNL     1     -10.523   9.594  32.841  0.00  0.00    +0.179 C 
ENDBRANCH  16  18
ENDBRANCH  11  16
TORSDOF 3
ENDMDL
MODEL 3
REMARK VINA RESULT:      -7.0      5.583      9.119
REMARK  Name = 56776079
REMARK  3 active torsions:
REMARK  status: ('A' for Active; 'I' for Inactive)
REMARK    1  A    between atoms: N_9  and  C_30
REMARK    2  A    between atoms: C_11  and  C_16
REMARK    3  A    between atoms: C_16  and  C_18
REMARK                            x       y       z     vdW  Elec       q    Type
REMARK                         _______ _______ _______ _____ _____    ______ ____
ROOT
ATOM      1  O   UNL     1      -9.739 -10.554  14.350  0.00  0.00    -0.492 OA
ATOM      3  O   UNL     1     -11.847  -9.756  17.193  0.00  0.00    -0.274 OA
ATOM      6  N   UNL     1     -11.979  -7.627  16.290  0.00  0.00    -0.300 N 
ATOM      8  N   UNL     1      -9.000  -8.523  16.831  0.00  0.00    -0.304 NA
ATOM     10  C   UNL     1     -12.796  -7.621  13.956  0.00  0.00    +0.010 C 
ATOM     11  C   UNL     1     -12.584  -6.081  13.910  0.00  0.00    +0.004 C 
ATOM     12  C   UNL     1     -11.448  -5.654  14.856  0.00  0.00    +0.023 C 
ATOM     13  C   UNL     1     -13.101  -7.994  15.421  0.00  0.00    +0.111 C 
ATOM     14  C   UNL     1     -11.582  -8.401  13.395  0.00  0.00    +0.008 C 
ATOM     15  C   UNL     1     -11.639  -6.197  16.274  0.00  0.00    +0.108 C 
ATOM     17  C   UNL     1     -11.774  -9.921  13.282  0.00  0.00    +0.041 C 
ATOM     19  C   UNL     1     -11.388  -8.612  17.082  0.00  0.00    +0.229 C 
ATOM     20  C   UNL     1     -10.418 -10.608  13.092  0.00  0.00    +0.229 C 
ATOM     21  C   UNL     1     -10.084  -8.286  17.788  0.00  0.00    +0.178 C 
ATOM     26  C   UNL     1      -8.579  -9.929  16.820  0.00  0.00    +0.120 C 
ATOM     27  C   UNL     1      -8.371 -10.598  14.365  0.00  0.00    +0.125 A 
ATOM     28  C   UNL     1      -7.759 -10.271  15.594  0.00  0.00    +0.010 A 
ATOM     29  C   UNL     1      -6.359 -10.261  15.682  0.00  0.00    +0.031 A 
ATOM     30  C   UNL     1      -5.577 -10.599  14.579  0.00  0.00    +0.030 A 
ATOM     31  C   UNL     1      -7.578 -10.958  13.271  0.00  0.00    +0.048 A 
ATOM     32  C   UNL     1      -6.186 -10.954  13.379  0.00  0.00    +0.027 A 
ATOM     37  H   UNL     1      -8.196  -7.949  17.086  0.00  0.00    +0.123 HD
ENDROOT
BRANCH  30   9
ATOM      5  O   UNL     1      -1.384 -10.795  14.814  0.00  0.00    -0.377 OA
ATOM      9  N   UNL     1      -4.182 -10.573  14.675  0.00  0.00    -0.326 N 
ATOM     33  C   UNL     1      -3.529 -10.929  15.939  0.00  0.00    +0.133 C 
ATOM     34  C   UNL     1      -3.398 -10.856  13.464  0.00  0.00    +0.133 C 
ATOM     35  C   UNL     1      -2.112 -10.366  15.964  0.00  0.00    +0.178 C 
ATOM     36  C   UNL     1      -1.989 -10.297  13.621  0.00  0.00    +0.178 C 
ENDBRANCH  30   9
BRANCH  11  16
ATOM     16  C   UNL     1     -12.346  -5.541  12.499  0.00  0.00    +0.100 C 
BRANCH  16  18
ATOM      2  O   UNL     1     -12.280  -3.175  12.642  0.00  0.00    -0.276 OA
ATOM      4  O   UNL     1     -16.597  -3.887  10.337  0.00  0.00    -0.377 OA
ATOM      7  N   UNL     1     -14.273  -4.117  11.914  0.00  0.00    -0.297 N 
ATOM     18  C   UNL     1     -12.955  -4.169  12.363  0.00  0.00    +0.216 C 
ATOM     22  C   UNL     1     -15.145  -5.277  11.694  0.00  0.00    +0.136 C 
ATOM     23  C   UNL     1     -14.940  -2.826  11.748  0.00  0.00    +0.136 C 
ATOM     24  C   UNL     1     -15.894  -5.132  10.376  0.00  0.00    +0.179 C 
ATOM     25  C   UNL     1     -15.692  -2.783  10.426  0.00  0.00    +0.179 C 
ENDBRANCH  16  18
ENDBRANCH  11  16
TORSDOF 3
ENDMDL
MODEL 4
REMARK VINA RESULT:      -6.9     25.446     27.590
REMARK  Name = 56776079
REMARK  3 active torsions:
REMARK  status: ('A' for Active; 'I' for Inactive)
REMARK    1  A    between atoms: N_9  and  C_30
REMARK    2  A    between atoms: C_11  and  C_16
REMARK    3  A    between atoms: C_16  and  C_18
REMARK                            x       y       z     vdW  Elec       q    Type
REMARK                         _______ _______ _______ _____ _____    ______ ____
ROOT
ATOM      1  O   UNL     1       8.974   9.546   2.205  0.00  0.00    -0.492 OA
ATOM      3  O   UNL     1      10.554   9.287   5.461  0.00  0.00    -0.274 OA
ATOM      6  N   UNL     1      10.399   6.994   5.173  0.00  0.00    -0.300 N 
ATOM      8  N   UNL     1       7.592   8.425   4.974  0.00  0.00    -0.304 NA
ATOM     10  C   UNL     1      11.468   6.213   3.085  0.00  0.00    +0.010 C 
ATOM     11  C   UNL     1      10.985   4.770   3.405  0.00  0.00    +0.004 C 
ATOM     12  C   UNL     1       9.688   4.795   4.233  0.00  0.00    +0.023 C 
ATOM     13  C   UNL     1      11.664   6.936   4.433  0.00  0.00    +0.111 C 
ATOM     14  C   UNL     1      10.491   6.968   2.152  0.00  0.00    +0.008 C 
ATOM     15  C   UNL     1       9.809   5.682   5.473  0.00  0.00    +0.108 C 
ATOM     17  C   UNL     1      10.969   8.351   1.683  0.00  0.00    +0.041 C 
ATOM     19  C   UNL     1       9.910   8.237   5.577  0.00  0.00    +0.229 C 
ATOM     20  C   UNL     1       9.793   9.144   1.104  0.00  0.00    +0.229 C 
ATOM     21  C   UNL     1       8.495   8.315   6.122  0.00  0.00    +0.178 C 
ATOM     26  C   UNL     1       7.439   9.816   4.531  0.00  0.00    +0.120 C 
ATOM     27  C   UNL     1       7.645   9.788   1.986  0.00  0.00    +0.125 A 
ATOM     28  C   UNL     1       6.844   9.912   3.142  0.00  0.00    +0.010 A 
ATOM     29  C   UNL     1       5.465  10.129   3.001  0.00  0.00    +0.031 A 
ATOM     30  C   UNL     1       4.893  10.250   1.736  0.00  0.00    +0.030 A 
ATOM     31  C   UNL     1       7.064   9.935   0.723  0.00  0.00    +0.048 A 
ATOM     32  C   UNL     1       5.692  10.161   0.601  0.00  0.00    +0.027 A 
ATOM     37  H   UNL     1       6.672   8.069   5.234  0.00  0.00    +0.123 HD
ENDROOT
BRANCH  30   9
ATOM      5  O   UNL     1       0.806  11.118   1.258  0.00  0.00    -0.377 OA
ATOM      9  N   UNL     1       3.514  10.453   1.608  0.00  0.00    -0.326 N 
ATOM     33  C   UNL     1       2.770  11.119   2.683  0.00  0.00    +0.133 C 
ATOM     34  C   UNL     1       2.963  10.637   0.258  0.00  0.00    +0.133 C 
ATOM     35  C   UNL     1       1.286  10.790   2.562  0.00  0.00    +0.178 C 
ATOM     36  C   UNL     1       1.469  10.334   0.267  0.00  0.00    +0.178 C 
ENDBRANCH  30   9
BRANCH  11  16
ATOM     16  C   UNL     1      10.819   3.893   2.163  0.00  0.00    +0.100 C 
BRANCH  16  18
ATOM      2  O   UNL     1      13.124   3.357   2.024  0.00  0.00    -0.276 OA
ATOM      4  O   UNL     1      12.043   4.228  -2.723  0.00  0.00    -0.377 OA
ATOM      7  N   UNL     1      12.130   4.178   0.093  0.00  0.00    -0.297 N 
ATOM     18  C   UNL     1      12.131   3.784   1.429  0.00  0.00    +0.216 C 
ATOM     22  C   UNL     1      11.005   4.807  -0.609  0.00  0.00    +0.136 C 
ATOM     23  C   UNL     1      13.360   4.100  -0.695  0.00  0.00    +0.136 C 
ATOM     24  C   UNL     1      10.821   4.175  -1.983  0.00  0.00    +0.179 C 
ATOM     25  C   UNL     1      13.076   3.493  -2.061  0.00  0.00    +0.179 C 
ENDBRANCH  16  18
ENDBRANCH  11  16
TORSDOF 3
ENDMDL
MODEL 5
REMARK VINA RESULT:      -6.8     24.913     29.557
REMARK  Name = 56776079
REMARK  3 active torsions:
REMARK  status: ('A' for Active; 'I' for Inactive)
REMARK    1  A    between atoms: N_9  and  C_30
REMARK    2  A    between atoms: C_11  and  C_16
REMARK    3  A    between atoms: C_16  and  C_18
REMARK                            x       y       z     vdW  Elec       q    Type
REMARK                         _______ _______ _______ _____ _____    ______ ____
ROOT
ATOM      1  O   UNL     1     -10.214  10.513  36.541  0.00  0.00    -0.492 OA
ATOM      3  O   UNL     1     -10.966  12.666  33.719  0.00  0.00    -0.274 OA
ATOM      6  N   UNL     1     -11.491  10.717  32.582  0.00  0.00    -0.300 N 
ATOM      8  N   UNL     1      -8.543  10.694  33.712  0.00  0.00    -0.304 NA
ATOM     10  C   UNL     1     -13.202   9.360  33.740  0.00  0.00    +0.010 C 
ATOM     11  C   UNL     1     -13.051   8.272  32.639  0.00  0.00    +0.004 C 
ATOM     12  C   UNL     1     -11.632   8.284  32.044  0.00  0.00    +0.023 C 
ATOM     13  C   UNL     1     -12.867  10.716  33.087  0.00  0.00    +0.111 C 
ATOM     14  C   UNL     1     -12.319   9.072  34.978  0.00  0.00    +0.008 C 
ATOM     15  C   UNL     1     -11.210   9.680  31.580  0.00  0.00    +0.108 C 
ATOM     17  C   UNL     1     -12.518  10.031  36.162  0.00  0.00    +0.041 C 
ATOM     19  C   UNL     1     -10.610  11.706  33.023  0.00  0.00    +0.229 C 
ATOM     20  C   UNL     1     -11.353   9.895  37.148  0.00  0.00    +0.229 C 
ATOM     21  C   UNL     1      -9.136  11.561  32.692  0.00  0.00    +0.178 C 
ATOM     26  C   UNL     1      -8.144  11.449  34.906  0.00  0.00    +0.120 C 
ATOM     27  C   UNL     1      -8.963  10.104  36.915  0.00  0.00    +0.125 A 
ATOM     28  C   UNL     1      -7.901  10.548  36.098  0.00  0.00    +0.010 A 
ATOM     29  C   UNL     1      -6.591  10.144  36.397  0.00  0.00    +0.031 A 
ATOM     30  C   UNL     1      -6.333   9.339  37.504  0.00  0.00    +0.030 A 
ATOM     31  C   UNL     1      -8.690   9.315  38.037  0.00  0.00    +0.048 A 
ATOM     32  C   UNL     1      -7.379   8.932  38.326  0.00  0.00    +0.027 A 
ATOM     37  H   UNL     1      -7.714  10.240  33.327  0.00  0.00    +0.123 HD
ENDROOT
BRANCH  30   9
ATOM      5  O   UNL     1      -2.361   8.361  38.477  0.00  0.00    -0.377 OA
ATOM      9  N   UNL     1      -5.024   8.933  37.784  0.00  0.00    -0.326 N 
ATOM     33  C   UNL     1      -3.923   9.358  36.912  0.00  0.00    +0.133 C 
ATOM     34  C   UNL     1      -4.655   8.700  39.188  0.00  0.00    +0.133 C 
ATOM     35  C   UNL     1      -2.729   8.430  37.100  0.00  0.00    +0.178 C 
ATOM     36  C   UNL     1      -3.422   7.806  39.254  0.00  0.00    +0.178 C 
ENDBRANCH  30   9
BRANCH  11  16
ATOM     16  C   UNL     1     -13.427   6.868  33.114  0.00  0.00    +0.100 C 
BRANCH  16  18
ATOM      2  O   UNL     1     -15.538   7.108  32.061  0.00  0.00    -0.276 OA
ATOM      4  O   UNL     1     -14.154   2.641  30.451  0.00  0.00    -0.377 OA
ATOM      7  N   UNL     1     -14.536   5.019  31.914  0.00  0.00    -0.297 N 
ATOM     18  C   UNL     1     -14.599   6.351  32.318  0.00  0.00    +0.216 C 
ATOM     22  C   UNL     1     -13.499   4.058  32.307  0.00  0.00    +0.136 C 
ATOM     23  C   UNL     1     -15.628   4.438  31.134  0.00  0.00    +0.136 C 
ATOM     24  C   UNL     1     -13.037   3.255  31.097  0.00  0.00    +0.179 C 
ATOM     25  C   UNL     1     -15.075   3.625  29.972  0.00  0.00    +0.179 C 
ENDBRANCH  16  18
ENDBRANCH  11  16
TORSDOF 3
ENDMDL
MODEL 6
REMARK VINA RESULT:      -6.7     25.064     28.949
REMARK  Name = 56776079
REMARK  3 active torsions:
REMARK  status: ('A' for Active; 'I' for Inactive)
REMARK    1  A    between atoms: N_9  and  C_30
REMARK    2  A    between atoms: C_11  and  C_16
REMARK    3  A    between atoms: C_16  and  C_18
REMARK                            x       y       z     vdW  Elec       q    Type
REMARK                         _______ _______ _______ _____ _____    ______ ____
ROOT
ATOM      1  O   UNL     1      12.454   6.708   4.085  0.00  0.00    -0.492 OA
ATOM      3  O   UNL     1      10.171   5.010   6.337  0.00  0.00    -0.274 OA
ATOM      6  N   UNL     1       8.885   6.933   6.222  0.00  0.00    -0.300 N 
ATOM      8  N   UNL     1      11.826   7.509   7.215  0.00  0.00    -0.304 NA
ATOM     10  C   UNL     1       8.287   7.552   3.904  0.00  0.00    +0.010 C 
ATOM     11  C   UNL     1       7.590   8.830   4.451  0.00  0.00    +0.004 C 
ATOM     12  C   UNL     1       8.250   9.301   5.758  0.00  0.00    +0.023 C 
ATOM     13  C   UNL     1       8.199   6.479   5.008  0.00  0.00    +0.111 C 
ATOM     14  C   UNL     1       9.747   7.820   3.464  0.00  0.00    +0.008 C 
ATOM     15  C   UNL     1       8.354   8.178   6.793  0.00  0.00    +0.108 C 
ATOM     17  C   UNL     1      10.455   6.636   2.788  0.00  0.00    +0.041 C 
ATOM     19  C   UNL     1       9.904   6.142   6.757  0.00  0.00    +0.229 C 
ATOM     20  C   UNL     1      11.967   6.881   2.751  0.00  0.00    +0.229 C 
ATOM     21  C   UNL     1      10.769   6.727   7.859  0.00  0.00    +0.178 C 
ATOM     26  C   UNL     1      12.971   6.671   6.836  0.00  0.00    +0.120 C 
ATOM     27  C   UNL     1      13.603   7.350   4.458  0.00  0.00    +0.125 A 
ATOM     28  C   UNL     1      13.881   7.362   5.842  0.00  0.00    +0.010 A 
ATOM     29  C   UNL     1      15.024   8.029   6.307  0.00  0.00    +0.031 A 
ATOM     30  C   UNL     1      15.895   8.648   5.413  0.00  0.00    +0.030 A 
ATOM     31  C   UNL     1      14.496   7.955   3.568  0.00  0.00    +0.048 A 
ATOM     32  C   UNL     1      15.635   8.605   4.047  0.00  0.00    +0.027 A 
ATOM     37  H   UNL     1      12.154   8.227   7.861  0.00  0.00    +0.123 HD
ENDROOT
BRANCH  30   9
ATOM      5  O   UNL     1      19.330  10.771   6.588  0.00  0.00    -0.377 OA
ATOM      9  N   UNL     1      17.026   9.321   5.890  0.00  0.00    -0.326 N 
ATOM     33  C   UNL     1      18.355   8.722   5.729  0.00  0.00    +0.133 C 
ATOM     34  C   UNL     1      17.000  10.791   5.913  0.00  0.00    +0.133 C 
ATOM     35  C   UNL     1      19.327   9.350   6.722  0.00  0.00    +0.178 C 
ATOM     36  C   UNL     1      18.044  11.307   6.897  0.00  0.00    +0.178 C 
ENDBRANCH  30   9
BRANCH  11  16
ATOM     16  C   UNL     1       7.526   9.971   3.435  0.00  0.00    +0.100 C 
BRANCH  16  18
ATOM      2  O   UNL     1       5.171   9.953   3.160  0.00  0.00    -0.276 OA
ATOM      4  O   UNL     1       6.695   9.985  -1.545  0.00  0.00    -0.377 OA
ATOM      7  N   UNL     1       6.442   9.649   1.241  0.00  0.00    -0.297 N 
ATOM     18  C   UNL     1       6.270   9.857   2.608  0.00  0.00    +0.216 C 
ATOM     22  C   UNL     1       7.726   9.404   0.573  0.00  0.00    +0.136 C 
ATOM     23  C   UNL     1       5.278   9.531   0.366  0.00  0.00    +0.136 C 
ATOM     24  C   UNL     1       7.823  10.234  -0.702  0.00  0.00    +0.179 C 
ATOM     25  C   UNL     1       5.476  10.360  -0.896  0.00  0.00    +0.179 C 
ENDBRANCH  16  18
ENDBRANCH  11  16
TORSDOF 3
ENDMDL
MODEL 7
REMARK VINA RESULT:      -6.7      2.242      8.454
REMARK  Name = 56776079
REMARK  3 active torsions:
REMARK  status: ('A' for Active; 'I' for Inactive)
REMARK    1  A    between atoms: N_9  and  C_30
REMARK    2  A    between atoms: C_11  and  C_16
REMARK    3  A    between atoms: C_16  and  C_18
REMARK                            x       y       z     vdW  Elec       q    Type
REMARK                         _______ _______ _______ _____ _____    ______ ____
ROOT
ATOM      1  O   UNL     1      -7.081 -12.404  12.827  0.00  0.00    -0.492 OA
ATOM      3  O   UNL     1      -3.802 -13.583  13.838  0.00  0.00    -0.274 OA
ATOM      6  N   UNL     1      -3.913 -11.970  15.496  0.00  0.00    -0.300 N 
ATOM      8  N   UNL     1      -4.245 -10.749  12.604  0.00  0.00    -0.304 NA
ATOM     10  C   UNL     1      -5.925 -12.187  16.916  0.00  0.00    +0.010 C 
ATOM     11  C   UNL     1      -5.499 -10.900  17.678  0.00  0.00    +0.004 C 
ATOM     12  C   UNL     1      -4.686  -9.965  16.765  0.00  0.00    +0.023 C 
ATOM     13  C   UNL     1      -4.636 -12.863  16.407  0.00  0.00    +0.111 C 
ATOM     14  C   UNL     1      -6.922 -11.891  15.770  0.00  0.00    +0.008 C 
ATOM     15  C   UNL     1      -3.517 -10.685  16.090  0.00  0.00    +0.108 C 
ATOM     17  C   UNL     1      -7.493 -13.128  15.060  0.00  0.00    +0.041 C 
ATOM     19  C   UNL     1      -3.610 -12.419  14.210  0.00  0.00    +0.229 C 
ATOM     20  C   UNL     1      -8.141 -12.720  13.733  0.00  0.00    +0.229 C 
ATOM     21  C   UNL     1      -3.085 -11.415  13.199  0.00  0.00    +0.178 C 
ATOM     26  C   UNL     1      -4.795 -11.513  11.478  0.00  0.00    +0.120 C 
ATOM     27  C   UNL     1      -7.329 -11.539  11.796  0.00  0.00    +0.125 A 
ATOM     28  C   UNL     1      -6.192 -11.060  11.108  0.00  0.00    +0.010 A 
ATOM     29  C   UNL     1      -6.361 -10.143  10.059  0.00  0.00    +0.031 A 
ATOM     30  C   UNL     1      -7.636  -9.731   9.677  0.00  0.00    +0.030 A 
ATOM     31  C   UNL     1      -8.604 -11.136  11.389  0.00  0.00    +0.048 A 
ATOM     32  C   UNL     1      -8.755 -10.232  10.336  0.00  0.00    +0.027 A 
ATOM     37  H   UNL     1      -3.965  -9.829  12.262  0.00  0.00    +0.123 HD
ENDROOT
BRANCH  30   9
ATOM      5  O   UNL     1      -8.376  -7.004   6.563  0.00  0.00    -0.377 OA
ATOM      9  N   UNL     1      -7.791  -8.807   8.638  0.00  0.00    -0.326 N 
ATOM     33  C   UNL     1      -7.861  -9.274   7.249  0.00  0.00    +0.133 C 
ATOM     34  C   UNL     1      -8.524  -7.564   8.919  0.00  0.00    +0.133 C 
ATOM     35  C   UNL     1      -7.532  -8.124   6.303  0.00  0.00    +0.178 C 
ATOM     36  C   UNL     1      -8.159  -6.507   7.883  0.00  0.00    +0.178 C 
ENDBRANCH  30   9
BRANCH  11  16
ATOM     16  C   UNL     1      -6.670 -10.152  18.315  0.00  0.00    +0.100 C 
BRANCH  16  18
ATOM      2  O   UNL     1      -6.810 -11.640  20.155  0.00  0.00    -0.276 OA
ATOM      4  O   UNL     1     -11.593 -10.945  19.107  0.00  0.00    -0.377 OA
ATOM      7  N   UNL     1      -8.788 -11.203  19.022  0.00  0.00    -0.297 N 
ATOM     18  C   UNL     1      -7.420 -11.067  19.250  0.00  0.00    +0.216 C 
ATOM     22  C   UNL     1      -9.521 -10.639  17.882  0.00  0.00    +0.136 C 
ATOM     23  C   UNL     1      -9.592 -12.067  19.884  0.00  0.00    +0.136 C 
ATOM     24  C   UNL     1     -10.823 -10.004  18.355  0.00  0.00    +0.179 C 
ATOM     25  C   UNL     1     -10.887 -11.369  20.276  0.00  0.00    +0.179 C 
ENDBRANCH  16  18
ENDBRANCH  11  16
TORSDOF 3
ENDMDL
MODEL 8
REMARK VINA RESULT:      -6.6      4.977      8.726
REMARK  Name = 56776079
REMARK  3 active torsions:
REMARK  status: ('A' for Active; 'I' for Inactive)
REMARK    1  A    between atoms: N_9  and  C_30
REMARK    2  A    between atoms: C_11  and  C_16
REMARK    3  A    between atoms: C_16  and  C_18
REMARK                            x       y       z     vdW  Elec       q    Type
REMARK                         _______ _______ _______ _____ _____    ______ ____
ROOT
ATOM      1  O   UNL     1     -11.286  -8.017  15.858  0.00  0.00    -0.492 OA
ATOM      3  O   UNL     1     -11.695 -11.622  15.922  0.00  0.00    -0.274 OA
ATOM      6  N   UNL     1      -9.490 -11.721  15.218  0.00  0.00    -0.300 N 
ATOM      8  N   UNL     1     -11.305 -10.036  13.259  0.00  0.00    -0.304 NA
ATOM     10  C   UNL     1      -7.946 -10.508  16.721  0.00  0.00    +0.010 C 
ATOM     11  C   UNL     1      -6.778 -10.839  15.749  0.00  0.00    +0.004 C 
ATOM     12  C   UNL     1      -7.288 -10.983  14.305  0.00  0.00    +0.023 C 
ATOM     13  C   UNL     1      -8.981 -11.644  16.591  0.00  0.00    +0.111 C 
ATOM     14  C   UNL     1      -8.567  -9.118  16.445  0.00  0.00    +0.008 C 
ATOM     15  C   UNL     1      -8.460 -11.962  14.199  0.00  0.00    +0.108 C 
ATOM     17  C   UNL     1      -9.635  -8.665  17.452  0.00  0.00    +0.041 C 
ATOM     19  C   UNL     1     -10.866 -11.630  15.003  0.00  0.00    +0.229 C 
ATOM     20  C   UNL     1     -10.433  -7.489  16.877  0.00  0.00    +0.229 C 
ATOM     21  C   UNL     1     -11.366 -11.464  13.579  0.00  0.00    +0.178 C 
ATOM     26  C   UNL     1     -12.509  -9.325  13.706  0.00  0.00    +0.120 C 
ATOM     27  C   UNL     1     -11.700  -7.190  14.849  0.00  0.00    +0.125 A 
ATOM     28  C   UNL     1     -12.306  -7.825  13.743  0.00  0.00    +0.010 A 
ATOM     29  C   UNL     1     -12.728  -7.048  12.654  0.00  0.00    +0.031 A 
ATOM     30  C   UNL     1     -12.581  -5.663  12.672  0.00  0.00    +0.030 A 
ATOM     31  C   UNL     1     -11.579  -5.797  14.867  0.00  0.00    +0.048 A 
ATOM     32  C   UNL     1     -12.015  -5.039  13.779  0.00  0.00    +0.027 A 
ATOM     37  H   UNL     1     -11.220  -9.921  12.249  0.00  0.00    +0.123 HD
ENDROOT
BRANCH  30   9
ATOM      5  O   UNL     1     -13.579  -3.239   9.383  0.00  0.00    -0.377 OA
ATOM      9  N   UNL     1     -12.995  -4.900  11.574  0.00  0.00    -0.326 N 
ATOM     33  C   UNL     1     -13.592  -3.577  11.786  0.00  0.00    +0.133 C 
ATOM     34  C   UNL     1     -12.274  -5.065  10.304  0.00  0.00    +0.133 C 
ATOM     35  C   UNL     1     -14.392  -3.170  10.554  0.00  0.00    +0.178 C 
ATOM     36  C   UNL     1     -13.146  -4.579   9.151  0.00  0.00    +0.178 C 
ENDBRANCH  30   9
BRANCH  11  16
ATOM     16  C   UNL     1      -5.625  -9.836  15.819  0.00  0.00    +0.100 C 
BRANCH  16  18
ATOM      2  O   UNL     1      -4.080 -10.896  17.272  0.00  0.00    -0.276 OA
ATOM      4  O   UNL     1      -2.140 -11.965  12.850  0.00  0.00    -0.377 OA
ATOM      7  N   UNL     1      -3.494 -10.797  15.028  0.00  0.00    -0.297 N 
ATOM     18  C   UNL     1      -4.333 -10.555  16.114  0.00  0.00    +0.216 C 
ATOM     22  C   UNL     1      -3.703 -10.297  13.664  0.00  0.00    +0.136 C 
ATOM     23  C   UNL     1      -2.224 -11.493  15.225  0.00  0.00    +0.136 C 
ATOM     24  C   UNL     1      -3.440 -11.405  12.651  0.00  0.00    +0.179 C 
ATOM     25  C   UNL     1      -2.028 -12.553  14.150  0.00  0.00    +0.179 C 
ENDBRANCH  16  18
ENDBRANCH  11  16
TORSDOF 3
ENDMDL
MODEL 9
REMARK VINA RESULT:      -6.6     26.042     30.531
REMARK  Name = 56776079
REMARK  3 active torsions:
REMARK  status: ('A' for Active; 'I' for Inactive)
REMARK    1  A    between atoms: N_9  and  C_30
REMARK    2  A    between atoms: C_11  and  C_16
REMARK    3  A    between atoms: C_16  and  C_18
REMARK                            x       y       z     vdW  Elec       q    Type
REMARK                         _______ _______ _______ _____ _____    ______ ____
ROOT
ATOM      1  O   UNL     1     -11.226  10.426  35.011  0.00  0.00    -0.492 OA
ATOM      3  O   UNL     1     -10.877  11.271  38.522  0.00  0.00    -0.274 OA
ATOM      6  N   UNL     1      -8.780  10.298  38.380  0.00  0.00    -0.300 N 
ATOM      8  N   UNL     1     -11.088   8.316  37.533  0.00  0.00    -0.304 NA
ATOM     10  C   UNL     1      -7.377  11.291  36.604  0.00  0.00    +0.010 C 
ATOM     11  C   UNL     1      -6.268  10.251  36.930  0.00  0.00    +0.004 C 
ATOM     12  C   UNL     1      -6.878   8.952  37.485  0.00  0.00    +0.023 C 
ATOM     13  C   UNL     1      -8.163  11.541  37.906  0.00  0.00    +0.111 C 
ATOM     14  C   UNL     1      -8.294  10.832  35.445  0.00  0.00    +0.008 C 
ATOM     15  C   UNL     1      -7.828   9.212  38.656  0.00  0.00    +0.108 C 
ATOM     17  C   UNL     1      -9.328  11.867  34.977  0.00  0.00    +0.041 C 
ATOM     19  C   UNL     1     -10.160  10.265  38.588  0.00  0.00    +0.229 C 
ATOM     20  C   UNL     1     -10.403  11.187  34.123  0.00  0.00    +0.229 C 
ATOM     21  C   UNL     1     -10.822   8.922  38.839  0.00  0.00    +0.178 C 
ATOM     26  C   UNL     1     -12.362   8.776  36.967  0.00  0.00    +0.120 C 
ATOM     27  C   UNL     1     -11.900   9.340  34.520  0.00  0.00    +0.125 A 
ATOM     28  C   UNL     1     -12.469   8.482  35.486  0.00  0.00    +0.010 A 
ATOM     29  C   UNL     1     -13.148   7.329  35.063  0.00  0.00    +0.031 A 
ATOM     30  C   UNL     1     -13.288   7.047  33.706  0.00  0.00    +0.030 A 
ATOM     31  C   UNL     1     -12.066   9.060  33.161  0.00  0.00    +0.048 A 
ATOM     32  C   UNL     1     -12.755   7.914  32.757  0.00  0.00    +0.027 A 
ATOM     37  H   UNL     1     -11.129   7.302  37.635  0.00  0.00    +0.123 HD
ENDROOT
BRANCH  30   9
ATOM      5  O   UNL     1     -15.536   3.686  32.552  0.00  0.00    -0.377 OA
ATOM      9  N   UNL     1     -13.956   5.888  33.297  0.00  0.00    -0.326 N 
ATOM     33  C   UNL     1     -14.305   4.858  34.283  0.00  0.00    +0.133 C 
ATOM     34  C   UNL     1     -14.860   5.979  32.142  0.00  0.00    +0.133 C 
ATOM     35  C   UNL     1     -14.553   3.531  33.575  0.00  0.00    +0.178 C 
ATOM     36  C   UNL     1     -15.078   4.592  31.549  0.00  0.00    +0.178 C 
ENDBRANCH  30   9
BRANCH  11  16
ATOM     16  C   UNL     1      -5.345   9.954  35.747  0.00  0.00    +0.100 C 
BRANCH  16  18
ATOM      2  O   UNL     1      -3.440   8.959  36.750  0.00  0.00    -0.276 OA
ATOM      4  O   UNL     1      -1.491  13.090  34.854  0.00  0.00    -0.377 OA
ATOM      7  N   UNL     1      -3.184  11.126  35.957  0.00  0.00    -0.297 N 
ATOM     18  C   UNL     1      -3.907   9.960  36.201  0.00  0.00    +0.216 C 
ATOM     22  C   UNL     1      -3.738  12.375  35.423  0.00  0.00    +0.136 C 
ATOM     23  C   UNL     1      -1.781  11.216  36.360  0.00  0.00    +0.136 C 
ATOM     24  C   UNL     1      -2.820  12.942  34.347  0.00  0.00    +0.179 C 
ATOM     25  C   UNL     1      -0.946  11.826  35.243  0.00  0.00    +0.179 C 
ENDBRANCH  16  18
ENDBRANCH  11  16
TORSDOF 3
ENDMDL
MODEL 10
REMARK VINA RESULT:      -6.5      2.454      3.481
REMARK  Name = 56776079
REMARK  3 active torsions:
REMARK  status: ('A' for Active; 'I' for Inactive)
REMARK    1  A    between atoms: N_9  and  C_30
REMARK    2  A    between atoms: C_11  and  C_16
REMARK    3  A    between atoms: C_16  and  C_18
REMARK                            x       y       z     vdW  Elec       q    Type
REMARK                         _______ _______ _______ _____ _____    ______ ____
ROOT
ATOM      1  O   UNL     1      -5.629  -9.647  14.217  0.00  0.00    -0.492 OA
ATOM      3  O   UNL     1      -2.013  -9.921  14.077  0.00  0.00    -0.274 OA
ATOM      6  N   UNL     1      -2.368 -11.699  12.635  0.00  0.00    -0.300 N 
ATOM      8  N   UNL     1      -3.800 -12.104  15.419  0.00  0.00    -0.304 NA
ATOM     10  C   UNL     1      -3.754 -11.089  10.681  0.00  0.00    +0.010 C 
ATOM     11  C   UNL     1      -3.705 -12.571  10.212  0.00  0.00    +0.004 C 
ATOM     12  C   UNL     1      -3.554 -13.523  11.412  0.00  0.00    +0.023 C 
ATOM     13  C   UNL     1      -2.456 -10.817  11.466  0.00  0.00    +0.111 C 
ATOM     14  C   UNL     1      -5.019 -10.777  11.515  0.00  0.00    +0.008 C 
ATOM     15  C   UNL     1      -2.383 -13.134  12.317  0.00  0.00    +0.108 C 
ATOM     17  C   UNL     1      -5.205  -9.300  11.897  0.00  0.00    +0.041 C 
ATOM     19  C   UNL     1      -2.214 -11.130  13.900  0.00  0.00    +0.229 C 
ATOM     20  C   UNL     1      -6.244  -9.174  13.016  0.00  0.00    +0.229 C 
ATOM     21  C   UNL     1      -2.369 -12.022  15.118  0.00  0.00    +0.178 C 
ATOM     26  C   UNL     1      -4.247 -10.982  16.253  0.00  0.00    +0.120 C 
ATOM     27  C   UNL     1      -6.423 -10.139  15.217  0.00  0.00    +0.125 A 
ATOM     28  C   UNL     1      -5.754 -10.832  16.249  0.00  0.00    +0.010 A 
ATOM     29  C   UNL     1      -6.502 -11.395  17.294  0.00  0.00    +0.031 A 
ATOM     30  C   UNL     1      -7.887 -11.248  17.333  0.00  0.00    +0.030 A 
ATOM     31  C   UNL     1      -7.811  -9.978  15.278  0.00  0.00    +0.048 A 
ATOM     32  C   UNL     1      -8.538 -10.535  16.331  0.00  0.00    +0.027 A 
ATOM     37  H   UNL     1      -3.988 -12.972  15.921  0.00  0.00    +0.123 HD
ENDROOT
BRANCH  30   9
ATOM      5  O   UNL     1      -9.999 -12.784  20.628  0.00  0.00    -0.377 OA
ATOM      9  N   UNL     1      -8.623 -11.825  18.373  0.00  0.00    -0.326 N 
ATOM     33  C   UNL     1      -7.979 -12.778  19.284  0.00  0.00    +0.133 C 
ATOM     34  C   UNL     1      -9.725 -11.047  18.958  0.00  0.00    +0.133 C 
ATOM     35  C   UNL     1      -9.040 -13.621  19.982  0.00  0.00    +0.178 C 
ATOM     36  C   UNL     1     -10.693 -11.984  19.672  0.00  0.00    +0.178 C 
ENDBRANCH  30   9
BRANCH  11  16
ATOM     16  C   UNL     1      -4.898 -12.977   9.346  0.00  0.00    +0.100 C 
BRANCH  16  18
ATOM      2  O   UNL     1      -3.862 -13.699   7.339  0.00  0.00    -0.276 OA
ATOM      4  O   UNL     1      -6.586  -9.904   5.713  0.00  0.00    -0.377 OA
ATOM      7  N   UNL     1      -5.042 -11.702   7.238  0.00  0.00    -0.297 N 
ATOM     18  C   UNL     1      -4.548 -12.833   7.886  0.00  0.00    +0.216 C 
ATOM     22  C   UNL     1      -5.752 -10.592   7.885  0.00  0.00    +0.136 C 
ATOM     23  C   UNL     1      -4.755 -11.486   5.821  0.00  0.00    +0.136 C 
ATOM     24  C   UNL     1      -6.969 -10.192   7.060  0.00  0.00    +0.179 C 
ATOM     25  C   UNL     1      -6.015 -11.055   5.084  0.00  0.00    +0.179 C 
ENDBRANCH  16  18
ENDBRANCH  11  16
TORSDOF 3
ENDMDL
