MODEL 1
REMARK VINA RESULT:      -6.6      0.000      0.000
REMARK  Name = 51138067
REMARK  10 active torsions:
REMARK  status: ('A' for Active; 'I' for Inactive)
REMARK    1  A    between atoms: N_3  and  C_21
REMARK    2  A    between atoms: N_4  and  C_22
REMARK    3  A    between atoms: C_5  and  C_9
REMARK    4  A    between atoms: C_7  and  C_16
REMARK    5  A    between atoms: C_9  and  C_12
REMARK    6  A    between atoms: C_12  and  C_19
REMARK    7  A    between atoms: C_12  and  C_20
REMARK    8  A    between atoms: C_21  and  C_23
REMARK    9  A    between atoms: C_22  and  C_24
REMARK   10  A    between atoms: C_25  and  C_27
REMARK                            x       y       z     vdW  Elec       q    Type
REMARK                         _______ _______ _______ _____ _____    ______ ____
ROOT
ATOM      2  N   UNL     1      -6.684 -11.091  16.109  0.00  0.00    -0.299 NA
ATOM      3  N   UNL     1      -3.843 -10.076  12.060  0.00  0.00    -0.335 N 
ATOM      5  C   UNL     1      -5.295 -11.087  16.588  0.00  0.00    +0.085 C 
ATOM      6  C   UNL     1      -4.215 -10.982  15.507  0.00  0.00    -0.021 A 
ATOM      7  C   UNL     1      -7.102  -9.864  15.448  0.00  0.00    +0.145 C 
ATOM      8  C   UNL     1      -4.436 -10.558  14.165  0.00  0.00    +0.008 A 
ATOM     10  C   UNL     1      -6.993  -9.979  13.929  0.00  0.00    +0.065 C 
ATOM     11  C   UNL     1      -5.592 -10.118  13.433  0.00  0.00    -0.020 A 
ATOM     13  C   UNL     1      -3.356 -10.493  13.276  0.00  0.00    +0.050 A 
ATOM     14  C   UNL     1      -5.184  -9.843  12.144  0.00  0.00    +0.091 A 
ATOM     15  C   UNL     1      -2.869 -11.248  15.866  0.00  0.00    +0.006 A 
ATOM     17  C   UNL     1      -2.044 -10.804  13.637  0.00  0.00    +0.026 A 
ATOM     18  C   UNL     1      -1.816 -11.173  14.955  0.00  0.00    +0.002 A 
ATOM     28  H   UNL     1      -6.864 -11.905  15.524  0.00  0.00    +0.123 HD
ENDROOT
BRANCH   7  16
ATOM      1  O   UNL     1      -9.100 -10.433  16.623  0.00  0.00    -0.274 OA
ATOM      4  N   UNL     1      -9.130  -8.623  15.158  0.00  0.00    -0.310 N 
ATOM     16  C   UNL     1      -8.542  -9.685  15.824  0.00  0.00    +0.231 C 
ATOM     29  H   UNL     1      -8.566  -8.054  14.534  0.00  0.00    +0.149 HD
BRANCH   4  22
ATOM     22  C   UNL     1     -10.516  -8.254  15.328  0.00  0.00    +0.131 C 
BRANCH  22  24
ATOM     24  C   UNL     1     -10.611  -7.168  16.348  0.00  0.00    -0.016 C 
ATOM     26  C   UNL     1     -11.283  -6.027  16.162  0.00  0.00    +0.005 C 
ENDBRANCH  22  24
ENDBRANCH   4  22
ENDBRANCH   7  16
BRANCH   5   9
ATOM      9  C   UNL     1      -5.169 -12.373  17.426  0.00  0.00    +0.026 C 
BRANCH   9  12
ATOM     12  C   UNL     1      -5.044 -12.097  18.928  0.00  0.00    -0.015 C 
ATOM     19  C   UNL     1      -5.620 -10.713  19.235  0.00  0.00    +0.007 C 
ATOM     20  C   UNL     1      -3.601 -12.179  19.425  0.00  0.00    +0.007 C 
ENDBRANCH   9  12
ENDBRANCH   5   9
BRANCH   3  21
ATOM     21  C   UNL     1      -3.057  -9.885  10.859  0.00  0.00    +0.210 C 
BRANCH  21  23
ATOM     23  C   UNL     1      -3.888  -9.893   9.649  0.00  0.00    -0.081 C 
ATOM     25  C   UNL     1      -4.567  -9.897   8.659  0.00  0.00    -0.104 C 
ATOM     27  C   UNL     1      -5.396  -9.904   7.454  0.00  0.00    +0.106 C 
ENDBRANCH  21  23
ENDBRANCH   3  21
TORSDOF 7
ENDMDL
MODEL 2
REMARK VINA RESULT:      -6.4      1.751      6.615
REMARK  Name = 51138067
REMARK  10 active torsions:
REMARK  status: ('A' for Active; 'I' for Inactive)
REMARK    1  A    between atoms: N_3  and  C_21
REMARK    2  A    between atoms: N_4  and  C_22
REMARK    3  A    between atoms: C_5  and  C_9
REMARK    4  A    between atoms: C_7  and  C_16
REMARK    5  A    between atoms: C_9  and  C_12
REMARK    6  A    between atoms: C_12  and  C_19
REMARK    7  A    between atoms: C_12  and  C_20
REMARK    8  A    between atoms: C_21  and  C_23
REMARK    9  A    between atoms: C_22  and  C_24
REMARK   10  A    between atoms: C_25  and  C_27
REMARK                            x       y       z     vdW  Elec       q    Type
REMARK                         _______ _______ _______ _____ _____    ______ ____
ROOT
ATOM      2  N   UNL     1      -4.464 -10.556  14.552  0.00  0.00    -0.299 NA
ATOM      3  N   UNL     1      -8.698  -9.531  17.107  0.00  0.00    -0.335 N 
ATOM      5  C   UNL     1      -4.307 -11.207  15.860  0.00  0.00    +0.085 C 
ATOM      6  C   UNL     1      -5.388 -10.891  16.898  0.00  0.00    -0.021 A 
ATOM      7  C   UNL     1      -5.653 -10.956  13.813  0.00  0.00    +0.145 C 
ATOM      8  C   UNL     1      -6.662 -10.322  16.609  0.00  0.00    +0.008 A 
ATOM     10  C   UNL     1      -6.795  -9.959  14.005  0.00  0.00    +0.065 C 
ATOM     11  C   UNL     1      -7.320  -9.904  15.401  0.00  0.00    -0.020 A 
ATOM     13  C   UNL     1      -7.569 -10.095  17.652  0.00  0.00    +0.050 A 
ATOM     14  C   UNL     1      -8.562  -9.416  15.755  0.00  0.00    +0.091 A 
ATOM     15  C   UNL     1      -5.158 -11.256  18.249  0.00  0.00    +0.006 A 
ATOM     17  C   UNL     1      -7.303 -10.419  18.984  0.00  0.00    +0.026 A 
ATOM     18  C   UNL     1      -6.083 -11.016  19.265  0.00  0.00    +0.002 A 
ATOM     28  H   UNL     1      -4.409  -9.543  14.641  0.00  0.00    +0.123 HD
ENDROOT
BRANCH   7  16
ATOM      1  O   UNL     1      -6.032 -11.222  11.471  0.00  0.00    -0.274 OA
ATOM      4  N   UNL     1      -3.899 -10.650  12.212  0.00  0.00    -0.310 N 
ATOM     16  C   UNL     1      -5.240 -10.956  12.373  0.00  0.00    +0.231 C 
ATOM     29  H   UNL     1      -3.340 -10.423  13.028  0.00  0.00    +0.149 HD
BRANCH   4  22
ATOM     22  C   UNL     1      -3.248 -10.605  10.924  0.00  0.00    +0.131 C 
BRANCH  22  24
ATOM     24  C   UNL     1      -3.383  -9.232  10.356  0.00  0.00    -0.016 C 
ATOM     26  C   UNL     1      -4.054  -8.952   9.232  0.00  0.00    +0.005 C 
ENDBRANCH  22  24
ENDBRANCH   4  22
ENDBRANCH   7  16
BRANCH   5   9
ATOM      9  C   UNL     1      -2.899 -10.799  16.330  0.00  0.00    +0.026 C 
BRANCH   9  12
ATOM     12  C   UNL     1      -1.917 -10.597  15.172  0.00  0.00    -0.015 C 
ATOM     19  C   UNL     1      -1.481 -11.963  14.638  0.00  0.00    +0.007 C 
ATOM     20  C   UNL     1      -0.688  -9.783  15.577  0.00  0.00    +0.007 C 
ENDBRANCH   9  12
ENDBRANCH   5   9
BRANCH   3  21
ATOM     21  C   UNL     1      -9.878  -9.130  17.844  0.00  0.00    +0.210 C 
BRANCH  21  23
ATOM     23  C   UNL     1     -10.596  -8.036  17.180  0.00  0.00    -0.081 C 
ATOM     25  C   UNL     1     -11.186  -7.142  16.638  0.00  0.00    -0.104 C 
ATOM     27  C   UNL     1     -11.903  -6.052  15.976  0.00  0.00    +0.106 C 
ENDBRANCH  21  23
ENDBRANCH   3  21
TORSDOF 7
ENDMDL
MODEL 3
REMARK VINA RESULT:      -6.4     19.431     23.939
REMARK  Name = 51138067
REMARK  10 active torsions:
REMARK  status: ('A' for Active; 'I' for Inactive)
REMARK    1  A    between atoms: N_3  and  C_21
REMARK    2  A    between atoms: N_4  and  C_22
REMARK    3  A    between atoms: C_5  and  C_9
REMARK    4  A    between atoms: C_7  and  C_16
REMARK    5  A    between atoms: C_9  and  C_12
REMARK    6  A    between atoms: C_12  and  C_19
REMARK    7  A    between atoms: C_12  and  C_20
REMARK    8  A    between atoms: C_21  and  C_23
REMARK    9  A    between atoms: C_22  and  C_24
REMARK   10  A    between atoms: C_25  and  C_27
REMARK                            x       y       z     vdW  Elec       q    Type
REMARK                         _______ _______ _______ _____ _____    ______ ____
ROOT
ATOM      2  N   UNL     1     -15.168   2.758  28.862  0.00  0.00    -0.299 NA
ATOM      3  N   UNL     1     -15.938   6.420  32.253  0.00  0.00    -0.335 N 
ATOM      5  C   UNL     1     -14.999   2.125  30.177  0.00  0.00    +0.085 C 
ATOM      6  C   UNL     1     -15.002   3.072  31.381  0.00  0.00    -0.021 A 
ATOM      7  C   UNL     1     -16.450   3.418  28.665  0.00  0.00    +0.145 C 
ATOM      8  C   UNL     1     -15.480   4.414  31.368  0.00  0.00    +0.008 A 
ATOM     10  C   UNL     1     -16.358   4.918  28.937  0.00  0.00    +0.065 C 
ATOM     11  C   UNL     1     -16.068   5.257  30.362  0.00  0.00    -0.020 A 
ATOM     13  C   UNL     1     -15.440   5.173  32.544  0.00  0.00    +0.050 A 
ATOM     14  C   UNL     1     -16.323   6.481  30.946  0.00  0.00    +0.091 A 
ATOM     15  C   UNL     1     -14.573   2.573  32.638  0.00  0.00    +0.006 A 
ATOM     17  C   UNL     1     -14.969   4.677  33.762  0.00  0.00    +0.026 A 
ATOM     18  C   UNL     1     -14.547   3.355  33.792  0.00  0.00    +0.002 A 
ATOM     28  H   UNL     1     -14.394   3.390  28.661  0.00  0.00    +0.123 HD
ENDROOT
BRANCH   7  16
ATOM      1  O   UNL     1     -17.909   2.853  26.862  0.00  0.00    -0.274 OA
ATOM      4  N   UNL     1     -15.699   3.417  26.391  0.00  0.00    -0.310 N 
ATOM     16  C   UNL     1     -16.786   3.201  27.221  0.00  0.00    +0.231 C 
ATOM     29  H   UNL     1     -14.820   3.727  26.795  0.00  0.00    +0.149 HD
BRANCH   4  22
ATOM     22  C   UNL     1     -15.754   3.254  24.958  0.00  0.00    +0.131 C 
BRANCH  22  24
ATOM     24  C   UNL     1     -15.571   4.585  24.308  0.00  0.00    -0.016 C 
ATOM     26  C   UNL     1     -14.583   4.867  23.451  0.00  0.00    +0.005 C 
ENDBRANCH  22  24
ENDBRANCH   4  22
ENDBRANCH   7  16
BRANCH   5   9
ATOM      9  C   UNL     1     -13.689   1.325  30.059  0.00  0.00    +0.026 C 
BRANCH   9  12
ATOM     12  C   UNL     1     -13.855  -0.152  30.430  0.00  0.00    -0.015 C 
ATOM     19  C   UNL     1     -13.343  -1.021  29.279  0.00  0.00    +0.007 C 
ATOM     20  C   UNL     1     -15.304  -0.520  30.751  0.00  0.00    +0.007 C 
ENDBRANCH   9  12
ENDBRANCH   5   9
BRANCH   3  21
ATOM     21  C   UNL     1     -16.063   7.517  33.190  0.00  0.00    +0.210 C 
BRANCH  21  23
ATOM     23  C   UNL     1     -14.756   8.055  33.586  0.00  0.00    -0.081 C 
ATOM     25  C   UNL     1     -13.687   8.497  33.908  0.00  0.00    -0.104 C 
ATOM     27  C   UNL     1     -12.384   9.033  34.300  0.00  0.00    +0.106 C 
ENDBRANCH  21  23
ENDBRANCH   3  21
TORSDOF 7
ENDMDL
MODEL 4
REMARK VINA RESULT:      -6.4     27.842     29.806
REMARK  Name = 51138067
REMARK  10 active torsions:
REMARK  status: ('A' for Active; 'I' for Inactive)
REMARK    1  A    between atoms: N_3  and  C_21
REMARK    2  A    between atoms: N_4  and  C_22
REMARK    3  A    between atoms: C_5  and  C_9
REMARK    4  A    between atoms: C_7  and  C_16
REMARK    5  A    between atoms: C_9  and  C_12
REMARK    6  A    between atoms: C_12  and  C_19
REMARK    7  A    between atoms: C_12  and  C_20
REMARK    8  A    between atoms: C_21  and  C_23
REMARK    9  A    between atoms: C_22  and  C_24
REMARK   10  A    between atoms: C_25  and  C_27
REMARK                            x       y       z     vdW  Elec       q    Type
REMARK                         _______ _______ _______ _____ _____    ______ ____
ROOT
ATOM      2  N   UNL     1      14.529   8.367  21.677  0.00  0.00    -0.299 NA
ATOM      3  N   UNL     1      19.304   6.964  20.819  0.00  0.00    -0.335 N 
ATOM      5  C   UNL     1      15.315   9.608  21.679  0.00  0.00    +0.085 C 
ATOM      6  C   UNL     1      16.836   9.437  21.621  0.00  0.00    -0.021 A 
ATOM      7  C   UNL     1      14.650   7.572  20.464  0.00  0.00    +0.145 C 
ATOM      8  C   UNL     1      17.513   8.245  21.232  0.00  0.00    +0.008 A 
ATOM     10  C   UNL     1      15.680   6.455  20.624  0.00  0.00    +0.065 C 
ATOM     11  C   UNL     1      17.080   6.945  20.798  0.00  0.00    -0.020 A 
ATOM     13  C   UNL     1      18.913   8.223  21.208  0.00  0.00    +0.050 A 
ATOM     14  C   UNL     1      18.211   6.189  20.565  0.00  0.00    +0.091 A 
ATOM     15  C   UNL     1      17.656  10.561  21.895  0.00  0.00    +0.006 A 
ATOM     17  C   UNL     1      19.704   9.329  21.527  0.00  0.00    +0.026 A 
ATOM     18  C   UNL     1      19.049  10.506  21.861  0.00  0.00    +0.002 A 
ATOM     28  H   UNL     1      14.730   7.808  22.505  0.00  0.00    +0.123 HD
ENDROOT
BRANCH   7  16
ATOM      1  O   UNL     1      12.833   6.786  19.130  0.00  0.00    -0.274 OA
ATOM      4  N   UNL     1      12.664   6.668  21.450  0.00  0.00    -0.310 N 
ATOM     16  C   UNL     1      13.297   6.965  20.254  0.00  0.00    +0.231 C 
ATOM     29  H   UNL     1      13.151   6.836  22.325  0.00  0.00    +0.149 HD
BRANCH   4  22
ATOM     22  C   UNL     1      11.341   6.094  21.522  0.00  0.00    +0.131 C 
BRANCH  22  24
ATOM     24  C   UNL     1      10.379   7.142  21.974  0.00  0.00    -0.016 C 
ATOM     26  C   UNL     1      10.747   8.338  22.449  0.00  0.00    +0.005 C 
ENDBRANCH  22  24
ENDBRANCH   4  22
ENDBRANCH   7  16
BRANCH   5   9
ATOM      9  C   UNL     1      14.853  10.359  22.942  0.00  0.00    +0.026 C 
BRANCH   9  12
ATOM     12  C   UNL     1      13.508  11.068  22.757  0.00  0.00    -0.015 C 
ATOM     19  C   UNL     1      13.650  12.143  21.676  0.00  0.00    +0.007 C 
ATOM     20  C   UNL     1      12.992  11.700  24.050  0.00  0.00    +0.007 C 
ENDBRANCH   9  12
ENDBRANCH   5   9
BRANCH   3  21
ATOM     21  C   UNL     1      20.672   6.514  20.675  0.00  0.00    +0.210 C 
BRANCH  21  23
ATOM     23  C   UNL     1      21.278   6.168  21.966  0.00  0.00    -0.081 C 
ATOM     25  C   UNL     1      21.772   5.884  23.023  0.00  0.00    -0.104 C 
ATOM     27  C   UNL     1      22.374   5.538  24.310  0.00  0.00    +0.106 C 
ENDBRANCH  21  23
ENDBRANCH   3  21
TORSDOF 7
ENDMDL
MODEL 5
REMARK VINA RESULT:      -6.3     19.588     22.259
REMARK  Name = 51138067
REMARK  10 active torsions:
REMARK  status: ('A' for Active; 'I' for Inactive)
REMARK    1  A    between atoms: N_3  and  C_21
REMARK    2  A    between atoms: N_4  and  C_22
REMARK    3  A    between atoms: C_5  and  C_9
REMARK    4  A    between atoms: C_7  and  C_16
REMARK    5  A    between atoms: C_9  and  C_12
REMARK    6  A    between atoms: C_12  and  C_19
REMARK    7  A    between atoms: C_12  and  C_20
REMARK    8  A    between atoms: C_21  and  C_23
REMARK    9  A    between atoms: C_22  and  C_24
REMARK   10  A    between atoms: C_25  and  C_27
REMARK                            x       y       z     vdW  Elec       q    Type
REMARK                         _______ _______ _______ _____ _____    ______ ____
ROOT
ATOM      2  N   UNL     1     -13.083   9.249  21.717  0.00  0.00    -0.299 NA
ATOM      3  N   UNL     1     -10.885  11.129  17.577  0.00  0.00    -0.335 N 
ATOM      5  C   UNL     1     -12.362   8.125  21.104  0.00  0.00    +0.085 C 
ATOM      6  C   UNL     1     -11.755   8.393  19.723  0.00  0.00    -0.021 A 
ATOM      7  C   UNL     1     -12.257  10.408  22.021  0.00  0.00    +0.145 C 
ATOM      8  C   UNL     1     -11.540   9.683  19.157  0.00  0.00    +0.008 A 
ATOM     10  C   UNL     1     -12.345  11.465  20.921  0.00  0.00    +0.065 C 
ATOM     11  C   UNL     1     -11.769  11.027  19.615  0.00  0.00    -0.020 A 
ATOM     13  C   UNL     1     -10.962   9.792  17.887  0.00  0.00    +0.050 A 
ATOM     14  C   UNL     1     -11.362  11.880  18.610  0.00  0.00    +0.091 A 
ATOM     15  C   UNL     1     -11.291   7.291  18.961  0.00  0.00    +0.006 A 
ATOM     17  C   UNL     1     -10.555   8.690  17.132  0.00  0.00    +0.026 A 
ATOM     18  C   UNL     1     -10.719   7.433  17.698  0.00  0.00    +0.002 A 
ATOM     28  H   UNL     1     -13.892   9.511  21.156  0.00  0.00    +0.123 HD
ENDROOT
BRANCH   7  16
ATOM      1  O   UNL     1     -13.951  11.455  23.337  0.00  0.00    -0.274 OA
ATOM      4  N   UNL     1     -11.926  10.897  24.342  0.00  0.00    -0.310 N 
ATOM     16  C   UNL     1     -12.822  10.972  23.289  0.00  0.00    +0.231 C 
ATOM     29  H   UNL     1     -11.023  10.455  24.196  0.00  0.00    +0.149 HD
BRANCH   4  22
ATOM     22  C   UNL     1     -12.220  11.392  25.666  0.00  0.00    +0.131 C 
BRANCH  22  24
ATOM     24  C   UNL     1     -11.639  10.458  26.676  0.00  0.00    -0.016 C 
ATOM     26  C   UNL     1     -10.330  10.205  26.792  0.00  0.00    +0.005 C 
ENDBRANCH  22  24
ENDBRANCH   4  22
ENDBRANCH   7  16
BRANCH   5   9
ATOM      9  C   UNL     1     -13.381   6.971  21.087  0.00  0.00    +0.026 C 
BRANCH   9  12
ATOM     12  C   UNL     1     -14.822   7.450  20.890  0.00  0.00    -0.015 C 
ATOM     19  C   UNL     1     -15.755   6.616  21.772  0.00  0.00    +0.007 C 
ATOM     20  C   UNL     1     -15.277   7.368  19.433  0.00  0.00    +0.007 C 
ENDBRANCH   9  12
ENDBRANCH   5   9
BRANCH   3  21
ATOM     21  C   UNL     1     -10.357  11.678  16.346  0.00  0.00    +0.210 C 
BRANCH  21  23
ATOM     23  C   UNL     1      -9.171  12.510  16.578  0.00  0.00    -0.081 C 
ATOM     25  C   UNL     1      -8.198  13.189  16.766  0.00  0.00    -0.104 C 
ATOM     27  C   UNL     1      -7.015  14.017  16.998  0.00  0.00    +0.106 C 
ENDBRANCH  21  23
ENDBRANCH   3  21
TORSDOF 7
ENDMDL
MODEL 6
REMARK VINA RESULT:      -6.2     27.664     29.526
REMARK  Name = 51138067
REMARK  10 active torsions:
REMARK  status: ('A' for Active; 'I' for Inactive)
REMARK    1  A    between atoms: N_3  and  C_21
REMARK    2  A    between atoms: N_4  and  C_22
REMARK    3  A    between atoms: C_5  and  C_9
REMARK    4  A    between atoms: C_7  and  C_16
REMARK    5  A    between atoms: C_9  and  C_12
REMARK    6  A    between atoms: C_12  and  C_19
REMARK    7  A    between atoms: C_12  and  C_20
REMARK    8  A    between atoms: C_21  and  C_23
REMARK    9  A    between atoms: C_22  and  C_24
REMARK   10  A    between atoms: C_25  and  C_27
REMARK                            x       y       z     vdW  Elec       q    Type
REMARK                         _______ _______ _______ _____ _____    ______ ____
ROOT
ATOM      2  N   UNL     1      13.044   9.102  20.500  0.00  0.00    -0.299 NA
ATOM      3  N   UNL     1      18.004   9.220  21.447  0.00  0.00    -0.335 N 
ATOM      5  C   UNL     1      13.538   7.749  20.209  0.00  0.00    +0.085 C 
ATOM      6  C   UNL     1      15.059   7.569  20.243  0.00  0.00    -0.021 A 
ATOM      7  C   UNL     1      13.328   9.574  21.848  0.00  0.00    +0.145 C 
ATOM      8  C   UNL     1      15.978   8.475  20.845  0.00  0.00    +0.008 A 
ATOM     10  C   UNL     1      14.580  10.449  21.884  0.00  0.00    +0.065 C 
ATOM     11  C   UNL     1      15.839   9.716  21.559  0.00  0.00    -0.020 A 
ATOM     13  C   UNL     1      17.349   8.187  20.819  0.00  0.00    +0.050 A 
ATOM     14  C   UNL     1      17.106  10.141  21.900  0.00  0.00    +0.091 A 
ATOM     15  C   UNL     1      15.613   6.379  19.708  0.00  0.00    +0.006 A 
ATOM     17  C   UNL     1      17.879   7.030  20.245  0.00  0.00    +0.026 A 
ATOM     18  C   UNL     1      16.984   6.121  19.699  0.00  0.00    +0.002 A 
ATOM     28  H   UNL     1      13.371   9.766  19.801  0.00  0.00    +0.123 HD
ENDROOT
BRANCH   7  16
ATOM      1  O   UNL     1      11.454  10.981  21.392  0.00  0.00    -0.274 OA
ATOM      4  N   UNL     1      11.946  10.439  23.603  0.00  0.00    -0.310 N 
ATOM     16  C   UNL     1      12.140  10.402  22.232  0.00  0.00    +0.231 C 
ATOM     29  H   UNL     1      12.562   9.901  24.206  0.00  0.00    +0.149 HD
BRANCH   4  22
ATOM     22  C   UNL     1      10.882  11.185  24.231  0.00  0.00    +0.131 C 
BRANCH  22  24
ATOM     24  C   UNL     1      11.409  12.511  24.670  0.00  0.00    -0.016 C 
ATOM     26  C   UNL     1      10.791  13.303  25.554  0.00  0.00    +0.005 C 
ENDBRANCH  22  24
ENDBRANCH   4  22
ENDBRANCH   7  16
BRANCH   5   9
ATOM      9  C   UNL     1      12.933   7.401  18.836  0.00  0.00    +0.026 C 
BRANCH   9  12
ATOM     12  C   UNL     1      12.819   8.616  17.909  0.00  0.00    -0.015 C 
ATOM     19  C   UNL     1      11.465   8.579  17.196  0.00  0.00    +0.007 C 
ATOM     20  C   UNL     1      13.946   8.679  16.878  0.00  0.00    +0.007 C 
ENDBRANCH   9  12
ENDBRANCH   5   9
BRANCH   3  21
ATOM     21  C   UNL     1      19.436   9.321  21.630  0.00  0.00    +0.210 C 
BRANCH  21  23
ATOM     23  C   UNL     1      19.892   8.604  22.827  0.00  0.00    -0.081 C 
ATOM     25  C   UNL     1      20.265   8.016  23.805  0.00  0.00    -0.104 C 
ATOM     27  C   UNL     1      20.719   7.300  24.997  0.00  0.00    +0.106 C 
ENDBRANCH  21  23
ENDBRANCH   3  21
TORSDOF 7
ENDMDL
MODEL 7
REMARK VINA RESULT:      -6.2     27.181     29.166
REMARK  Name = 51138067
REMARK  10 active torsions:
REMARK  status: ('A' for Active; 'I' for Inactive)
REMARK    1  A    between atoms: N_3  and  C_21
REMARK    2  A    between atoms: N_4  and  C_22
REMARK    3  A    between atoms: C_5  and  C_9
REMARK    4  A    between atoms: C_7  and  C_16
REMARK    5  A    between atoms: C_9  and  C_12
REMARK    6  A    between atoms: C_12  and  C_19
REMARK    7  A    between atoms: C_12  and  C_20
REMARK    8  A    between atoms: C_21  and  C_23
REMARK    9  A    between atoms: C_22  and  C_24
REMARK   10  A    between atoms: C_25  and  C_27
REMARK                            x       y       z     vdW  Elec       q    Type
REMARK                         _______ _______ _______ _____ _____    ______ ____
ROOT
ATOM      2  N   UNL     1      13.833   9.096  18.461  0.00  0.00    -0.299 NA
ATOM      3  N   UNL     1      11.382  11.400  22.228  0.00  0.00    -0.335 N 
ATOM      5  C   UNL     1      12.921   8.087  19.019  0.00  0.00    +0.085 C 
ATOM      6  C   UNL     1      12.188   8.486  20.303  0.00  0.00    -0.021 A 
ATOM      7  C   UNL     1      13.185  10.321  18.016  0.00  0.00    +0.145 C 
ATOM      8  C   UNL     1      12.054   9.817  20.792  0.00  0.00    +0.008 A 
ATOM     10  C   UNL     1      13.260  11.414  19.081  0.00  0.00    +0.065 C 
ATOM     11  C   UNL     1      12.486  11.105  20.320  0.00  0.00    -0.020 A 
ATOM     13  C   UNL     1      11.344  10.049  21.977  0.00  0.00    +0.050 A 
ATOM     14  C   UNL     1      12.061  12.045  21.236  0.00  0.00    +0.091 A 
ATOM     15  C   UNL     1      11.515   7.478  21.040  0.00  0.00    +0.006 A 
ATOM     17  C   UNL     1      10.728   9.036  22.714  0.00  0.00    +0.026 A 
ATOM     18  C   UNL     1      10.815   7.743  22.217  0.00  0.00    +0.002 A 
ATOM     28  H   UNL     1      14.593   9.295  19.108  0.00  0.00    +0.123 HD
ENDROOT
BRANCH   7  16
ATOM      1  O   UNL     1      14.559   9.956  16.099  0.00  0.00    -0.274 OA
ATOM      4  N   UNL     1      13.918  12.131  16.630  0.00  0.00    -0.310 N 
ATOM     16  C   UNL     1      13.957  10.759  16.810  0.00  0.00    +0.231 C 
ATOM     29  H   UNL     1      13.368  12.700  17.267  0.00  0.00    +0.149 HD
BRANCH   4  22
ATOM     22  C   UNL     1      14.600  12.807  15.552  0.00  0.00    +0.131 C 
BRANCH  22  24
ATOM     24  C   UNL     1      15.953  13.229  16.019  0.00  0.00    -0.016 C 
ATOM     26  C   UNL     1      17.083  12.578  15.718  0.00  0.00    +0.005 C 
ENDBRANCH  22  24
ENDBRANCH   4  22
ENDBRANCH   7  16
BRANCH   5   9
ATOM      9  C   UNL     1      13.794   6.832  19.202  0.00  0.00    +0.026 C 
BRANCH   9  12
ATOM     12  C   UNL     1      15.200   7.153  19.718  0.00  0.00    -0.015 C 
ATOM     19  C   UNL     1      16.206   6.204  19.063  0.00  0.00    +0.007 C 
ATOM     20  C   UNL     1      15.308   7.051  21.240  0.00  0.00    +0.007 C 
ENDBRANCH   9  12
ENDBRANCH   5   9
BRANCH   3  21
ATOM     21  C   UNL     1      10.776  12.063  23.363  0.00  0.00    +0.210 C 
BRANCH  21  23
ATOM     23  C   UNL     1      11.760  12.379  24.406  0.00  0.00    -0.081 C 
ATOM     25  C   UNL     1      12.563  12.638  25.261  0.00  0.00    -0.104 C 
ATOM     27  C   UNL     1      13.542  12.953  26.300  0.00  0.00    +0.106 C 
ENDBRANCH  21  23
ENDBRANCH   3  21
TORSDOF 7
ENDMDL
MODEL 8
REMARK VINA RESULT:      -6.0      2.334      4.157
REMARK  Name = 51138067
REMARK  10 active torsions:
REMARK  status: ('A' for Active; 'I' for Inactive)
REMARK    1  A    between atoms: N_3  and  C_21
REMARK    2  A    between atoms: N_4  and  C_22
REMARK    3  A    between atoms: C_5  and  C_9
REMARK    4  A    between atoms: C_7  and  C_16
REMARK    5  A    between atoms: C_9  and  C_12
REMARK    6  A    between atoms: C_12  and  C_19
REMARK    7  A    between atoms: C_12  and  C_20
REMARK    8  A    between atoms: C_21  and  C_23
REMARK    9  A    between atoms: C_22  and  C_24
REMARK   10  A    between atoms: C_25  and  C_27
REMARK                            x       y       z     vdW  Elec       q    Type
REMARK                         _______ _______ _______ _____ _____    ______ ____
ROOT
ATOM      2  N   UNL     1      -9.145 -10.710  16.831  0.00  0.00    -0.299 NA
ATOM      3  N   UNL     1      -4.140 -10.756  16.157  0.00  0.00    -0.335 N 
ATOM      5  C   UNL     1      -8.563 -10.824  18.176  0.00  0.00    +0.085 C 
ATOM      6  C   UNL     1      -7.048 -11.044  18.233  0.00  0.00    -0.021 A 
ATOM      7  C   UNL     1      -8.690  -9.556  16.068  0.00  0.00    +0.145 C 
ATOM      8  C   UNL     1      -6.144 -10.811  17.156  0.00  0.00    +0.008 A 
ATOM     10  C   UNL     1      -7.554  -9.925  15.116  0.00  0.00    +0.065 C 
ATOM     11  C   UNL     1      -6.296 -10.336  15.807  0.00  0.00    -0.020 A 
ATOM     13  C   UNL     1      -4.775 -11.039  17.343  0.00  0.00    +0.050 A 
ATOM     14  C   UNL     1      -5.043 -10.328  15.229  0.00  0.00    +0.091 A 
ATOM     15  C   UNL     1      -6.466 -11.435  19.465  0.00  0.00    +0.006 A 
ATOM     17  C   UNL     1      -4.227 -11.469  18.553  0.00  0.00    +0.026 A 
ATOM     18  C   UNL     1      -5.097 -11.652  19.618  0.00  0.00    +0.002 A 
ATOM     28  H   UNL     1      -9.017 -11.573  16.305  0.00  0.00    +0.123 HD
ENDROOT
BRANCH   7  16
ATOM      1  O   UNL     1      -9.867  -9.119  14.038  0.00  0.00    -0.274 OA
ATOM      4  N   UNL     1     -10.935  -8.722  16.069  0.00  0.00    -0.310 N 
ATOM     16  C   UNL     1      -9.879  -9.122  15.267  0.00  0.00    +0.231 C 
ATOM     29  H   UNL     1     -10.845  -8.787  17.078  0.00  0.00    +0.149 HD
BRANCH   4  22
ATOM     22  C   UNL     1     -12.189  -8.238  15.541  0.00  0.00    +0.131 C 
BRANCH  22  24
ATOM     24  C   UNL     1     -12.125  -6.751  15.418  0.00  0.00    -0.016 C 
ATOM     26  C   UNL     1     -11.413  -5.965  16.234  0.00  0.00    +0.005 C 
ENDBRANCH  22  24
ENDBRANCH   4  22
ENDBRANCH   7  16
BRANCH   5   9
ATOM      9  C   UNL     1      -9.351 -11.965  18.845  0.00  0.00    +0.026 C 
BRANCH   9  12
ATOM     12  C   UNL     1     -10.049 -11.532  20.137  0.00  0.00    -0.015 C 
ATOM     19  C   UNL     1     -10.978 -12.653  20.608  0.00  0.00    +0.007 C 
ATOM     20  C   UNL     1     -10.844 -10.236  19.972  0.00  0.00    +0.007 C 
ENDBRANCH   9  12
ENDBRANCH   5   9
BRANCH   3  21
ATOM     21  C   UNL     1      -2.717 -10.870  15.917  0.00  0.00    +0.210 C 
BRANCH  21  23
ATOM     23  C   UNL     1      -2.378 -10.652  14.505  0.00  0.00    -0.081 C 
ATOM     25  C   UNL     1      -2.098 -10.474  13.351  0.00  0.00    -0.104 C 
ATOM     27  C   UNL     1      -1.759 -10.256  11.946  0.00  0.00    +0.106 C 
ENDBRANCH  21  23
ENDBRANCH   3  21
TORSDOF 7
ENDMDL
MODEL 9
REMARK VINA RESULT:      -5.9      2.235      6.892
REMARK  Name = 51138067
REMARK  10 active torsions:
REMARK  status: ('A' for Active; 'I' for Inactive)
REMARK    1  A    between atoms: N_3  and  C_21
REMARK    2  A    between atoms: N_4  and  C_22
REMARK    3  A    between atoms: C_5  and  C_9
REMARK    4  A    between atoms: C_7  and  C_16
REMARK    5  A    between atoms: C_9  and  C_12
REMARK    6  A    between atoms: C_12  and  C_19
REMARK    7  A    between atoms: C_12  and  C_20
REMARK    8  A    between atoms: C_21  and  C_23
REMARK    9  A    between atoms: C_22  and  C_24
REMARK   10  A    between atoms: C_25  and  C_27
REMARK                            x       y       z     vdW  Elec       q    Type
REMARK                         _______ _______ _______ _____ _____    ______ ____
ROOT
ATOM      2  N   UNL     1      -5.220 -10.056  14.864  0.00  0.00    -0.299 NA
ATOM      3  N   UNL     1      -8.552 -10.702  18.604  0.00  0.00    -0.335 N 
ATOM      5  C   UNL     1      -4.516 -10.830  15.896  0.00  0.00    +0.085 C 
ATOM      6  C   UNL     1      -5.258 -11.003  17.226  0.00  0.00    -0.021 A 
ATOM      7  C   UNL     1      -6.457 -10.661  14.390  0.00  0.00    +0.145 C 
ATOM      8  C   UNL     1      -6.652 -10.787  17.421  0.00  0.00    +0.008 A 
ATOM     10  C   UNL     1      -7.676 -10.077  15.102  0.00  0.00    +0.065 C 
ATOM     11  C   UNL     1      -7.734 -10.393  16.559  0.00  0.00    -0.020 A 
ATOM     13  C   UNL     1      -7.212 -10.995  18.688  0.00  0.00    +0.050 A 
ATOM     14  C   UNL     1      -8.878 -10.344  17.329  0.00  0.00    +0.091 A 
ATOM     15  C   UNL     1      -4.537 -11.492  18.345  0.00  0.00    +0.006 A 
ATOM     17  C   UNL     1      -6.475 -11.432  19.790  0.00  0.00    +0.026 A 
ATOM     18  C   UNL     1      -5.125 -11.689  19.594  0.00  0.00    +0.002 A 
ATOM     28  H   UNL     1      -5.373  -9.097  15.170  0.00  0.00    +0.123 HD
ENDROOT
BRANCH   7  16
ATOM      1  O   UNL     1      -7.338 -10.855  12.181  0.00  0.00    -0.274 OA
ATOM      4  N   UNL     1      -5.584  -9.374  12.569  0.00  0.00    -0.310 N 
ATOM     16  C   UNL     1      -6.528 -10.318  12.934  0.00  0.00    +0.231 C 
ATOM     29  H   UNL     1      -4.977  -8.978  13.281  0.00  0.00    +0.149 HD
BRANCH   4  22
ATOM     22  C   UNL     1      -5.431  -8.889  11.218  0.00  0.00    +0.131 C 
BRANCH  22  24
ATOM     24  C   UNL     1      -4.335  -9.649  10.548  0.00  0.00    -0.016 C 
ATOM     26  C   UNL     1      -3.177  -9.965  11.140  0.00  0.00    +0.005 C 
ENDBRANCH  22  24
ENDBRANCH   4  22
ENDBRANCH   7  16
BRANCH   5   9
ATOM      9  C   UNL     1      -3.163 -10.113  16.064  0.00  0.00    +0.026 C 
BRANCH   9  12
ATOM     12  C   UNL     1      -1.966 -11.015  15.749  0.00  0.00    -0.015 C 
ATOM     19  C   UNL     1      -0.693 -10.166  15.711  0.00  0.00    +0.007 C 
ATOM     20  C   UNL     1      -2.126 -11.767  14.428  0.00  0.00    +0.007 C 
ENDBRANCH   9  12
ENDBRANCH   5   9
BRANCH   3  21
ATOM     21  C   UNL     1      -9.500 -10.777  19.696  0.00  0.00    +0.210 C 
BRANCH  21  23
ATOM     23  C   UNL     1     -10.845 -10.357  19.288  0.00  0.00    -0.081 C 
ATOM     25  C   UNL     1     -11.947 -10.015  18.955  0.00  0.00    -0.104 C 
ATOM     27  C   UNL     1     -13.288  -9.598  18.549  0.00  0.00    +0.106 C 
ENDBRANCH  21  23
ENDBRANCH   3  21
TORSDOF 7
ENDMDL
MODEL 10
REMARK VINA RESULT:      -5.8     12.727     18.655
REMARK  Name = 51138067
REMARK  10 active torsions:
REMARK  status: ('A' for Active; 'I' for Inactive)
REMARK    1  A    between atoms: N_3  and  C_21
REMARK    2  A    between atoms: N_4  and  C_22
REMARK    3  A    between atoms: C_5  and  C_9
REMARK    4  A    between atoms: C_7  and  C_16
REMARK    5  A    between atoms: C_9  and  C_12
REMARK    6  A    between atoms: C_12  and  C_19
REMARK    7  A    between atoms: C_12  and  C_20
REMARK    8  A    between atoms: C_21  and  C_23
REMARK    9  A    between atoms: C_22  and  C_24
REMARK   10  A    between atoms: C_25  and  C_27
REMARK                            x       y       z     vdW  Elec       q    Type
REMARK                         _______ _______ _______ _____ _____    ______ ____
ROOT
ATOM      2  N   UNL     1      -0.688 -12.916  -3.812  0.00  0.00    -0.299 NA
ATOM      3  N   UNL     1      -0.478 -14.261   1.051  0.00  0.00    -0.335 N 
ATOM      5  C   UNL     1       0.710 -13.296  -3.564  0.00  0.00    +0.085 C 
ATOM      6  C   UNL     1       1.079 -13.573  -2.103  0.00  0.00    -0.021 A 
ATOM      7  C   UNL     1      -1.664 -13.948  -3.493  0.00  0.00    +0.145 C 
ATOM      8  C   UNL     1       0.146 -13.821  -1.054  0.00  0.00    +0.008 A 
ATOM     10  C   UNL     1      -2.267 -13.740  -2.104  0.00  0.00    +0.065 C 
ATOM     11  C   UNL     1      -1.288 -13.905  -0.990  0.00  0.00    -0.020 A 
ATOM     13  C   UNL     1       0.616 -14.074   0.240  0.00  0.00    +0.050 A 
ATOM     14  C   UNL     1      -1.627 -14.167   0.322  0.00  0.00    +0.091 A 
ATOM     15  C   UNL     1       2.450 -13.672  -1.757  0.00  0.00    +0.006 A 
ATOM     17  C   UNL     1       1.972 -14.121   0.570  0.00  0.00    +0.026 A 
ATOM     18  C   UNL     1       2.885 -13.927  -0.457  0.00  0.00    +0.002 A 
ATOM     28  H   UNL     1      -0.914 -12.039  -3.347  0.00  0.00    +0.123 HD
ENDROOT
BRANCH   7  16
ATOM      1  O   UNL     1      -2.990 -14.691  -5.333  0.00  0.00    -0.274 OA
ATOM      4  N   UNL     1      -3.374 -12.571  -4.449  0.00  0.00    -0.310 N 
ATOM     16  C   UNL     1      -2.742 -13.801  -4.522  0.00  0.00    +0.231 C 
ATOM     29  H   UNL     1      -3.103 -11.916  -3.721  0.00  0.00    +0.149 HD
BRANCH   4  22
ATOM     22  C   UNL     1      -4.434 -12.172  -5.344  0.00  0.00    +0.131 C 
BRANCH  22  24
ATOM     24  C   UNL     1      -5.748 -12.364  -4.661  0.00  0.00    -0.016 C 
ATOM     26  C   UNL     1      -6.321 -11.444  -3.876  0.00  0.00    +0.005 C 
ENDBRANCH  22  24
ENDBRANCH   4  22
ENDBRANCH   7  16
BRANCH   5   9
ATOM      9  C   UNL     1       1.539 -12.152  -4.176  0.00  0.00    +0.026 C 
BRANCH   9  12
ATOM     12  C   UNL     1       2.298 -12.572  -5.438  0.00  0.00    -0.015 C 
ATOM     19  C   UNL     1       1.749 -11.796  -6.637  0.00  0.00    +0.007 C 
ATOM     20  C   UNL     1       2.206 -14.074  -5.708  0.00  0.00    +0.007 C 
ENDBRANCH   9  12
ENDBRANCH   5   9
BRANCH   3  21
ATOM     21  C   UNL     1      -0.436 -14.539   2.471  0.00  0.00    +0.210 C 
BRANCH  21  23
ATOM     23  C   UNL     1      -1.474 -13.807   3.207  0.00  0.00    -0.081 C 
ATOM     25  C   UNL     1      -2.323 -13.206   3.808  0.00  0.00    -0.104 C 
ATOM     27  C   UNL     1      -3.355 -12.475   4.541  0.00  0.00    +0.106 C 
ENDBRANCH  21  23
ENDBRANCH   3  21
TORSDOF 7
ENDMDL
