REMARK  Name = 11883979
REMARK  7 active torsions:
REMARK  status: ('A' for Active; 'I' for Inactive)
REMARK    1  A    between atoms: S_2  and  N_12
REMARK    2  A    between atoms: S_2  and  C_20
REMARK    3  A    between atoms: O_8  and  C_17
REMARK    4  A    between atoms: O_8  and  C_21
REMARK    5  A    between atoms: N_12  and  C_16
REMARK    6  A    between atoms: N_13  and  C_24
REMARK    7  A    between atoms: C_30  and  C_33
REMARK                            x       y       z     vdW  Elec       q    Type
REMARK                         _______ _______ _______ _____ _____    ______ ____
ROOT
ATOM      6  O   UNL     1       0.435   0.667   1.118  0.00  0.00    -0.369 OA
ATOM      7  O   UNL     1       2.294  -1.781   1.003  0.00  0.00    -0.368 OA
ATOM     14  C   UNL     1       2.254  -0.567   0.225  0.00  0.00    +0.171 C 
ATOM     15  C   UNL     1       0.793  -0.211   0.038  0.00  0.00    +0.191 C 
ATOM     16  C   UNL     1       2.809   0.580   1.032  0.00  0.00    +0.133 C 
ATOM     17  C   UNL     1       0.110  -1.552   0.159  0.00  0.00    +0.235 C 
ATOM     18  C   UNL     1       1.615   1.018   1.858  0.00  0.00    +0.183 C 
ATOM     19  C   UNL     1       0.951  -2.244   1.208  0.00  0.00    +0.207 C 
ENDROOT
BRANCH  16  12
ATOM     12  N   UNL     1       3.225   1.681   0.130  0.00  0.00    -0.182 NA
ATOM     34  H   UNL     1       2.631   1.881  -0.683  0.00  0.00    +0.148 HD
BRANCH  12   2
ATOM      2  S   UNL     1       4.807   2.290   0.216  0.00  0.00    +0.059 S 
ATOM      9  O   UNL     1       5.100   2.685   1.581  0.00  0.00    -0.153 OA
ATOM     10  O   UNL     1       5.006   3.226  -0.874  0.00  0.00    -0.153 OA
BRANCH   2  20
ATOM      1 CL   UNL     1       8.218  -2.788  -1.097  0.00  0.00    -0.084 Cl
ATOM     20  C   UNL     1       5.771   0.855  -0.155  0.00  0.00    +0.105 A 
ATOM     22  C   UNL     1       6.097   0.582  -1.472  0.00  0.00    +0.030 A 
ATOM     23  C   UNL     1       6.182   0.031   0.879  0.00  0.00    +0.030 A 
ATOM     25  C   UNL     1       6.857  -0.550  -1.765  0.00  0.00    +0.022 A 
ATOM     26  C   UNL     1       6.943  -1.101   0.586  0.00  0.00    +0.022 A 
ATOM     27  C   UNL     1       7.280  -1.392  -0.736  0.00  0.00    +0.041 A 
ENDBRANCH   2  20
ENDBRANCH  12   2
ENDBRANCH  16  12
BRANCH  17   8
ATOM      8  O   UNL     1      -1.244  -1.463   0.540  0.00  0.00    -0.442 OA
BRANCH   8  21
ATOM     11  O   UNL     1      -1.714  -0.326  -1.388  0.00  0.00    -0.226 OA
ATOM     13  N   UNL     1      -3.375  -0.813   0.188  0.00  0.00    -0.251 N 
ATOM     21  C   UNL     1      -2.095  -0.812  -0.330  0.00  0.00    +0.405 C 
ATOM     35  H   UNL     1      -3.494  -1.270   1.089  0.00  0.00    +0.158 HD
BRANCH  13  24
ATOM     24  C   UNL     1      -4.544  -0.256  -0.379  0.00  0.00    +0.037 A 
ATOM     28  C   UNL     1      -5.746  -0.360   0.303  0.00  0.00    +0.035 A 
ATOM     29  C   UNL     1      -4.465   0.385  -1.605  0.00  0.00    +0.023 A 
ATOM     30  C   UNL     1      -6.899   0.191  -0.257  0.00  0.00    +0.057 A 
ATOM     31  C   UNL     1      -5.617   0.937  -2.164  0.00  0.00    +0.002 A 
ATOM     32  C   UNL     1      -6.835   0.840  -1.490  0.00  0.00    +0.012 A 
BRANCH  30  33
ATOM      3  F   UNL     1      -9.242   0.672  -0.200  0.00  0.00    -0.166 F 
ATOM      4  F   UNL     1      -8.600  -1.198   0.691  0.00  0.00    -0.166 F 
ATOM      5  F   UNL     1      -8.170   0.684   1.692  0.00  0.00    -0.166 F 
ATOM     33  C   UNL     1      -8.201   0.088   0.464  0.00  0.00    +0.417 C 
ENDBRANCH  30  33
ENDBRANCH  13  24
ENDBRANCH   8  21
ENDBRANCH  17   8
TORSDOF 7
