REMARK  Name = 75367654
REMARK  6 active torsions:
REMARK  status: ('A' for Active; 'I' for Inactive)
REMARK    1  A    between atoms: O_5  and  C_10
REMARK    2  A    between atoms: O_5  and  C_17
REMARK    3  A    between atoms: N_7  and  C_13
REMARK    4  A    between atoms: C_13  and  C_15
REMARK    5  A    between atoms: C_18  and  C_21
REMARK    6  A    between atoms: C_23  and  C_25
REMARK                            x       y       z     vdW  Elec       q    Type
REMARK                         _______ _______ _______ _____ _____    ______ ____
ROOT
ATOM      4  O   UNL     1      -1.603   3.926  -0.213  0.00  0.00    -0.375 OA
ATOM      7  N   UNL     1      -2.643   1.121   0.669  0.00  0.00    -0.289 NA
ATOM      9  C   UNL     1      -1.379   0.711   0.047  0.00  0.00    +0.131 C 
ATOM     10  C   UNL     1      -0.460   1.813  -0.503  0.00  0.00    +0.215 C 
ATOM     11  C   UNL     1      -2.560   2.361   1.443  0.00  0.00    +0.113 C 
ATOM     12  C   UNL     1      -1.193   2.964  -1.178  0.00  0.00    +0.205 C 
ATOM     14  C   UNL     1      -2.764   3.565   0.522  0.00  0.00    +0.175 C 
ENDROOT
BRANCH  10   5
ATOM      5  O   UNL     1       0.414   1.222  -1.466  0.00  0.00    -0.469 OA
BRANCH   5  17
ATOM      8  N   UNL     1       1.792   0.776   0.344  0.00  0.00    -0.221 NA
ATOM     17  C   UNL     1       1.580   0.691  -0.989  0.00  0.00    +0.215 A 
ATOM     20  C   UNL     1       2.466   0.105  -1.879  0.00  0.00    +0.068 A 
ATOM     22  C   UNL     1       3.644  -0.428  -1.368  0.00  0.00    +0.019 A 
ATOM     23  C   UNL     1       3.898  -0.360  -0.003  0.00  0.00    +0.073 A 
ATOM     24  C   UNL     1       2.949   0.247   0.803  0.00  0.00    +0.127 A 
BRANCH  23  25
ATOM      1  F   UNL     1       5.923   0.005   1.218  0.00  0.00    -0.166 F 
ATOM      2  F   UNL     1       4.937  -1.907   1.497  0.00  0.00    -0.166 F 
ATOM      3  F   UNL     1       5.964  -1.478  -0.372  0.00  0.00    -0.166 F 
ATOM     25  C   UNL     1       5.149  -0.921   0.573  0.00  0.00    +0.419 C 
ENDBRANCH  23  25
ENDBRANCH   5  17
ENDBRANCH  10   5
BRANCH   7  13
ATOM     13  C   UNL     1      -3.188   0.025   1.470  0.00  0.00    +0.159 C 
BRANCH  13  15
ATOM      6  O   UNL     1      -2.951  -2.198   0.507  0.00  0.00    -0.464 OA
ATOM     15  C   UNL     1      -3.726  -1.086   0.607  0.00  0.00    +0.119 A 
ATOM     16  C   UNL     1      -4.876  -1.230  -0.134  0.00  0.00    +0.046 A 
ATOM     18  C   UNL     1      -3.614  -3.061  -0.306  0.00  0.00    +0.102 A 
ATOM     19  C   UNL     1      -4.803  -2.512  -0.727  0.00  0.00    +0.044 A 
ATOM     21  C   UNL     1      -2.956  -4.351  -0.561  0.00  0.00    +0.086 C 
ENDBRANCH  13  15
ENDBRANCH   7  13
TORSDOF 5
