REMARK  Name = 45783736
REMARK  6 active torsions:
REMARK  status: ('A' for Active; 'I' for Inactive)
REMARK    1  A    between atoms: N_2  and  C_12
REMARK    2  A    between atoms: C_8  and  C_13
REMARK    3  A    between atoms: C_12  and  C_14
REMARK    4  A    between atoms: C_14  and  C_15
REMARK    5  A    between atoms: C_15  and  C_16
REMARK    6  A    between atoms: C_17  and  C_20
REMARK                            x       y       z     vdW  Elec       q    Type
REMARK                         _______ _______ _______ _____ _____    ______ ____
ROOT
ATOM      2  N   UNL     1      -0.803  -2.558   0.043  0.00  0.00    -0.291 NA
ATOM      8  C   UNL     1       0.573  -3.065   0.218  0.00  0.00    +0.146 C 
ATOM      9  C   UNL     1       0.817  -3.964  -1.008  0.00  0.00    +0.030 C 
ATOM     10  C   UNL     1      -1.521  -3.571  -0.731  0.00  0.00    +0.085 C 
ATOM     11  C   UNL     1      -0.495  -3.950  -1.780  0.00  0.00    +0.017 C 
ENDROOT
BRANCH   8  13
ATOM      1  O   UNL     1       2.718  -2.235   1.044  0.00  0.00    -0.336 OA
ATOM      3  N   UNL     1       1.552  -0.734  -0.142  0.00  0.00    -0.190 NA
ATOM      4  N   UNL     1       3.496  -1.070   1.018  0.00  0.00    -0.056 NA
ATOM     13  C   UNL     1       1.592  -1.951   0.338  0.00  0.00    +0.245 A 
ATOM     17  C   UNL     1       2.741  -0.232   0.301  0.00  0.00    +0.207 A 
BRANCH  17  20
ATOM      5  N   UNL     1       2.647   3.422  -0.449  0.00  0.00    -0.220 NA
ATOM      6  N   UNL     1       0.875   1.903  -0.066  0.00  0.00    -0.342 N 
ATOM      7  N   UNL     1       4.937   2.674  -0.386  0.00  0.00    -0.243 NA
ATOM     20  C   UNL     1       3.147   1.113   0.007  0.00  0.00    +0.080 A 
ATOM     24  C   UNL     1       2.265   2.158  -0.173  0.00  0.00    +0.130 A 
ATOM     25  C   UNL     1       4.484   1.432  -0.112  0.00  0.00    +0.127 A 
ATOM     26  C   UNL     1       3.978   3.607  -0.540  0.00  0.00    +0.223 A 
ATOM     27  H   UNL     1       0.262   2.699  -0.193  0.00  0.00    +0.144 HD
ATOM     28  H   UNL     1       0.525   1.000  -0.360  0.00  0.00    +0.144 HD
ENDBRANCH  17  20
ENDBRANCH   8  13
BRANCH   2  12
ATOM     12  C   UNL     1      -1.469  -2.257   1.304  0.00  0.00    +0.085 C 
BRANCH  12  14
ATOM     14  C   UNL     1      -2.657  -1.326   1.067  0.00  0.00    +0.020 C 
BRANCH  14  15
ATOM     15  C   UNL     1      -2.202   0.003   0.458  0.00  0.00    +0.036 C 
BRANCH  15  16
ATOM     16  C   UNL     1      -3.368   0.919   0.184  0.00  0.00    -0.047 A 
ATOM     18  C   UNL     1      -4.016   0.873  -1.049  0.00  0.00    +0.003 A 
ATOM     19  C   UNL     1      -3.797   1.813   1.165  0.00  0.00    +0.003 A 
ATOM     21  C   UNL     1      -5.095   1.721  -1.302  0.00  0.00    +0.000 A 
ATOM     22  C   UNL     1      -4.875   2.661   0.912  0.00  0.00    +0.000 A 
ATOM     23  C   UNL     1      -5.524   2.615  -0.322  0.00  0.00    +0.000 A 
ENDBRANCH  15  16
ENDBRANCH  14  15
ENDBRANCH  12  14
ENDBRANCH   2  12
TORSDOF 6
