MODEL 1
REMARK VINA RESULT:      -7.2      0.000      0.000
REMARK  Name = 75368468
REMARK  5 active torsions:
REMARK  status: ('A' for Active; 'I' for Inactive)
REMARK    1  A    between atoms: O_4  and  C_23
REMARK    2  A    between atoms: O_4  and  C_29
REMARK    3  A    between atoms: N_6  and  C_15
REMARK    4  A    between atoms: N_8  and  C_20
REMARK    5  A    between atoms: C_15  and  C_17
REMARK                            x       y       z     vdW  Elec       q    Type
REMARK                         _______ _______ _______ _____ _____    ______ ____
ROOT
ATOM      2  O   UNL     1      16.643   9.513  20.655  0.00  0.00    -0.252 OA
ATOM      3  O   UNL     1      22.183   6.084  22.961  0.00  0.00    -0.252 OA
ATOM      5  N   UNL     1      18.090   7.714  21.089  0.00  0.00    -0.278 N 
ATOM      6  N   UNL     1      16.332   7.365  19.734  0.00  0.00    -0.279 N 
ATOM      7  N   UNL     1      20.497   6.360  21.406  0.00  0.00    -0.282 N 
ATOM      8  N   UNL     1      21.301   4.205  21.925  0.00  0.00    -0.269 N 
ATOM      9  C   UNL     1      18.124   6.289  20.802  0.00  0.00    +0.112 C 
ATOM     10  C   UNL     1      17.067   6.113  19.715  0.00  0.00    +0.133 C 
ATOM     11  C   UNL     1      19.534   5.870  20.399  0.00  0.00    +0.133 C 
ATOM     12  C   UNL     1      19.084   8.299  21.973  0.00  0.00    +0.128 C 
ATOM     13  C   UNL     1      20.483   7.822  21.582  0.00  0.00    +0.128 C 
ATOM     14  C   UNL     1      16.978   8.344  20.514  0.00  0.00    +0.306 C 
ATOM     16  C   UNL     1      21.399   5.577  22.155  0.00  0.00    +0.307 C 
ATOM     30  H   UNL     1      20.401   3.831  21.642  0.00  0.00    +0.156 HD
ENDROOT
BRANCH   8  20
ATOM      1  F   UNL     1      25.356   0.437  22.267  0.00  0.00    -0.205 F 
ATOM     20  C   UNL     1      22.337   3.243  22.012  0.00  0.00    +0.035 A 
ATOM     24  C   UNL     1      23.019   2.846  20.862  0.00  0.00    +0.026 A 
ATOM     25  C   UNL     1      22.675   2.692  23.248  0.00  0.00    +0.026 A 
ATOM     26  C   UNL     1      24.038   1.898  20.948  0.00  0.00    +0.040 A 
ATOM     27  C   UNL     1      23.694   1.743  23.334  0.00  0.00    +0.040 A 
ATOM     28  C   UNL     1      24.376   1.346  22.184  0.00  0.00    +0.124 A 
ENDBRANCH   8  20
BRANCH   6  15
ATOM     15  C   UNL     1      15.158   7.576  18.915  0.00  0.00    +0.144 C 
BRANCH  15  17
ATOM     17  C   UNL     1      13.951   7.918  19.740  0.00  0.00    -0.030 A 
ATOM     18  C   UNL     1      13.507   7.035  20.724  0.00  0.00    +0.009 A 
ATOM     19  C   UNL     1      13.274   9.118  19.523  0.00  0.00    +0.009 A 
ATOM     21  C   UNL     1      12.385   7.352  21.491  0.00  0.00    +0.046 A 
ATOM     22  C   UNL     1      12.153   9.434  20.290  0.00  0.00    +0.046 A 
ATOM     23  C   UNL     1      11.709   8.551  21.273  0.00  0.00    +0.120 A 
BRANCH  23   4
ATOM      4  O   UNL     1      10.614   8.860  22.021  0.00  0.00    -0.495 OA
ATOM     29  C   UNL     1      10.708  10.006  22.867  0.00  0.00    +0.277 C 
ENDBRANCH  23   4
ENDBRANCH  15  17
ENDBRANCH   6  15
TORSDOF 4
ENDMDL
MODEL 2
REMARK VINA RESULT:      -7.0     28.451     31.146
REMARK  Name = 75368468
REMARK  5 active torsions:
REMARK  status: ('A' for Active; 'I' for Inactive)
REMARK    1  A    between atoms: O_4  and  C_23
REMARK    2  A    between atoms: O_4  and  C_29
REMARK    3  A    between atoms: N_6  and  C_15
REMARK    4  A    between atoms: N_8  and  C_20
REMARK    5  A    between atoms: C_15  and  C_17
REMARK                            x       y       z     vdW  Elec       q    Type
REMARK                         _______ _______ _______ _____ _____    ______ ____
ROOT
ATOM      2  O   UNL     1      -1.111 -11.514  15.053  0.00  0.00    -0.252 OA
ATOM      3  O   UNL     1      -6.557 -10.232  19.111  0.00  0.00    -0.252 OA
ATOM      5  N   UNL     1      -3.287 -10.885  15.676  0.00  0.00    -0.278 N 
ATOM      6  N   UNL     1      -2.827 -11.105  13.488  0.00  0.00    -0.279 N 
ATOM      7  N   UNL     1      -5.678 -10.933  17.092  0.00  0.00    -0.282 N 
ATOM      8  N   UNL     1      -7.754  -9.818  17.168  0.00  0.00    -0.269 N 
ATOM      9  C   UNL     1      -4.499 -10.451  15.000  0.00  0.00    +0.112 C 
ATOM     10  C   UNL     1      -4.248 -10.816  13.539  0.00  0.00    +0.133 C 
ATOM     11  C   UNL     1      -5.717 -11.122  15.628  0.00  0.00    +0.133 C 
ATOM     12  C   UNL     1      -3.215 -10.851  17.127  0.00  0.00    +0.128 C 
ATOM     13  C   UNL     1      -4.470 -11.480  17.732  0.00  0.00    +0.128 C 
ATOM     14  C   UNL     1      -2.262 -11.203  14.775  0.00  0.00    +0.306 C 
ATOM     16  C   UNL     1      -6.671 -10.323  17.886  0.00  0.00    +0.307 C 
ATOM     30  H   UNL     1      -7.594  -9.514  16.213  0.00  0.00    +0.156 HD
ENDROOT
BRANCH   8  20
ATOM      1  F   UNL     1     -13.008  -9.349  18.881  0.00  0.00    -0.205 F 
ATOM     20  C   UNL     1      -9.097  -9.699  17.606  0.00  0.00    +0.035 A 
ATOM     24  C   UNL     1      -9.618 -10.620  18.514  0.00  0.00    +0.026 A 
ATOM     25  C   UNL     1      -9.895  -8.660  17.129  0.00  0.00    +0.026 A 
ATOM     26  C   UNL     1     -10.940 -10.502  18.944  0.00  0.00    +0.040 A 
ATOM     27  C   UNL     1     -11.218  -8.542  17.559  0.00  0.00    +0.040 A 
ATOM     28  C   UNL     1     -11.739  -9.463  18.467  0.00  0.00    +0.124 A 
ENDBRANCH   8  20
BRANCH   6  15
ATOM     15  C   UNL     1      -2.148 -11.394  12.244  0.00  0.00    +0.144 C 
BRANCH  15  17
ATOM     17  C   UNL     1      -2.941 -10.940  11.053  0.00  0.00    -0.030 A 
ATOM     18  C   UNL     1      -2.921  -9.599  10.671  0.00  0.00    +0.009 A 
ATOM     19  C   UNL     1      -3.699 -11.860  10.327  0.00  0.00    +0.009 A 
ATOM     21  C   UNL     1      -3.658  -9.177   9.564  0.00  0.00    +0.046 A 
ATOM     22  C   UNL     1      -4.435 -11.438   9.220  0.00  0.00    +0.046 A 
ATOM     23  C   UNL     1      -4.415 -10.097   8.840  0.00  0.00    +0.120 A 
BRANCH  23   4
ATOM      4  O   UNL     1      -5.134  -9.685   7.760  0.00  0.00    -0.495 OA
ATOM     29  C   UNL     1      -5.323 -10.631   6.707  0.00  0.00    +0.277 C 
ENDBRANCH  23   4
ENDBRANCH  15  17
ENDBRANCH   6  15
TORSDOF 4
ENDMDL
MODEL 3
REMARK VINA RESULT:      -6.9     30.205     32.549
REMARK  Name = 75368468
REMARK  5 active torsions:
REMARK  status: ('A' for Active; 'I' for Inactive)
REMARK    1  A    between atoms: O_4  and  C_23
REMARK    2  A    between atoms: O_4  and  C_29
REMARK    3  A    between atoms: N_6  and  C_15
REMARK    4  A    between atoms: N_8  and  C_20
REMARK    5  A    between atoms: C_15  and  C_17
REMARK                            x       y       z     vdW  Elec       q    Type
REMARK                         _______ _______ _______ _____ _____    ______ ____
ROOT
ATOM      2  O   UNL     1     -14.610  -6.923  15.403  0.00  0.00    -0.252 OA
ATOM      3  O   UNL     1     -10.049 -11.177  18.380  0.00  0.00    -0.252 OA
ATOM      5  N   UNL     1     -12.542  -7.899  15.941  0.00  0.00    -0.278 N 
ATOM      6  N   UNL     1     -12.545  -6.002  14.737  0.00  0.00    -0.279 N 
ATOM      7  N   UNL     1     -10.592  -9.107  17.511  0.00  0.00    -0.282 N 
ATOM      8  N   UNL     1      -8.392  -9.934  17.337  0.00  0.00    -0.269 N 
ATOM      9  C   UNL     1     -11.146  -7.677  15.601  0.00  0.00    +0.112 C 
ATOM     10  C   UNL     1     -11.142  -6.282  14.981  0.00  0.00    +0.133 C 
ATOM     11  C   UNL     1     -10.274  -7.828  16.844  0.00  0.00    +0.133 C 
ATOM     12  C   UNL     1     -12.924  -9.071  16.710  0.00  0.00    +0.128 C 
ATOM     13  C   UNL     1     -12.002  -9.231  17.919  0.00  0.00    +0.128 C 
ATOM     14  C   UNL     1     -13.387  -6.942  15.363  0.00  0.00    +0.306 C 
ATOM     16  C   UNL     1      -9.690 -10.153  17.795  0.00  0.00    +0.307 C 
ATOM     30  H   UNL     1      -8.266  -9.350  16.517  0.00  0.00    +0.156 HD
ENDROOT
BRANCH   8  20
ATOM      1  F   UNL     1      -3.676 -11.823  19.563  0.00  0.00    -0.205 F 
ATOM     20  C   UNL     1      -7.186 -10.417  17.905  0.00  0.00    +0.035 A 
ATOM     24  C   UNL     1      -6.115 -10.761  17.081  0.00  0.00    +0.026 A 
ATOM     25  C   UNL     1      -7.073 -10.548  19.289  0.00  0.00    +0.026 A 
ATOM     26  C   UNL     1      -4.930 -11.236  17.641  0.00  0.00    +0.040 A 
ATOM     27  C   UNL     1      -5.887 -11.024  19.849  0.00  0.00    +0.040 A 
ATOM     28  C   UNL     1      -4.815 -11.368  19.025  0.00  0.00    +0.124 A 
ENDBRANCH   8  20
BRANCH   6  15
ATOM     15  C   UNL     1     -12.978  -4.806  14.049  0.00  0.00    +0.144 C 
BRANCH  15  17
ATOM     17  C   UNL     1     -12.530  -4.787  12.616  0.00  0.00    -0.030 A 
ATOM     18  C   UNL     1     -12.561  -5.959  11.861  0.00  0.00    +0.009 A 
ATOM     19  C   UNL     1     -12.083  -3.597  12.040  0.00  0.00    +0.009 A 
ATOM     21  C   UNL     1     -12.144  -5.942  10.529  0.00  0.00    +0.046 A 
ATOM     22  C   UNL     1     -11.667  -3.580  10.709  0.00  0.00    +0.046 A 
ATOM     23  C   UNL     1     -11.697  -4.752   9.955  0.00  0.00    +0.120 A 
BRANCH  23   4
ATOM      4  O   UNL     1     -11.290  -4.736   8.656  0.00  0.00    -0.495 OA
ATOM     29  C   UNL     1      -9.939  -5.114   8.394  0.00  0.00    +0.277 C 
ENDBRANCH  23   4
ENDBRANCH  15  17
ENDBRANCH   6  15
TORSDOF 4
ENDMDL
MODEL 4
REMARK VINA RESULT:      -6.8      2.182      3.224
REMARK  Name = 75368468
REMARK  5 active torsions:
REMARK  status: ('A' for Active; 'I' for Inactive)
REMARK    1  A    between atoms: O_4  and  C_23
REMARK    2  A    between atoms: O_4  and  C_29
REMARK    3  A    between atoms: N_6  and  C_15
REMARK    4  A    between atoms: N_8  and  C_20
REMARK    5  A    between atoms: C_15  and  C_17
REMARK                            x       y       z     vdW  Elec       q    Type
REMARK                         _______ _______ _______ _____ _____    ______ ____
ROOT
ATOM      2  O   UNL     1      15.345   9.576  21.224  0.00  0.00    -0.252 OA
ATOM      3  O   UNL     1      21.761   7.171  22.123  0.00  0.00    -0.252 OA
ATOM      5  N   UNL     1      17.133   8.053  21.280  0.00  0.00    -0.278 N 
ATOM      6  N   UNL     1      15.193   7.386  20.364  0.00  0.00    -0.279 N 
ATOM      7  N   UNL     1      19.739   7.126  21.007  0.00  0.00    -0.282 N 
ATOM      8  N   UNL     1      20.990   5.148  21.290  0.00  0.00    -0.269 N 
ATOM      9  C   UNL     1      17.337   6.647  20.969  0.00  0.00    +0.112 C 
ATOM     10  C   UNL     1      16.102   6.274  20.154  0.00  0.00    +0.133 C 
ATOM     11  C   UNL     1      18.665   6.460  20.242  0.00  0.00    +0.133 C 
ATOM     12  C   UNL     1      18.192   8.816  21.919  0.00  0.00    +0.128 C 
ATOM     13  C   UNL     1      19.522   8.569  21.206  0.00  0.00    +0.128 C 
ATOM     14  C   UNL     1      15.829   8.476  20.990  0.00  0.00    +0.306 C 
ATOM     16  C   UNL     1      20.908   6.522  21.514  0.00  0.00    +0.307 C 
ATOM     30  H   UNL     1      20.124   4.623  21.217  0.00  0.00    +0.156 HD
ENDROOT
BRANCH   8  20
ATOM      1  F   UNL     1      25.586   2.118  20.613  0.00  0.00    -0.205 F 
ATOM     20  C   UNL     1      22.164   4.373  21.117  0.00  0.00    +0.035 A 
ATOM     24  C   UNL     1      22.322   3.180  21.821  0.00  0.00    +0.026 A 
ATOM     25  C   UNL     1      23.161   4.805  20.244  0.00  0.00    +0.026 A 
ATOM     26  C   UNL     1      23.478   2.418  21.652  0.00  0.00    +0.040 A 
ATOM     27  C   UNL     1      24.318   4.044  20.074  0.00  0.00    +0.040 A 
ATOM     28  C   UNL     1      24.476   2.850  20.778  0.00  0.00    +0.124 A 
ENDBRANCH   8  20
BRANCH   6  15
ATOM     15  C   UNL     1      13.843   7.380  19.844  0.00  0.00    +0.144 C 
BRANCH  15  17
ATOM     17  C   UNL     1      13.728   8.166  18.569  0.00  0.00    -0.030 A 
ATOM     18  C   UNL     1      13.077   9.399  18.567  0.00  0.00    +0.009 A 
ATOM     19  C   UNL     1      14.273   7.663  17.387  0.00  0.00    +0.009 A 
ATOM     21  C   UNL     1      12.969  10.129  17.383  0.00  0.00    +0.046 A 
ATOM     22  C   UNL     1      14.166   8.393  16.204  0.00  0.00    +0.046 A 
ATOM     23  C   UNL     1      13.514   9.625  16.202  0.00  0.00    +0.120 A 
BRANCH  23   4
ATOM      4  O   UNL     1      13.409  10.337  15.046  0.00  0.00    -0.495 OA
ATOM     29  C   UNL     1      14.416  11.316  14.794  0.00  0.00    +0.277 C 
ENDBRANCH  23   4
ENDBRANCH  15  17
ENDBRANCH   6  15
TORSDOF 4
ENDMDL
MODEL 5
REMARK VINA RESULT:      -6.8      2.249      2.783
REMARK  Name = 75368468
REMARK  5 active torsions:
REMARK  status: ('A' for Active; 'I' for Inactive)
REMARK    1  A    between atoms: O_4  and  C_23
REMARK    2  A    between atoms: O_4  and  C_29
REMARK    3  A    between atoms: N_6  and  C_15
REMARK    4  A    between atoms: N_8  and  C_20
REMARK    5  A    between atoms: C_15  and  C_17
REMARK                            x       y       z     vdW  Elec       q    Type
REMARK                         _______ _______ _______ _____ _____    ______ ____
ROOT
ATOM      2  O   UNL     1      17.922  10.176  20.932  0.00  0.00    -0.252 OA
ATOM      3  O   UNL     1      23.533   6.166  21.392  0.00  0.00    -0.252 OA
ATOM      5  N   UNL     1      19.233   8.269  21.339  0.00  0.00    -0.278 N 
ATOM      6  N   UNL     1      16.997   8.056  21.388  0.00  0.00    -0.279 N 
ATOM      7  N   UNL     1      21.275   6.418  20.975  0.00  0.00    -0.282 N 
ATOM      8  N   UNL     1      22.097   4.426  21.930  0.00  0.00    -0.269 N 
ATOM      9  C   UNL     1      19.004   6.896  21.759  0.00  0.00    +0.112 C 
ATOM     10  C   UNL     1      17.501   6.707  21.573  0.00  0.00    +0.133 C 
ATOM     11  C   UNL     1      19.875   5.947  20.943  0.00  0.00    +0.133 C 
ATOM     12  C   UNL     1      20.590   8.774  21.221  0.00  0.00    +0.128 C 
ATOM     13  C   UNL     1      21.456   7.781  20.447  0.00  0.00    +0.128 C 
ATOM     14  C   UNL     1      18.037   8.985  21.191  0.00  0.00    +0.306 C 
ATOM     16  C   UNL     1      22.395   5.691  21.427  0.00  0.00    +0.307 C 
ATOM     30  H   UNL     1      21.182   4.281  22.346  0.00  0.00    +0.156 HD
ENDROOT
BRANCH   8  20
ATOM      1  F   UNL     1      25.330  -0.079  21.851  0.00  0.00    -0.205 F 
ATOM     20  C   UNL     1      22.923   3.275  21.909  0.00  0.00    +0.035 A 
ATOM     24  C   UNL     1      23.497   2.850  20.712  0.00  0.00    +0.026 A 
ATOM     25  C   UNL     1      23.162   2.568  23.087  0.00  0.00    +0.026 A 
ATOM     26  C   UNL     1      24.309   1.717  20.692  0.00  0.00    +0.040 A 
ATOM     27  C   UNL     1      23.974   1.433  23.067  0.00  0.00    +0.040 A 
ATOM     28  C   UNL     1      24.548   1.008  21.869  0.00  0.00    +0.124 A 
ENDBRANCH   8  20
BRANCH   6  15
ATOM     15  C   UNL     1      15.582   8.337  21.283  0.00  0.00    +0.144 C 
BRANCH  15  17
ATOM     17  C   UNL     1      15.118   8.360  19.855  0.00  0.00    -0.030 A 
ATOM     18  C   UNL     1      14.866   9.578  19.224  0.00  0.00    +0.009 A 
ATOM     19  C   UNL     1      14.940   7.164  19.159  0.00  0.00    +0.009 A 
ATOM     21  C   UNL     1      14.434   9.600  17.897  0.00  0.00    +0.046 A 
ATOM     22  C   UNL     1      14.509   7.187  17.833  0.00  0.00    +0.046 A 
ATOM     23  C   UNL     1      14.256   8.404  17.203  0.00  0.00    +0.120 A 
BRANCH  23   4
ATOM      4  O   UNL     1      13.835   8.426  15.908  0.00  0.00    -0.495 OA
ATOM     29  C   UNL     1      12.936   9.470  15.536  0.00  0.00    +0.277 C 
ENDBRANCH  23   4
ENDBRANCH  15  17
ENDBRANCH   6  15
TORSDOF 4
ENDMDL
MODEL 6
REMARK VINA RESULT:      -6.6     28.985     30.794
REMARK  Name = 75368468
REMARK  5 active torsions:
REMARK  status: ('A' for Active; 'I' for Inactive)
REMARK    1  A    between atoms: O_4  and  C_23
REMARK    2  A    between atoms: O_4  and  C_29
REMARK    3  A    between atoms: N_6  and  C_15
REMARK    4  A    between atoms: N_8  and  C_20
REMARK    5  A    between atoms: C_15  and  C_17
REMARK                            x       y       z     vdW  Elec       q    Type
REMARK                         _______ _______ _______ _____ _____    ______ ____
ROOT
ATOM      2  O   UNL     1      -5.214  -9.400   7.628  0.00  0.00    -0.252 OA
ATOM      3  O   UNL     1      -3.041 -10.926  14.009  0.00  0.00    -0.252 OA
ATOM      5  N   UNL     1      -5.207  -9.534   9.973  0.00  0.00    -0.278 N 
ATOM      6  N   UNL     1      -7.078  -8.823   8.952  0.00  0.00    -0.279 N 
ATOM      7  N   UNL     1      -4.757 -10.621  12.492  0.00  0.00    -0.282 N 
ATOM      8  N   UNL     1      -5.068 -10.091  14.768  0.00  0.00    -0.269 N 
ATOM      9  C   UNL     1      -6.097  -9.155  11.059  0.00  0.00    +0.112 C 
ATOM     10  C   UNL     1      -7.427  -8.888  10.359  0.00  0.00    +0.133 C 
ATOM     11  C   UNL     1      -6.137 -10.257  12.112  0.00  0.00    +0.133 C 
ATOM     12  C   UNL     1      -3.872 -10.026  10.269  0.00  0.00    +0.128 C 
ATOM     13  C   UNL     1      -3.933 -11.090  11.365  0.00  0.00    +0.128 C 
ATOM     14  C   UNL     1      -5.761  -9.266   8.715  0.00  0.00    +0.306 C 
ATOM     16  C   UNL     1      -4.204 -10.579  13.788  0.00  0.00    +0.307 C 
ATOM     30  H   UNL     1      -5.783  -9.428  14.487  0.00  0.00    +0.156 HD
ENDROOT
BRANCH   8  20
ATOM      1  F   UNL     1      -5.163 -11.444  20.145  0.00  0.00    -0.205 F 
ATOM     20  C   UNL     1      -5.093 -10.437  16.142  0.00  0.00    +0.035 A 
ATOM     24  C   UNL     1      -6.249 -10.227  16.893  0.00  0.00    +0.026 A 
ATOM     25  C   UNL     1      -3.961 -10.986  16.742  0.00  0.00    +0.026 A 
ATOM     26  C   UNL     1      -6.272 -10.567  18.246  0.00  0.00    +0.040 A 
ATOM     27  C   UNL     1      -3.984 -11.326  18.096  0.00  0.00    +0.040 A 
ATOM     28  C   UNL     1      -5.140 -11.116  18.847  0.00  0.00    +0.124 A 
ENDBRANCH   8  20
BRANCH   6  15
ATOM     15  C   UNL     1      -8.048  -8.475   7.937  0.00  0.00    +0.144 C 
BRANCH  15  17
ATOM     17  C   UNL     1      -8.795  -7.219   8.280  0.00  0.00    -0.030 A 
ATOM     18  C   UNL     1      -8.159  -5.982   8.188  0.00  0.00    +0.009 A 
ATOM     19  C   UNL     1     -10.127  -7.289   8.691  0.00  0.00    +0.009 A 
ATOM     21  C   UNL     1      -8.853  -4.814   8.507  0.00  0.00    +0.046 A 
ATOM     22  C   UNL     1     -10.821  -6.122   9.009  0.00  0.00    +0.046 A 
ATOM     23  C   UNL     1     -10.183  -4.885   8.917  0.00  0.00    +0.120 A 
BRANCH  23   4
ATOM      4  O   UNL     1     -10.861  -3.746   9.229  0.00  0.00    -0.495 OA
ATOM     29  C   UNL     1     -12.266  -3.737   8.977  0.00  0.00    +0.277 C 
ENDBRANCH  23   4
ENDBRANCH  15  17
ENDBRANCH   6  15
TORSDOF 4
ENDMDL
MODEL 7
REMARK VINA RESULT:      -6.6      3.016      4.708
REMARK  Name = 75368468
REMARK  5 active torsions:
REMARK  status: ('A' for Active; 'I' for Inactive)
REMARK    1  A    between atoms: O_4  and  C_23
REMARK    2  A    between atoms: O_4  and  C_29
REMARK    3  A    between atoms: N_6  and  C_15
REMARK    4  A    between atoms: N_8  and  C_20
REMARK    5  A    between atoms: C_15  and  C_17
REMARK                            x       y       z     vdW  Elec       q    Type
REMARK                         _______ _______ _______ _____ _____    ______ ____
ROOT
ATOM      2  O   UNL     1      12.402   8.940  18.527  0.00  0.00    -0.252 OA
ATOM      3  O   UNL     1      18.219   5.453  19.856  0.00  0.00    -0.252 OA
ATOM      5  N   UNL     1      14.602   8.528  19.240  0.00  0.00    -0.278 N 
ATOM      6  N   UNL     1      13.688  10.527  19.705  0.00  0.00    -0.279 N 
ATOM      7  N   UNL     1      16.727   7.140  20.373  0.00  0.00    -0.282 N 
ATOM      8  N   UNL     1      19.028   7.406  20.811  0.00  0.00    -0.269 N 
ATOM      9  C   UNL     1      15.679   9.291  19.850  0.00  0.00    +0.112 C 
ATOM     10  C   UNL     1      14.986  10.553  20.356  0.00  0.00    +0.133 C 
ATOM     11  C   UNL     1      16.363   8.459  20.929  0.00  0.00    +0.133 C 
ATOM     12  C   UNL     1      14.845   7.171  18.780  0.00  0.00    +0.128 C 
ATOM     13  C   UNL     1      15.580   6.374  19.858  0.00  0.00    +0.128 C 
ATOM     14  C   UNL     1      13.435   9.288  19.083  0.00  0.00    +0.306 C 
ATOM     16  C   UNL     1      18.019   6.578  20.322  0.00  0.00    +0.307 C 
ATOM     30  H   UNL     1      18.896   8.411  20.744  0.00  0.00    +0.156 HD
ENDROOT
BRANCH   8  20
ATOM      1  F   UNL     1      23.764   5.864  23.250  0.00  0.00    -0.205 F 
ATOM     20  C   UNL     1      20.238   7.012  21.435  0.00  0.00    +0.035 A 
ATOM     24  C   UNL     1      20.233   6.596  22.766  0.00  0.00    +0.026 A 
ATOM     25  C   UNL     1      21.433   7.041  20.717  0.00  0.00    +0.026 A 
ATOM     26  C   UNL     1      21.424   6.208  23.379  0.00  0.00    +0.040 A 
ATOM     27  C   UNL     1      22.625   6.654  21.331  0.00  0.00    +0.040 A 
ATOM     28  C   UNL     1      22.620   6.238  22.662  0.00  0.00    +0.124 A 
ENDBRANCH   8  20
BRANCH   6  15
ATOM     15  C   UNL     1      12.745  11.616  19.833  0.00  0.00    +0.144 C 
BRANCH  15  17
ATOM     17  C   UNL     1      12.158  11.692  21.213  0.00  0.00    -0.030 A 
ATOM     18  C   UNL     1      12.231  12.882  21.937  0.00  0.00    +0.009 A 
ATOM     19  C   UNL     1      11.539  10.573  21.772  0.00  0.00    +0.009 A 
ATOM     21  C   UNL     1      11.686  12.953  23.220  0.00  0.00    +0.046 A 
ATOM     22  C   UNL     1      10.994  10.644  23.053  0.00  0.00    +0.046 A 
ATOM     23  C   UNL     1      11.068  11.834  23.777  0.00  0.00    +0.120 A 
BRANCH  23   4
ATOM      4  O   UNL     1      10.536  11.903  25.028  0.00  0.00    -0.495 OA
ATOM     29  C   UNL     1      10.651  13.150  25.714  0.00  0.00    +0.277 C 
ENDBRANCH  23   4
ENDBRANCH  15  17
ENDBRANCH   6  15
TORSDOF 4
ENDMDL
MODEL 8
REMARK VINA RESULT:      -6.6     28.484     32.031
REMARK  Name = 75368468
REMARK  5 active torsions:
REMARK  status: ('A' for Active; 'I' for Inactive)
REMARK    1  A    between atoms: O_4  and  C_23
REMARK    2  A    between atoms: O_4  and  C_29
REMARK    3  A    between atoms: N_6  and  C_15
REMARK    4  A    between atoms: N_8  and  C_20
REMARK    5  A    between atoms: C_15  and  C_17
REMARK                            x       y       z     vdW  Elec       q    Type
REMARK                         _______ _______ _______ _____ _____    ______ ____
ROOT
ATOM      2  O   UNL     1      -4.005 -12.222  18.940  0.00  0.00    -0.252 OA
ATOM      3  O   UNL     1     -10.492  -9.839  19.014  0.00  0.00    -0.252 OA
ATOM      5  N   UNL     1      -5.877 -10.927  18.358  0.00  0.00    -0.278 N 
ATOM      6  N   UNL     1      -4.040 -10.782  17.073  0.00  0.00    -0.279 N 
ATOM      7  N   UNL     1      -8.547 -10.330  17.868  0.00  0.00    -0.282 N 
ATOM      8  N   UNL     1      -9.898  -8.515  17.203  0.00  0.00    -0.269 N 
ATOM      9  C   UNL     1      -6.185  -9.885  17.391  0.00  0.00    +0.112 C 
ATOM     10  C   UNL     1      -5.027  -9.957  16.400  0.00  0.00    +0.133 C 
ATOM     11  C   UNL     1      -7.564 -10.127  16.784  0.00  0.00    +0.133 C 
ATOM     12  C   UNL     1      -6.847 -11.276  19.382  0.00  0.00    +0.128 C 
ATOM     13  C   UNL     1      -8.229 -11.460  18.757  0.00  0.00    +0.128 C 
ATOM     14  C   UNL     1      -4.569 -11.410  18.218  0.00  0.00    +0.306 C 
ATOM     16  C   UNL     1      -9.718  -9.577  18.090  0.00  0.00    +0.307 C 
ATOM     30  H   UNL     1      -9.072  -8.084  16.801  0.00  0.00    +0.156 HD
ENDROOT
BRANCH   8  20
ATOM      1  F   UNL     1     -14.702  -6.362  15.459  0.00  0.00    -0.205 F 
ATOM     20  C   UNL     1     -11.126  -7.966  16.758  0.00  0.00    +0.035 A 
ATOM     24  C   UNL     1     -12.285  -8.741  16.776  0.00  0.00    +0.026 A 
ATOM     25  C   UNL     1     -11.174  -6.649  16.301  0.00  0.00    +0.026 A 
ATOM     26  C   UNL     1     -13.493  -8.200  16.336  0.00  0.00    +0.040 A 
ATOM     27  C   UNL     1     -12.383  -6.107  15.861  0.00  0.00    +0.040 A 
ATOM     28  C   UNL     1     -13.542  -6.883  15.879  0.00  0.00    +0.124 A 
ENDBRANCH   8  20
BRANCH   6  15
ATOM     15  C   UNL     1      -2.726 -11.015  16.513  0.00  0.00    +0.144 C 
BRANCH  15  17
ATOM     17  C   UNL     1      -2.783 -11.269  15.034  0.00  0.00    -0.030 A 
ATOM     18  C   UNL     1      -2.159 -10.388  14.151  0.00  0.00    +0.009 A 
ATOM     19  C   UNL     1      -3.458 -12.387  14.543  0.00  0.00    +0.009 A 
ATOM     21  C   UNL     1      -2.212 -10.624  12.776  0.00  0.00    +0.046 A 
ATOM     22  C   UNL     1      -3.510 -12.623  13.170  0.00  0.00    +0.046 A 
ATOM     23  C   UNL     1      -2.887 -11.741  12.287  0.00  0.00    +0.120 A 
BRANCH  23   4
ATOM      4  O   UNL     1      -2.939 -11.972  10.946  0.00  0.00    -0.495 OA
ATOM     29  C   UNL     1      -3.943 -12.873  10.481  0.00  0.00    +0.277 C 
ENDBRANCH  23   4
ENDBRANCH  15  17
ENDBRANCH   6  15
TORSDOF 4
ENDMDL
MODEL 9
REMARK VINA RESULT:      -6.3     29.588     32.487
REMARK  Name = 75368468
REMARK  5 active torsions:
REMARK  status: ('A' for Active; 'I' for Inactive)
REMARK    1  A    between atoms: O_4  and  C_23
REMARK    2  A    between atoms: O_4  and  C_29
REMARK    3  A    between atoms: N_6  and  C_15
REMARK    4  A    between atoms: N_8  and  C_20
REMARK    5  A    between atoms: C_15  and  C_17
REMARK                            x       y       z     vdW  Elec       q    Type
REMARK                         _______ _______ _______ _____ _____    ______ ____
ROOT
ATOM      2  O   UNL     1     -13.303  -8.236  13.242  0.00  0.00    -0.252 OA
ATOM      3  O   UNL     1      -7.836 -11.989  15.192  0.00  0.00    -0.252 OA
ATOM      5  N   UNL     1     -11.286  -8.789  14.313  0.00  0.00    -0.278 N 
ATOM      6  N   UNL     1     -12.294  -6.859  14.868  0.00  0.00    -0.279 N 
ATOM      7  N   UNL     1      -9.418 -10.364  15.637  0.00  0.00    -0.282 N 
ATOM      8  N   UNL     1      -7.254 -10.208  16.559  0.00  0.00    -0.269 N 
ATOM      9  C   UNL     1     -10.361  -8.141  15.228  0.00  0.00    +0.112 C 
ATOM     10  C   UNL     1     -11.153  -6.950  15.762  0.00  0.00    +0.133 C 
ATOM     11  C   UNL     1      -9.898  -9.131  16.292  0.00  0.00    +0.133 C 
ATOM     12  C   UNL     1     -10.943 -10.071  13.722  0.00  0.00    +0.128 C 
ATOM     13  C   UNL     1     -10.431 -11.027  14.799  0.00  0.00    +0.128 C 
ATOM     14  C   UNL     1     -12.405  -7.991  14.037  0.00  0.00    +0.306 C 
ATOM     16  C   UNL     1      -8.137 -10.938  15.765  0.00  0.00    +0.307 C 
ATOM     30  H   UNL     1      -7.379  -9.202  16.611  0.00  0.00    +0.156 HD
ENDROOT
BRANCH   8  20
ATOM      1  F   UNL     1      -3.087 -12.173  19.647  0.00  0.00    -0.205 F 
ATOM     20  C   UNL     1      -6.190 -10.710  17.348  0.00  0.00    +0.035 A 
ATOM     24  C   UNL     1      -6.417 -11.073  18.676  0.00  0.00    +0.026 A 
ATOM     25  C   UNL     1      -4.915 -10.840  16.797  0.00  0.00    +0.026 A 
ATOM     26  C   UNL     1      -5.369 -11.567  19.452  0.00  0.00    +0.040 A 
ATOM     27  C   UNL     1      -3.866 -11.334  17.575  0.00  0.00    +0.040 A 
ATOM     28  C   UNL     1      -4.093 -11.697  18.902  0.00  0.00    +0.124 A 
ENDBRANCH   8  20
BRANCH   6  15
ATOM     15  C   UNL     1     -13.254  -5.781  14.960  0.00  0.00    +0.144 C 
BRANCH  15  17
ATOM     17  C   UNL     1     -13.385  -5.032  13.665  0.00  0.00    -0.030 A 
ATOM     18  C   UNL     1     -14.634  -4.900  13.060  0.00  0.00    +0.009 A 
ATOM     19  C   UNL     1     -12.257  -4.468  13.068  0.00  0.00    +0.009 A 
ATOM     21  C   UNL     1     -14.756  -4.205  11.856  0.00  0.00    +0.046 A 
ATOM     22  C   UNL     1     -12.379  -3.772  11.866  0.00  0.00    +0.046 A 
ATOM     23  C   UNL     1     -13.628  -3.641  11.260  0.00  0.00    +0.120 A 
BRANCH  23   4
ATOM      4  O   UNL     1     -13.747  -2.963  10.086  0.00  0.00    -0.495 OA
ATOM     29  C   UNL     1     -13.054  -3.494   8.957  0.00  0.00    +0.277 C 
ENDBRANCH  23   4
ENDBRANCH  15  17
ENDBRANCH   6  15
TORSDOF 4
ENDMDL
MODEL 10
REMARK VINA RESULT:      -6.2     28.109     30.953
REMARK  Name = 75368468
REMARK  5 active torsions:
REMARK  status: ('A' for Active; 'I' for Inactive)
REMARK    1  A    between atoms: O_4  and  C_23
REMARK    2  A    between atoms: O_4  and  C_29
REMARK    3  A    between atoms: N_6  and  C_15
REMARK    4  A    between atoms: N_8  and  C_20
REMARK    5  A    between atoms: C_15  and  C_17
REMARK                            x       y       z     vdW  Elec       q    Type
REMARK                         _______ _______ _______ _____ _____    ______ ____
ROOT
ATOM      2  O   UNL     1      -6.550 -10.057   5.801  0.00  0.00    -0.252 OA
ATOM      3  O   UNL     1      -2.801 -12.128  11.225  0.00  0.00    -0.252 OA
ATOM      5  N   UNL     1      -5.571 -10.025   7.937  0.00  0.00    -0.278 N 
ATOM      6  N   UNL     1      -7.107  -8.461   7.444  0.00  0.00    -0.279 N 
ATOM      7  N   UNL     1      -4.631 -11.018  10.357  0.00  0.00    -0.282 N 
ATOM      8  N   UNL     1      -3.609 -10.262  12.342  0.00  0.00    -0.269 N 
ATOM      9  C   UNL     1      -5.587  -9.147   9.096  0.00  0.00    +0.112 C 
ATOM     10  C   UNL     1      -6.781  -8.232   8.840  0.00  0.00    +0.133 C 
ATOM     11  C   UNL     1      -5.675  -9.973  10.376  0.00  0.00    +0.133 C 
ATOM     12  C   UNL     1      -4.659 -11.155   7.895  0.00  0.00    +0.128 C 
ATOM     13  C   UNL     1      -4.726 -11.935   9.209  0.00  0.00    +0.128 C 
ATOM     14  C   UNL     1      -6.422  -9.574   6.918  0.00  0.00    +0.306 C 
ATOM     16  C   UNL     1      -3.617 -11.208  11.318  0.00  0.00    +0.307 C 
ATOM     30  H   UNL     1      -3.961  -9.333  12.137  0.00  0.00    +0.156 HD
ENDROOT
BRANCH   8  20
ATOM      1  F   UNL     1      -1.944 -10.991  17.582  0.00  0.00    -0.205 F 
ATOM     20  C   UNL     1      -3.184 -10.449  13.681  0.00  0.00    +0.035 A 
ATOM     24  C   UNL     1      -4.117 -10.749  14.674  0.00  0.00    +0.026 A 
ATOM     25  C   UNL     1      -1.833 -10.331  14.006  0.00  0.00    +0.026 A 
ATOM     26  C   UNL     1      -3.698 -10.931  15.991  0.00  0.00    +0.040 A 
ATOM     27  C   UNL     1      -1.414 -10.513  15.325  0.00  0.00    +0.040 A 
ATOM     28  C   UNL     1      -2.346 -10.814  16.317  0.00  0.00    +0.124 A 
ENDBRANCH   8  20
BRANCH   6  15
ATOM     15  C   UNL     1      -8.128  -7.697   6.761  0.00  0.00    +0.144 C 
BRANCH  15  17
ATOM     17  C   UNL     1      -9.137  -7.128   7.716  0.00  0.00    -0.030 A 
ATOM     18  C   UNL     1     -10.090  -7.960   8.302  0.00  0.00    +0.009 A 
ATOM     19  C   UNL     1      -9.121  -5.765   8.018  0.00  0.00    +0.009 A 
ATOM     21  C   UNL     1     -11.028  -7.431   9.188  0.00  0.00    +0.046 A 
ATOM     22  C   UNL     1     -10.059  -5.237   8.904  0.00  0.00    +0.046 A 
ATOM     23  C   UNL     1     -11.012  -6.069   9.489  0.00  0.00    +0.120 A 
BRANCH  23   4
ATOM      4  O   UNL     1     -11.927  -5.553  10.354  0.00  0.00    -0.495 OA
ATOM     29  C   UNL     1     -12.498  -6.450  11.307  0.00  0.00    +0.277 C 
ENDBRANCH  23   4
ENDBRANCH  15  17
ENDBRANCH   6  15
TORSDOF 4
ENDMDL
