REMARK  Name = 11884054
REMARK  8 active torsions:
REMARK  status: ('A' for Active; 'I' for Inactive)
REMARK    1  A    between atoms: O_6  and  C_15
REMARK    2  A    between atoms: O_6  and  C_19
REMARK    3  A    between atoms: O_9  and  C_32
REMARK    4  A    between atoms: O_9  and  C_33
REMARK    5  A    between atoms: N_10  and  C_14
REMARK    6  A    between atoms: N_11  and  C_23
REMARK    7  A    between atoms: C_18  and  C_20
REMARK    8  A    between atoms: C_26  and  C_29
REMARK                            x       y       z     vdW  Elec       q    Type
REMARK                         _______ _______ _______ _____ _____    ______ ____
ROOT
ATOM      4  O   UNL     1       0.371   1.825   1.038  0.00  0.00    -0.368 OA
ATOM      5  O   UNL     1       0.062   3.910  -1.190  0.00  0.00    -0.368 OA
ATOM     12  C   UNL     1      -0.557   2.622  -0.994  0.00  0.00    +0.173 C 
ATOM     13  C   UNL     1       0.496   1.715  -0.390  0.00  0.00    +0.192 C 
ATOM     14  C   UNL     1      -1.616   2.713   0.081  0.00  0.00    +0.130 C 
ATOM     15  C   UNL     1       1.782   2.332  -0.888  0.00  0.00    +0.235 C 
ATOM     16  C   UNL     1      -0.793   2.604   1.353  0.00  0.00    +0.185 C 
ATOM     17  C   UNL     1       1.457   3.808  -0.866  0.00  0.00    +0.207 C 
ENDROOT
BRANCH  14  10
ATOM      7  O   UNL     1      -4.331   2.714   1.014  0.00  0.00    -0.270 OA
ATOM     10  N   UNL     1      -2.564   1.631  -0.026  0.00  0.00    -0.304 N 
ATOM     18  C   UNL     1      -3.861   1.725   0.458  0.00  0.00    +0.244 C 
ATOM     34  H   UNL     1      -2.215   0.745  -0.377  0.00  0.00    +0.149 HD
BRANCH  18  20
ATOM     20  C   UNL     1      -4.706   0.514   0.294  0.00  0.00    +0.037 A 
ATOM     21  C   UNL     1      -5.755   0.271   1.181  0.00  0.00    +0.013 A 
ATOM     22  C   UNL     1      -4.450  -0.380  -0.746  0.00  0.00    +0.013 A 
ATOM     24  C   UNL     1      -6.548  -0.867   1.028  0.00  0.00    +0.013 A 
ATOM     25  C   UNL     1      -5.243  -1.517  -0.898  0.00  0.00    +0.013 A 
ATOM     26  C   UNL     1      -6.292  -1.761  -0.011  0.00  0.00    +0.055 A 
BRANCH  26  29
ATOM      1  F   UNL     1      -7.785  -3.035  -1.379  0.00  0.00    -0.166 F 
ATOM      2  F   UNL     1      -8.129  -3.084   0.762  0.00  0.00    -0.166 F 
ATOM      3  F   UNL     1      -6.423  -4.133  -0.087  0.00  0.00    -0.166 F 
ATOM     29  C   UNL     1      -7.141  -2.975  -0.175  0.00  0.00    +0.417 C 
ENDBRANCH  26  29
ENDBRANCH  18  20
ENDBRANCH  14  10
BRANCH  15   6
ATOM      6  O   UNL     1       2.901   2.023  -0.088  0.00  0.00    -0.442 OA
BRANCH   6  19
ATOM      8  O   UNL     1       3.375   0.237  -1.436  0.00  0.00    -0.226 OA
ATOM     11  N   UNL     1       4.702   0.763   0.420  0.00  0.00    -0.251 N 
ATOM     19  C   UNL     1       3.650   0.925  -0.461  0.00  0.00    +0.405 C 
ATOM     35  H   UNL     1       4.765   1.443   1.174  0.00  0.00    +0.158 HD
BRANCH  11  23
ATOM     23  C   UNL     1       5.705  -0.232   0.404  0.00  0.00    +0.037 A 
ATOM     27  C   UNL     1       6.697  -0.238   1.384  0.00  0.00    +0.027 A 
ATOM     28  C   UNL     1       5.702  -1.209  -0.592  0.00  0.00    +0.027 A 
ATOM     30  C   UNL     1       7.687  -1.222   1.369  0.00  0.00    +0.047 A 
ATOM     31  C   UNL     1       6.691  -2.193  -0.607  0.00  0.00    +0.047 A 
ATOM     32  C   UNL     1       7.683  -2.199   0.373  0.00  0.00    +0.120 A 
BRANCH  32   9
ATOM      9  O   UNL     1       8.647  -3.159   0.360  0.00  0.00    -0.495 OA
ATOM     33  C   UNL     1       8.584  -4.128  -0.686  0.00  0.00    +0.277 C 
ENDBRANCH  32   9
ENDBRANCH  11  23
ENDBRANCH   6  19
ENDBRANCH  15   6
TORSDOF 7
