REMARK  Name = 45361701
REMARK  9 active torsions:
REMARK  status: ('A' for Active; 'I' for Inactive)
REMARK    1  A    between atoms: N_7  and  C_19
REMARK    2  A    between atoms: N_11  and  C_37
REMARK    3  A    between atoms: N_11  and  C_38
REMARK    4  A    between atoms: N_11  and  C_39
REMARK    5  A    between atoms: C_12  and  C_15
REMARK    6  A    between atoms: C_15  and  C_19
REMARK    7  A    between atoms: C_19  and  C_25
REMARK    8  A    between atoms: C_20  and  C_23
REMARK    9  A    between atoms: C_27  and  C_32
REMARK                            x       y       z     vdW  Elec       q    Type
REMARK                         _______ _______ _______ _____ _____    ______ ____
ROOT
ATOM      3  O   UNL     1      -4.878   2.286   3.033  0.00  0.00    -0.377 OA
ATOM      4  O   UNL     1      -3.303   2.903  -1.188  0.00  0.00    -0.252 OA
ATOM      5  O   UNL     1       2.455   0.011  -3.147  0.00  0.00    -0.270 OA
ATOM      6  N   UNL     1      -1.379   1.759  -0.627  0.00  0.00    -0.271 N 
ATOM      8  N   UNL     1       1.211   1.406  -1.745  0.00  0.00    -0.294 N 
ATOM      9  N   UNL     1      -2.897   2.555   1.048  0.00  0.00    -0.281 N 
ATOM     20  C   UNL     1      -1.238   1.141  -1.954  0.00  0.00    +0.181 C 
ATOM     21  C   UNL     1       0.071   1.502  -2.655  0.00  0.00    +0.140 C 
ATOM     22  C   UNL     1      -0.187   1.727   0.242  0.00  0.00    +0.129 C 
ATOM     24  C   UNL     1       1.058   2.182  -0.512  0.00  0.00    +0.127 C 
ATOM     26  C   UNL     1      -2.572   2.430  -0.308  0.00  0.00    +0.306 C 
ATOM     27  C   UNL     1       2.333   0.660  -2.109  0.00  0.00    +0.247 C 
ATOM     28  C   UNL     1      -3.657   3.714   1.515  0.00  0.00    +0.137 C 
ATOM     29  C   UNL     1      -2.819   1.464   2.028  0.00  0.00    +0.137 C 
ATOM     30  C   UNL     1      -5.027   3.276   2.010  0.00  0.00    +0.179 C 
ATOM     31  C   UNL     1      -4.220   1.121   2.530  0.00  0.00    +0.179 C 
ENDROOT
BRANCH  27  32
ATOM     32  C   UNL     1       3.469   0.621  -1.180  0.00  0.00    +0.037 A 
ATOM     33  C   UNL     1       3.536  -0.372  -0.202  0.00  0.00    +0.015 A 
ATOM     34  C   UNL     1       4.481   1.576  -1.274  0.00  0.00    +0.015 A 
ATOM     35  C   UNL     1       4.614  -0.409   0.682  0.00  0.00    +0.024 A 
ATOM     36  C   UNL     1       5.560   1.539  -0.391  0.00  0.00    +0.024 A 
ATOM     37  C   UNL     1       5.626   0.547   0.588  0.00  0.00    +0.029 A 
BRANCH  37  11
ATOM     11  N   UNL     1       6.717   0.510   1.480  0.00  0.00    -0.336 N 
ATOM     38  C   UNL     1       7.777   1.494   1.385  0.00  0.00    +0.129 C 
ATOM     39  C   UNL     1       6.797  -0.517   2.500  0.00  0.00    +0.129 C 
ENDBRANCH  37  11
ENDBRANCH  27  32
BRANCH  20  23
ATOM      1  O   UNL     1      -0.487  -1.124  -2.072  0.00  0.00    -0.274 OA
ATOM      7  N   UNL     1      -2.573  -0.675  -1.141  0.00  0.00    -0.302 N 
ATOM     23  C   UNL     1      -1.368  -0.338  -1.733  0.00  0.00    +0.236 C 
ATOM     40  H   UNL     1      -3.232   0.060  -0.904  0.00  0.00    +0.150 HD
BRANCH   7  19
ATOM     19  C   UNL     1      -2.953  -2.037  -0.843  0.00  0.00    +0.159 C 
BRANCH  19  25
ATOM      2  O   UNL     1      -5.263  -1.287  -0.756  0.00  0.00    -0.274 OA
ATOM     10  N   UNL     1      -4.830  -3.416  -1.501  0.00  0.00    -0.328 N 
ATOM     25  C   UNL     1      -4.459  -2.175  -1.028  0.00  0.00    +0.231 C 
ATOM     41  H   UNL     1      -4.156  -4.148  -1.701  0.00  0.00    +0.145 HD
ATOM     42  H   UNL     1      -5.806  -3.641  -1.660  0.00  0.00    +0.145 HD
ENDBRANCH  19  25
BRANCH  19  15
ATOM     15  C   UNL     1      -2.483  -2.478   0.547  0.00  0.00    +0.035 C 
BRANCH  15  12
ATOM     12  C   UNL     1      -0.989  -2.783   0.636  0.00  0.00    -0.009 C 
ATOM     13  C   UNL     1      -0.501  -2.682   2.087  0.00  0.00    +0.003 C 
ATOM     14  C   UNL     1      -0.683  -4.168   0.051  0.00  0.00    +0.003 C 
ATOM     16  C   UNL     1       0.980  -3.035   2.209  0.00  0.00    +0.000 C 
ATOM     17  C   UNL     1       0.798  -4.518   0.176  0.00  0.00    +0.000 C 
ATOM     18  C   UNL     1       1.282  -4.409   1.619  0.00  0.00    +0.000 C 
ENDBRANCH  15  12
ENDBRANCH  19  15
ENDBRANCH   7  19
ENDBRANCH  20  23
TORSDOF 7
