REMARK  Name = 40777463
REMARK  8 active torsions:
REMARK  status: ('A' for Active; 'I' for Inactive)
REMARK    1  A    between atoms: O_4  and  C_35
REMARK    2  A    between atoms: O_4  and  C_36
REMARK    3  A    between atoms: N_7  and  C_23
REMARK    4  A    between atoms: C_9  and  C_13
REMARK    5  A    between atoms: C_10  and  C_15
REMARK    6  A    between atoms: C_13  and  C_16
REMARK    7  A    between atoms: C_15  and  C_17
REMARK    8  A    between atoms: C_24  and  C_27
REMARK                            x       y       z     vdW  Elec       q    Type
REMARK                         _______ _______ _______ _____ _____    ______ ____
ROOT
ATOM      5  N   UNL     1      -1.484   2.863   2.412  0.00  0.00    -0.316 NA
ATOM      9  C   UNL     1       0.004   2.489  -0.108  0.00  0.00    +0.004 C 
ATOM     10  C   UNL     1      -1.405   1.895   0.127  0.00  0.00    +0.012 C 
ATOM     11  C   UNL     1       0.194   3.710   0.809  0.00  0.00    +0.019 C 
ATOM     12  C   UNL     1      -1.675   1.647   1.621  0.00  0.00    +0.085 C 
ATOM     14  C   UNL     1      -0.132   3.398   2.269  0.00  0.00    +0.081 C 
ATOM     37  H   UNL     1      -1.663   2.658   3.395  0.00  0.00    +0.122 HD
ENDROOT
BRANCH   9  13
ATOM     13  C   UNL     1       1.146   1.483   0.081  0.00  0.00    +0.100 C 
BRANCH  13  16
ATOM      2  O   UNL     1       2.350   3.021  -1.268  0.00  0.00    -0.276 OA
ATOM      6  N   UNL     1       3.510   1.146  -0.535  0.00  0.00    -0.298 N 
ATOM      7  N   UNL     1       5.963  -0.357  -0.213  0.00  0.00    -0.327 N 
ATOM     16  C   UNL     1       2.383   1.962  -0.636  0.00  0.00    +0.216 C 
ATOM     18  C   UNL     1       4.747   1.539  -1.206  0.00  0.00    +0.126 C 
ATOM     19  C   UNL     1       3.551  -0.105   0.225  0.00  0.00    +0.126 C 
ATOM     20  C   UNL     1       5.984   1.093  -0.431  0.00  0.00    +0.124 C 
ATOM     21  C   UNL     1       4.669  -1.042  -0.237  0.00  0.00    +0.124 C 
BRANCH   7  23
ATOM      1  F   UNL     1      10.660  -3.163   0.535  0.00  0.00    -0.205 F 
ATOM     23  C   UNL     1       7.148  -1.065  -0.024  0.00  0.00    +0.030 A 
ATOM     25  C   UNL     1       8.246  -0.441   0.569  0.00  0.00    +0.026 A 
ATOM     26  C   UNL     1       7.237  -2.397  -0.428  0.00  0.00    +0.026 A 
ATOM     28  C   UNL     1       9.432  -1.149   0.758  0.00  0.00    +0.040 A 
ATOM     29  C   UNL     1       8.423  -3.105  -0.239  0.00  0.00    +0.040 A 
ATOM     30  C   UNL     1       9.521  -2.482   0.354  0.00  0.00    +0.124 A 
ENDBRANCH   7  23
ENDBRANCH  13  16
ENDBRANCH   9  13
BRANCH  10  15
ATOM     15  C   UNL     1      -1.661   0.624  -0.683  0.00  0.00    +0.064 C 
BRANCH  15  17
ATOM      3  O   UNL     1      -5.088   0.476  -1.780  0.00  0.00    -0.354 OA
ATOM      8  N   UNL     1      -3.768   0.888  -1.921  0.00  0.00    -0.083 NA
ATOM     17  C   UNL     1      -3.131   0.377  -0.863  0.00  0.00    +0.085 A 
ATOM     22  C   UNL     1      -3.990  -0.359  -0.028  0.00  0.00    +0.076 A 
ATOM     24  C   UNL     1      -5.207  -0.266  -0.649  0.00  0.00    +0.167 A 
BRANCH  24  27
ATOM     27  C   UNL     1      -6.522  -0.764  -0.369  0.00  0.00    +0.020 A 
ATOM     31  C   UNL     1      -6.747  -1.537   0.770  0.00  0.00    +0.015 A 
ATOM     32  C   UNL     1      -7.577  -0.476  -1.236  0.00  0.00    +0.015 A 
ATOM     33  C   UNL     1      -8.027  -2.022   1.042  0.00  0.00    +0.046 A 
ATOM     34  C   UNL     1      -8.856  -0.960  -0.963  0.00  0.00    +0.046 A 
ATOM     35  C   UNL     1      -9.081  -1.733   0.176  0.00  0.00    +0.120 A 
BRANCH  35   4
ATOM      4  O   UNL     1     -10.330  -2.204   0.443  0.00  0.00    -0.495 OA
ATOM     36  C   UNL     1     -10.490  -2.985   1.626  0.00  0.00    +0.277 C 
ENDBRANCH  35   4
ENDBRANCH  24  27
ENDBRANCH  15  17
ENDBRANCH  10  15
TORSDOF 7
