MODEL 1
REMARK VINA RESULT:      -8.2      0.000      0.000
REMARK  Name = 45783286
REMARK  4 active torsions:
REMARK  status: ('A' for Active; 'I' for Inactive)
REMARK    1  A    between atoms: N_3  and  C_13
REMARK    2  A    between atoms: C_9  and  C_14
REMARK    3  A    between atoms: C_13  and  C_15
REMARK    4  A    between atoms: C_17  and  C_19
REMARK                            x       y       z     vdW  Elec       q    Type
REMARK                         _______ _______ _______ _____ _____    ______ ____
ROOT
ATOM      1  O   UNL     1      14.649   6.446  20.574  0.00  0.00    -0.336 OA
ATOM      4  N   UNL     1      15.897   8.005  19.559  0.00  0.00    -0.190 NA
ATOM      6  N   UNL     1      15.812   6.575  21.343  0.00  0.00    -0.056 NA
ATOM     14  C   UNL     1      14.780   7.322  19.543  0.00  0.00    +0.245 A 
ATOM     17  C   UNL     1      16.497   7.512  20.682  0.00  0.00    +0.202 A 
ENDROOT
BRANCH  17  19
ATOM      2  O   UNL     1      23.445   5.070  21.607  0.00  0.00    -0.377 OA
ATOM      5  N   UNL     1      21.202   6.756  21.440  0.00  0.00    -0.311 N 
ATOM      8  N   UNL     1      20.293   8.880  21.950  0.00  0.00    -0.240 NA
ATOM     19  C   UNL     1      17.784   7.976  21.114  0.00  0.00    +0.027 A 
ATOM     21  C   UNL     1      21.141   5.512  22.222  0.00  0.00    +0.134 C 
ATOM     22  C   UNL     1      22.550   7.293  21.226  0.00  0.00    +0.134 C 
ATOM     23  C   UNL     1      20.106   7.622  21.493  0.00  0.00    +0.122 A 
ATOM     24  C   UNL     1      22.137   4.503  21.661  0.00  0.00    +0.178 C 
ATOM     25  C   UNL     1      23.470   6.188  20.720  0.00  0.00    +0.178 C 
ATOM     27  C   UNL     1      18.884   7.126  21.066  0.00  0.00    +0.055 A 
ATOM     28  C   UNL     1      17.937   9.276  21.578  0.00  0.00    +0.031 A 
ATOM     31  C   UNL     1      19.201   9.677  21.982  0.00  0.00    +0.113 A 
ENDBRANCH  17  19
BRANCH  14   9
ATOM      3  N   UNL     1      12.641   8.414  18.891  0.00  0.00    -0.287 NA
ATOM      9  C   UNL     1      13.636   7.376  18.553  0.00  0.00    +0.146 C 
ATOM     10  C   UNL     1      14.099   7.728  17.128  0.00  0.00    +0.030 C 
ATOM     11  C   UNL     1      13.268   8.938  16.726  0.00  0.00    +0.017 C 
ATOM     12  C   UNL     1      12.051   8.848  17.625  0.00  0.00    +0.085 C 
BRANCH   3  13
ATOM     13  C   UNL     1      11.632   7.956  19.837  0.00  0.00    +0.121 C 
BRANCH  13  15
ATOM      7  N   UNL     1      10.785   9.294  23.254  0.00  0.00    -0.255 NA
ATOM     15  C   UNL     1      11.429   8.910  20.959  0.00  0.00    -0.015 A 
ATOM     16  C   UNL     1      11.673  10.266  20.803  0.00  0.00    +0.016 A 
ATOM     18  C   UNL     1      10.990   8.478  22.194  0.00  0.00    +0.116 A 
ATOM     20  C   UNL     1      11.473  11.146  21.876  0.00  0.00    +0.001 A 
ATOM     26  C   UNL     1      11.023  10.609  23.100  0.00  0.00    +0.071 A 
ATOM     29  C   UNL     1      11.711  12.525  21.750  0.00  0.00    +0.010 A 
ATOM     30  C   UNL     1      10.825  11.485  24.165  0.00  0.00    +0.028 A 
ATOM     32  C   UNL     1      11.506  13.377  22.831  0.00  0.00    +0.001 A 
ATOM     33  C   UNL     1      11.061  12.856  24.040  0.00  0.00    +0.002 A 
ENDBRANCH  13  15
ENDBRANCH   3  13
ENDBRANCH  14   9
TORSDOF 4
ENDMDL
MODEL 2
REMARK VINA RESULT:      -7.9      1.637      2.304
REMARK  Name = 45783286
REMARK  4 active torsions:
REMARK  status: ('A' for Active; 'I' for Inactive)
REMARK    1  A    between atoms: N_3  and  C_13
REMARK    2  A    between atoms: C_9  and  C_14
REMARK    3  A    between atoms: C_13  and  C_15
REMARK    4  A    between atoms: C_17  and  C_19
REMARK                            x       y       z     vdW  Elec       q    Type
REMARK                         _______ _______ _______ _____ _____    ______ ____
ROOT
ATOM      1  O   UNL     1      14.180   7.070  20.501  0.00  0.00    -0.336 OA
ATOM      4  N   UNL     1      15.874   7.008  19.037  0.00  0.00    -0.190 NA
ATOM      6  N   UNL     1      15.326   6.761  21.245  0.00  0.00    -0.056 NA
ATOM     14  C   UNL     1      14.590   7.198  19.212  0.00  0.00    +0.245 A 
ATOM     17  C   UNL     1      16.283   6.743  20.313  0.00  0.00    +0.202 A 
ENDROOT
BRANCH  17  19
ATOM      2  O   UNL     1      21.619   8.783  25.051  0.00  0.00    -0.377 OA
ATOM      5  N   UNL     1      20.202   7.416  23.045  0.00  0.00    -0.311 N 
ATOM      8  N   UNL     1      20.326   5.907  21.227  0.00  0.00    -0.240 NA
ATOM     19  C   UNL     1      17.655   6.460  20.621  0.00  0.00    +0.027 A 
ATOM     21  C   UNL     1      20.276   8.885  23.034  0.00  0.00    +0.134 C 
ATOM     22  C   UNL     1      21.276   6.743  23.783  0.00  0.00    +0.134 C 
ATOM     23  C   UNL     1      19.596   6.778  21.958  0.00  0.00    +0.122 A 
ATOM     24  C   UNL     1      20.479   9.400  24.454  0.00  0.00    +0.178 C 
ATOM     25  C   UNL     1      21.426   7.374  25.163  0.00  0.00    +0.178 C 
ATOM     27  C   UNL     1      18.270   7.087  21.700  0.00  0.00    +0.055 A 
ATOM     28  C   UNL     1      18.373   5.558  19.846  0.00  0.00    +0.031 A 
ATOM     31  C   UNL     1      19.694   5.318  20.187  0.00  0.00    +0.113 A 
ENDBRANCH  17  19
BRANCH  14   9
ATOM      3  N   UNL     1      12.692   8.687  18.603  0.00  0.00    -0.287 NA
ATOM      9  C   UNL     1      13.523   7.537  18.193  0.00  0.00    +0.146 C 
ATOM     10  C   UNL     1      14.110   7.945  16.830  0.00  0.00    +0.030 C 
ATOM     11  C   UNL     1      13.506   9.309  16.528  0.00  0.00    +0.017 C 
ATOM     12  C   UNL     1      12.246   9.334  17.369  0.00  0.00    +0.085 C 
BRANCH   3  13
ATOM     13  C   UNL     1      11.574   8.312  19.459  0.00  0.00    +0.121 C 
BRANCH  13  15
ATOM      7  N   UNL     1      10.537   9.582  22.850  0.00  0.00    -0.255 NA
ATOM     15  C   UNL     1      11.442   9.200  20.644  0.00  0.00    -0.015 A 
ATOM     16  C   UNL     1      12.062  10.440  20.686  0.00  0.00    +0.016 A 
ATOM     18  C   UNL     1      10.697   8.821  21.743  0.00  0.00    +0.116 A 
ATOM     20  C   UNL     1      11.921  11.260  21.814  0.00  0.00    +0.001 A 
ATOM     26  C   UNL     1      11.140  10.785  22.887  0.00  0.00    +0.071 A 
ATOM     29  C   UNL     1      12.536  12.522  21.887  0.00  0.00    +0.010 A 
ATOM     30  C   UNL     1      11.001  11.601  24.008  0.00  0.00    +0.028 A 
ATOM     32  C   UNL     1      12.382  13.316  23.020  0.00  0.00    +0.001 A 
ATOM     33  C   UNL     1      11.612  12.855  24.081  0.00  0.00    +0.002 A 
ENDBRANCH  13  15
ENDBRANCH   3  13
ENDBRANCH  14   9
TORSDOF 4
ENDMDL
MODEL 3
REMARK VINA RESULT:      -7.8      5.469      9.890
REMARK  Name = 45783286
REMARK  4 active torsions:
REMARK  status: ('A' for Active; 'I' for Inactive)
REMARK    1  A    between atoms: N_3  and  C_13
REMARK    2  A    between atoms: C_9  and  C_14
REMARK    3  A    between atoms: C_13  and  C_15
REMARK    4  A    between atoms: C_17  and  C_19
REMARK                            x       y       z     vdW  Elec       q    Type
REMARK                         _______ _______ _______ _____ _____    ______ ____
ROOT
ATOM      1  O   UNL     1      15.535  10.255  14.216  0.00  0.00    -0.336 OA
ATOM      4  N   UNL     1      13.911  11.392  15.258  0.00  0.00    -0.190 NA
ATOM      6  N   UNL     1      14.703   9.294  14.802  0.00  0.00    -0.056 NA
ATOM     14  C   UNL     1      14.999  11.462  14.533  0.00  0.00    +0.245 A 
ATOM     17  C   UNL     1      13.769  10.041  15.398  0.00  0.00    +0.202 A 
ENDROOT
BRANCH  17  19
ATOM      2  O   UNL     1      12.275   7.253  22.113  0.00  0.00    -0.377 OA
ATOM      5  N   UNL     1      11.976   8.218  19.490  0.00  0.00    -0.311 N 
ATOM      8  N   UNL     1      10.567   8.363  17.594  0.00  0.00    -0.240 NA
ATOM     19  C   UNL     1      12.683   9.471  16.142  0.00  0.00    +0.027 A 
ATOM     21  C   UNL     1      13.007   7.217  19.801  0.00  0.00    +0.134 C 
ATOM     22  C   UNL     1      10.852   8.269  20.430  0.00  0.00    +0.134 C 
ATOM     23  C   UNL     1      11.781   8.570  18.151  0.00  0.00    +0.122 A 
ATOM     24  C   UNL     1      13.418   7.341  21.263  0.00  0.00    +0.178 C 
ATOM     25  C   UNL     1      11.379   8.335  21.859  0.00  0.00    +0.178 C 
ATOM     27  C   UNL     1      12.861   9.116  17.475  0.00  0.00    +0.055 A 
ATOM     28  C   UNL     1      11.449   9.272  15.535  0.00  0.00    +0.031 A 
ATOM     31  C   UNL     1      10.432   8.720  16.296  0.00  0.00    +0.113 A 
ENDBRANCH  17  19
BRANCH  14   9
ATOM      3  N   UNL     1      14.884  13.501  13.110  0.00  0.00    -0.287 NA
ATOM      9  C   UNL     1      15.724  12.683  14.008  0.00  0.00    +0.146 C 
ATOM     10  C   UNL     1      16.152  13.648  15.128  0.00  0.00    +0.030 C 
ATOM     11  C   UNL     1      15.556  14.995  14.743  0.00  0.00    +0.017 C 
ATOM     12  C   UNL     1      15.354  14.879  13.246  0.00  0.00    +0.085 C 
BRANCH   3  13
ATOM     13  C   UNL     1      14.912  13.047  11.725  0.00  0.00    +0.121 C 
BRANCH  13  15
ATOM      7  N   UNL     1      12.151  12.062   9.361  0.00  0.00    -0.255 NA
ATOM     15  C   UNL     1      13.564  12.677  11.219  0.00  0.00    -0.015 A 
ATOM     16  C   UNL     1      12.473  12.594  12.072  0.00  0.00    +0.016 A 
ATOM     18  C   UNL     1      13.351  12.403   9.883  0.00  0.00    +0.116 A 
ATOM     20  C   UNL     1      11.212  12.244  11.572  0.00  0.00    +0.001 A 
ATOM     26  C   UNL     1      11.095  11.983  10.191  0.00  0.00    +0.071 A 
ATOM     29  C   UNL     1      10.088  12.153  12.410  0.00  0.00    +0.010 A 
ATOM     30  C   UNL     1       9.841  11.636   9.695  0.00  0.00    +0.028 A 
ATOM     32  C   UNL     1       8.846  11.802  11.887  0.00  0.00    +0.001 A 
ATOM     33  C   UNL     1       8.723  11.544  10.527  0.00  0.00    +0.002 A 
ENDBRANCH  13  15
ENDBRANCH   3  13
ENDBRANCH  14   9
TORSDOF 4
ENDMDL
MODEL 4
REMARK VINA RESULT:      -7.7     26.970     30.004
REMARK  Name = 45783286
REMARK  4 active torsions:
REMARK  status: ('A' for Active; 'I' for Inactive)
REMARK    1  A    between atoms: N_3  and  C_13
REMARK    2  A    between atoms: C_9  and  C_14
REMARK    3  A    between atoms: C_13  and  C_15
REMARK    4  A    between atoms: C_17  and  C_19
REMARK                            x       y       z     vdW  Elec       q    Type
REMARK                         _______ _______ _______ _____ _____    ______ ____
ROOT
ATOM      1  O   UNL     1      -5.635 -12.655  17.679  0.00  0.00    -0.336 OA
ATOM      4  N   UNL     1      -5.295 -10.547  17.003  0.00  0.00    -0.190 NA
ATOM      6  N   UNL     1      -4.654 -12.719  16.681  0.00  0.00    -0.056 NA
ATOM     14  C   UNL     1      -5.958 -11.342  17.806  0.00  0.00    +0.245 A 
ATOM     17  C   UNL     1      -4.507 -11.437  16.333  0.00  0.00    +0.202 A 
ENDROOT
BRANCH  17  19
ATOM      2  O   UNL     1      -4.103 -10.574   8.972  0.00  0.00    -0.377 OA
ATOM      5  N   UNL     1      -3.481 -10.501  11.712  0.00  0.00    -0.311 N 
ATOM      8  N   UNL     1      -1.794 -10.185  13.341  0.00  0.00    -0.240 NA
ATOM     19  C   UNL     1      -3.586 -11.014  15.318  0.00  0.00    +0.027 A 
ATOM     21  C   UNL     1      -3.940 -11.750  11.087  0.00  0.00    +0.134 C 
ATOM     22  C   UNL     1      -2.891  -9.523  10.792  0.00  0.00    +0.134 C 
ATOM     23  C   UNL     1      -3.062 -10.546  13.045  0.00  0.00    +0.122 A 
ATOM     24  C   UNL     1      -4.804 -11.429   9.873  0.00  0.00    +0.178 C 
ATOM     25  C   UNL     1      -3.811  -9.323   9.594  0.00  0.00    +0.178 C 
ATOM     27  C   UNL     1      -3.989 -10.964  13.987  0.00  0.00    +0.055 A 
ATOM     28  C   UNL     1      -2.289 -10.651  15.660  0.00  0.00    +0.031 A 
ATOM     31  C   UNL     1      -1.439 -10.247  14.644  0.00  0.00    +0.113 A 
ENDBRANCH  17  19
BRANCH  14   9
ATOM      3  N   UNL     1      -8.273 -10.534  18.228  0.00  0.00    -0.287 NA
ATOM      9  C   UNL     1      -7.012 -11.002  18.837  0.00  0.00    +0.146 C 
ATOM     10  C   UNL     1      -7.418 -12.214  19.695  0.00  0.00    +0.030 C 
ATOM     11  C   UNL     1      -8.931 -12.313  19.552  0.00  0.00    +0.017 C 
ATOM     12  C   UNL     1      -9.343 -10.911  19.151  0.00  0.00    +0.085 C 
BRANCH   3  13
ATOM     13  C   UNL     1      -8.277  -9.105  17.940  0.00  0.00    +0.121 C 
BRANCH  13  15
ATOM      7  N   UNL     1     -10.228  -9.253  14.722  0.00  0.00    -0.255 NA
ATOM     15  C   UNL     1      -9.236  -8.744  16.863  0.00  0.00    -0.015 A 
ATOM     16  C   UNL     1     -10.025  -7.606  16.955  0.00  0.00    +0.016 A 
ATOM     18  C   UNL     1      -9.375  -9.527  15.735  0.00  0.00    +0.116 A 
ATOM     20  C   UNL     1     -10.922  -7.286  15.927  0.00  0.00    +0.001 A 
ATOM     26  C   UNL     1     -10.992  -8.149  14.814  0.00  0.00    +0.071 A 
ATOM     29  C   UNL     1     -11.734  -6.141  15.989  0.00  0.00    +0.010 A 
ATOM     30  C   UNL     1     -11.883  -7.830  13.792  0.00  0.00    +0.028 A 
ATOM     32  C   UNL     1     -12.618  -5.846  14.954  0.00  0.00    +0.001 A 
ATOM     33  C   UNL     1     -12.691  -6.692  13.854  0.00  0.00    +0.002 A 
ENDBRANCH  13  15
ENDBRANCH   3  13
ENDBRANCH  14   9
TORSDOF 4
ENDMDL
MODEL 5
REMARK VINA RESULT:      -7.6      4.580      6.958
REMARK  Name = 45783286
REMARK  4 active torsions:
REMARK  status: ('A' for Active; 'I' for Inactive)
REMARK    1  A    between atoms: N_3  and  C_13
REMARK    2  A    between atoms: C_9  and  C_14
REMARK    3  A    between atoms: C_13  and  C_15
REMARK    4  A    between atoms: C_17  and  C_19
REMARK                            x       y       z     vdW  Elec       q    Type
REMARK                         _______ _______ _______ _____ _____    ______ ____
ROOT
ATOM      1  O   UNL     1      13.880   8.062  16.582  0.00  0.00    -0.336 OA
ATOM      4  N   UNL     1      14.410  10.193  17.021  0.00  0.00    -0.190 NA
ATOM      6  N   UNL     1      14.037   8.687  15.339  0.00  0.00    -0.056 NA
ATOM     14  C   UNL     1      14.116   9.018  17.518  0.00  0.00    +0.245 A 
ATOM     17  C   UNL     1      14.349   9.941  15.681  0.00  0.00    +0.202 A 
ENDROOT
BRANCH  17  19
ATOM      2  O   UNL     1      19.891  12.684  11.576  0.00  0.00    -0.377 OA
ATOM      5  N   UNL     1      17.333  12.197  12.633  0.00  0.00    -0.311 N 
ATOM      8  N   UNL     1      15.098  12.955  12.811  0.00  0.00    -0.240 NA
ATOM     19  C   UNL     1      14.603  10.964  14.709  0.00  0.00    +0.027 A 
ATOM     21  C   UNL     1      18.470  12.455  13.528  0.00  0.00    +0.134 C 
ATOM     22  C   UNL     1      17.485  12.710  11.268  0.00  0.00    +0.134 C 
ATOM     23  C   UNL     1      16.059  12.088  13.200  0.00  0.00    +0.122 A 
ATOM     24  C   UNL     1      19.768  12.040  12.843  0.00  0.00    +0.178 C 
ATOM     25  C   UNL     1      18.835  12.282  10.704  0.00  0.00    +0.178 C 
ATOM     27  C   UNL     1      15.865  11.085  14.136  0.00  0.00    +0.055 A 
ATOM     28  C   UNL     1      13.590  11.838  14.334  0.00  0.00    +0.031 A 
ATOM     31  C   UNL     1      13.885  12.808  13.389  0.00  0.00    +0.113 A 
ENDBRANCH  17  19
BRANCH  14   9
ATOM      3  N   UNL     1      13.054   7.477  19.158  0.00  0.00    -0.287 NA
ATOM      9  C   UNL     1      14.007   8.588  18.966  0.00  0.00    +0.146 C 
ATOM     10  C   UNL     1      15.339   8.064  19.532  0.00  0.00    +0.030 C 
ATOM     11  C   UNL     1      15.023   6.677  20.074  0.00  0.00    +0.017 C 
ATOM     12  C   UNL     1      13.528   6.723  20.319  0.00  0.00    +0.085 C 
BRANCH   3  13
ATOM     13  C   UNL     1      11.677   7.923  19.321  0.00  0.00    +0.121 C 
BRANCH  13  15
ATOM      7  N   UNL     1      10.803   8.882  22.857  0.00  0.00    -0.255 NA
ATOM     15  C   UNL     1      11.485   8.745  20.545  0.00  0.00    -0.015 A 
ATOM     16  C   UNL     1      11.785  10.099  20.556  0.00  0.00    +0.016 A 
ATOM     18  C   UNL     1      11.001   8.189  21.712  0.00  0.00    +0.116 A 
ATOM     20  C   UNL     1      11.596  10.854  21.722  0.00  0.00    +0.001 A 
ATOM     26  C   UNL     1      11.096  10.195  22.865  0.00  0.00    +0.071 A 
ATOM     29  C   UNL     1      11.890  12.227  21.766  0.00  0.00    +0.010 A 
ATOM     30  C   UNL     1      10.907  10.946  24.023  0.00  0.00    +0.028 A 
ATOM     32  C   UNL     1      11.693  12.953  22.937  0.00  0.00    +0.001 A 
ATOM     33  C   UNL     1      11.200  12.311  24.067  0.00  0.00    +0.002 A 
ENDBRANCH  13  15
ENDBRANCH   3  13
ENDBRANCH  14   9
TORSDOF 4
ENDMDL
MODEL 6
REMARK VINA RESULT:      -7.6     28.489     31.333
REMARK  Name = 45783286
REMARK  4 active torsions:
REMARK  status: ('A' for Active; 'I' for Inactive)
REMARK    1  A    between atoms: N_3  and  C_13
REMARK    2  A    between atoms: C_9  and  C_14
REMARK    3  A    between atoms: C_13  and  C_15
REMARK    4  A    between atoms: C_17  and  C_19
REMARK                            x       y       z     vdW  Elec       q    Type
REMARK                         _______ _______ _______ _____ _____    ______ ____
ROOT
ATOM      1  O   UNL     1     -14.351  10.073  32.983  0.00  0.00    -0.336 OA
ATOM      4  N   UNL     1     -13.254   8.429  31.930  0.00  0.00    -0.190 NA
ATOM      6  N   UNL     1     -14.747   8.881  33.603  0.00  0.00    -0.056 NA
ATOM     14  C   UNL     1     -13.473   9.717  32.009  0.00  0.00    +0.245 A 
ATOM     17  C   UNL     1     -14.057   7.957  32.927  0.00  0.00    +0.202 A 
ENDROOT
BRANCH  17  19
ATOM      2  O   UNL     1     -14.851   1.428  29.487  0.00  0.00    -0.377 OA
ATOM      5  N   UNL     1     -14.427   3.371  31.474  0.00  0.00    -0.311 N 
ATOM      8  N   UNL     1     -14.327   3.827  33.794  0.00  0.00    -0.240 NA
ATOM     19  C   UNL     1     -14.151   6.557  33.222  0.00  0.00    +0.027 A 
ATOM     21  C   UNL     1     -15.572   3.481  30.558  0.00  0.00    +0.134 C 
ATOM     22  C   UNL     1     -13.883   2.018  31.633  0.00  0.00    +0.134 C 
ATOM     23  C   UNL     1     -14.331   4.290  32.524  0.00  0.00    +0.122 A 
ATOM     24  C   UNL     1     -15.250   2.776  29.246  0.00  0.00    +0.178 C 
ATOM     25  C   UNL     1     -13.653   1.391  30.263  0.00  0.00    +0.178 C 
ATOM     27  C   UNL     1     -14.245   5.631  32.187  0.00  0.00    +0.055 A 
ATOM     28  C   UNL     1     -14.144   6.119  34.540  0.00  0.00    +0.031 A 
ATOM     31  C   UNL     1     -14.234   4.756  34.772  0.00  0.00    +0.113 A 
ENDBRANCH  17  19
BRANCH  14   9
ATOM      3  N   UNL     1     -11.425  10.960  31.334  0.00  0.00    -0.287 NA
ATOM      9  C   UNL     1     -12.890  10.843  31.182  0.00  0.00    +0.146 C 
ATOM     10  C   UNL     1     -13.111  10.646  29.671  0.00  0.00    +0.030 C 
ATOM     11  C   UNL     1     -11.724  10.728  29.051  0.00  0.00    +0.017 C 
ATOM     12  C   UNL     1     -10.922  11.507  30.074  0.00  0.00    +0.085 C 
BRANCH   3  13
ATOM     13  C   UNL     1     -11.030  11.769  32.479  0.00  0.00    +0.121 C 
BRANCH  13  15
ATOM      7  N   UNL     1      -8.352  10.241  34.642  0.00  0.00    -0.255 NA
ATOM     15  C   UNL     1     -10.378  10.965  33.546  0.00  0.00    -0.015 A 
ATOM     16  C   UNL     1     -11.126  10.201  34.430  0.00  0.00    +0.016 A 
ATOM     18  C   UNL     1      -9.005  10.950  33.694  0.00  0.00    +0.116 A 
ATOM     20  C   UNL     1     -10.489   9.451  35.428  0.00  0.00    +0.001 A 
ATOM     26  C   UNL     1      -9.081   9.501  35.498  0.00  0.00    +0.071 A 
ATOM     29  C   UNL     1     -11.218   8.667  36.337  0.00  0.00    +0.010 A 
ATOM     30  C   UNL     1      -8.448   8.755  36.490  0.00  0.00    +0.028 A 
ATOM     32  C   UNL     1     -10.560   7.932  37.320  0.00  0.00    +0.001 A 
ATOM     33  C   UNL     1      -9.173   7.975  37.395  0.00  0.00    +0.002 A 
ENDBRANCH  13  15
ENDBRANCH   3  13
ENDBRANCH  14   9
TORSDOF 4
ENDMDL
MODEL 7
REMARK VINA RESULT:      -7.6     28.093     30.381
REMARK  Name = 45783286
REMARK  4 active torsions:
REMARK  status: ('A' for Active; 'I' for Inactive)
REMARK    1  A    between atoms: N_3  and  C_13
REMARK    2  A    between atoms: C_9  and  C_14
REMARK    3  A    between atoms: C_13  and  C_15
REMARK    4  A    between atoms: C_17  and  C_19
REMARK                            x       y       z     vdW  Elec       q    Type
REMARK                         _______ _______ _______ _____ _____    ______ ____
ROOT
ATOM      1  O   UNL     1      -3.685 -11.398  16.827  0.00  0.00    -0.336 OA
ATOM      4  N   UNL     1      -5.271 -10.676  15.419  0.00  0.00    -0.190 NA
ATOM      6  N   UNL     1      -3.060 -11.243  15.583  0.00  0.00    -0.056 NA
ATOM     14  C   UNL     1      -4.984 -11.044  16.643  0.00  0.00    +0.245 A 
ATOM     17  C   UNL     1      -4.059 -10.815  14.806  0.00  0.00    +0.202 A 
ENDROOT
BRANCH  17  19
ATOM      2  O   UNL     1      -8.027  -9.189   8.747  0.00  0.00    -0.377 OA
ATOM      5  N   UNL     1      -5.869  -9.613  10.498  0.00  0.00    -0.311 N 
ATOM      8  N   UNL     1      -3.534  -9.939  10.702  0.00  0.00    -0.240 NA
ATOM     19  C   UNL     1      -3.881 -10.519  13.414  0.00  0.00    +0.027 A 
ATOM     21  C   UNL     1      -6.935 -10.617  10.376  0.00  0.00    +0.134 C 
ATOM     22  C   UNL     1      -5.725  -8.713   9.349  0.00  0.00    +0.134 C 
ATOM     23  C   UNL     1      -4.754  -9.926  11.282  0.00  0.00    +0.122 A 
ATOM     24  C   UNL     1      -8.231  -9.941   9.943  0.00  0.00    +0.178 C 
ATOM     25  C   UNL     1      -7.086  -8.139   8.970  0.00  0.00    +0.178 C 
ATOM     27  C   UNL     1      -4.980 -10.205  12.621  0.00  0.00    +0.055 A 
ATOM     28  C   UNL     1      -2.610 -10.543  12.852  0.00  0.00    +0.031 A 
ATOM     31  C   UNL     1      -2.490 -10.248  11.504  0.00  0.00    +0.113 A 
ENDBRANCH  17  19
BRANCH  14   9
ATOM      3  N   UNL     1      -7.288 -10.783  17.546  0.00  0.00    -0.287 NA
ATOM      9  C   UNL     1      -5.885 -11.124  17.857  0.00  0.00    +0.146 C 
ATOM     10  C   UNL     1      -5.950 -12.541  18.456  0.00  0.00    +0.030 C 
ATOM     11  C   UNL     1      -7.432 -12.887  18.498  0.00  0.00    +0.017 C 
ATOM     12  C   UNL     1      -8.114 -11.533  18.491  0.00  0.00    +0.085 C 
BRANCH   3  13
ATOM     13  C   UNL     1      -7.556  -9.352  17.601  0.00  0.00    +0.121 C 
BRANCH  13  15
ATOM      7  N   UNL     1      -9.832  -9.255  14.601  0.00  0.00    -0.255 NA
ATOM     15  C   UNL     1      -8.655  -8.943  16.686  0.00  0.00    -0.015 A 
ATOM     16  C   UNL     1      -9.518  -7.909  17.015  0.00  0.00    +0.016 A 
ATOM     18  C   UNL     1      -8.853  -9.579  15.477  0.00  0.00    +0.116 A 
ATOM     20  C   UNL     1     -10.546  -7.541  16.136  0.00  0.00    +0.001 A 
ATOM     26  C   UNL     1     -10.668  -8.251  14.924  0.00  0.00    +0.071 A 
ATOM     29  C   UNL     1     -11.436  -6.498  16.441  0.00  0.00    +0.010 A 
ATOM     30  C   UNL     1     -11.690  -7.885  14.051  0.00  0.00    +0.028 A 
ATOM     32  C   UNL     1     -12.450  -6.153  15.550  0.00  0.00    +0.001 A 
ATOM     33  C   UNL     1     -12.576  -6.848  14.353  0.00  0.00    +0.002 A 
ENDBRANCH  13  15
ENDBRANCH   3  13
ENDBRANCH  14   9
TORSDOF 4
ENDMDL
MODEL 8
REMARK VINA RESULT:      -7.5      2.493      4.939
REMARK  Name = 45783286
REMARK  4 active torsions:
REMARK  status: ('A' for Active; 'I' for Inactive)
REMARK    1  A    between atoms: N_3  and  C_13
REMARK    2  A    between atoms: C_9  and  C_14
REMARK    3  A    between atoms: C_13  and  C_15
REMARK    4  A    between atoms: C_17  and  C_19
REMARK                            x       y       z     vdW  Elec       q    Type
REMARK                         _______ _______ _______ _____ _____    ______ ____
ROOT
ATOM      1  O   UNL     1      14.486   7.415  19.333  0.00  0.00    -0.336 OA
ATOM      4  N   UNL     1      15.557   7.450  21.301  0.00  0.00    -0.190 NA
ATOM      6  N   UNL     1      15.764   6.897  19.090  0.00  0.00    -0.056 NA
ATOM     14  C   UNL     1      14.447   7.716  20.658  0.00  0.00    +0.245 A 
ATOM     17  C   UNL     1      16.335   6.949  20.297  0.00  0.00    +0.202 A 
ENDROOT
BRANCH  17  19
ATOM      2  O   UNL     1      22.085   8.303  24.792  0.00  0.00    -0.377 OA
ATOM      5  N   UNL     1      20.431   7.137  22.841  0.00  0.00    -0.311 N 
ATOM      8  N   UNL     1      20.301   5.657  20.999  0.00  0.00    -0.240 NA
ATOM     19  C   UNL     1      17.680   6.512  20.534  0.00  0.00    +0.027 A 
ATOM     21  C   UNL     1      20.666   8.589  22.845  0.00  0.00    +0.134 C 
ATOM     22  C   UNL     1      21.458   6.337  23.516  0.00  0.00    +0.134 C 
ATOM     23  C   UNL     1      19.707   6.590  21.777  0.00  0.00    +0.122 A 
ATOM     24  C   UNL     1      20.992   9.052  24.261  0.00  0.00    +0.178 C 
ATOM     25  C   UNL     1      21.742   6.921  24.895  0.00  0.00    +0.178 C 
ATOM     27  C   UNL     1      18.413   7.047  21.589  0.00  0.00    +0.055 A 
ATOM     28  C   UNL     1      18.257   5.551  19.712  0.00  0.00    +0.031 A 
ATOM     31  C   UNL     1      19.558   5.161  19.984  0.00  0.00    +0.113 A 
ENDBRANCH  17  19
BRANCH  14   9
ATOM      3  N   UNL     1      12.324   8.894  20.111  0.00  0.00    -0.287 NA
ATOM      9  C   UNL     1      13.152   8.300  21.180  0.00  0.00    +0.146 C 
ATOM     10  C   UNL     1      12.245   7.243  21.836  0.00  0.00    +0.030 C 
ATOM     11  C   UNL     1      10.912   7.358  21.110  0.00  0.00    +0.017 C 
ATOM     12  C   UNL     1      10.934   8.764  20.545  0.00  0.00    +0.085 C 
BRANCH   3  13
ATOM     13  C   UNL     1      12.677  10.275  19.811  0.00  0.00    +0.121 C 
BRANCH  13  15
ATOM      7  N   UNL     1      13.396   9.835  16.141  0.00  0.00    -0.255 NA
ATOM     15  C   UNL     1      13.326  10.422  18.482  0.00  0.00    -0.015 A 
ATOM     16  C   UNL     1      14.430  11.243  18.306  0.00  0.00    +0.016 A 
ATOM     18  C   UNL     1      12.852   9.745  17.376  0.00  0.00    +0.116 A 
ATOM     20  C   UNL     1      15.024  11.365  17.042  0.00  0.00    +0.001 A 
ATOM     26  C   UNL     1      14.467  10.633  15.974  0.00  0.00    +0.071 A 
ATOM     29  C   UNL     1      16.143  12.188  16.832  0.00  0.00    +0.010 A 
ATOM     30  C   UNL     1      15.059  10.754  14.719  0.00  0.00    +0.028 A 
ATOM     32  C   UNL     1      16.714  12.292  15.567  0.00  0.00    +0.001 A 
ATOM     33  C   UNL     1      16.171  11.573  14.509  0.00  0.00    +0.002 A 
ENDBRANCH  13  15
ENDBRANCH   3  13
ENDBRANCH  14   9
TORSDOF 4
ENDMDL
MODEL 9
REMARK VINA RESULT:      -7.5      5.036      7.813
REMARK  Name = 45783286
REMARK  4 active torsions:
REMARK  status: ('A' for Active; 'I' for Inactive)
REMARK    1  A    between atoms: N_3  and  C_13
REMARK    2  A    between atoms: C_9  and  C_14
REMARK    3  A    between atoms: C_13  and  C_15
REMARK    4  A    between atoms: C_17  and  C_19
REMARK                            x       y       z     vdW  Elec       q    Type
REMARK                         _______ _______ _______ _____ _____    ______ ____
ROOT
ATOM      1  O   UNL     1      10.627  10.999  23.512  0.00  0.00    -0.336 OA
ATOM      4  N   UNL     1      12.761  10.840  22.851  0.00  0.00    -0.190 NA
ATOM      6  N   UNL     1      10.682   9.910  22.634  0.00  0.00    -0.056 NA
ATOM     14  C   UNL     1      11.892  11.490  23.584  0.00  0.00    +0.245 A 
ATOM     17  C   UNL     1      11.972   9.879  22.287  0.00  0.00    +0.202 A 
ENDROOT
BRANCH  17  19
ATOM      2  O   UNL     1      12.975   8.785  15.015  0.00  0.00    -0.377 OA
ATOM      5  N   UNL     1      13.074   8.470  17.806  0.00  0.00    -0.311 N 
ATOM      8  N   UNL     1      13.542   7.009  19.607  0.00  0.00    -0.240 NA
ATOM     19  C   UNL     1      12.503   8.905  21.378  0.00  0.00    +0.027 A 
ATOM     21  C   UNL     1      11.793   8.726  17.132  0.00  0.00    +0.134 C 
ATOM     22  C   UNL     1      14.121   7.892  16.957  0.00  0.00    +0.134 C 
ATOM     23  C   UNL     1      13.055   8.194  19.177  0.00  0.00    +0.122 A 
ATOM     24  C   UNL     1      12.038   9.485  15.833  0.00  0.00    +0.178 C 
ATOM     25  C   UNL     1      14.241   8.695  15.667  0.00  0.00    +0.178 C 
ATOM     27  C   UNL     1      12.530   9.166  20.012  0.00  0.00    +0.055 A 
ATOM     28  C   UNL     1      12.995   7.697  21.859  0.00  0.00    +0.031 A 
ATOM     31  C   UNL     1      13.500   6.791  20.941  0.00  0.00    +0.113 A 
ENDBRANCH  17  19
BRANCH  14   9
ATOM      3  N   UNL     1      12.107  13.964  23.738  0.00  0.00    -0.287 NA
ATOM      9  C   UNL     1      12.102  12.689  24.483  0.00  0.00    +0.146 C 
ATOM     10  C   UNL     1      10.985  12.851  25.530  0.00  0.00    +0.030 C 
ATOM     11  C   UNL     1      10.461  14.267  25.336  0.00  0.00    +0.017 C 
ATOM     12  C   UNL     1      11.614  14.984  24.663  0.00  0.00    +0.085 C 
BRANCH   3  13
ATOM     13  C   UNL     1      13.413  14.306  23.192  0.00  0.00    +0.121 C 
BRANCH  13  15
ATOM      7  N   UNL     1      12.850  14.519  19.474  0.00  0.00    -0.255 NA
ATOM     15  C   UNL     1      13.517  14.012  21.738  0.00  0.00    -0.015 A 
ATOM     16  C   UNL     1      14.337  12.997  21.266  0.00  0.00    +0.016 A 
ATOM     18  C   UNL     1      12.800  14.737  20.808  0.00  0.00    +0.116 A 
ATOM     20  C   UNL     1      14.418  12.738  19.891  0.00  0.00    +0.001 A 
ATOM     26  C   UNL     1      13.647  13.535  19.019  0.00  0.00    +0.071 A 
ATOM     29  C   UNL     1      15.239  11.718  19.382  0.00  0.00    +0.010 A 
ATOM     30  C   UNL     1      13.728  13.276  17.653  0.00  0.00    +0.028 A 
ATOM     32  C   UNL     1      15.302  11.482  18.011  0.00  0.00    +0.001 A 
ATOM     33  C   UNL     1      14.544  12.262  17.146  0.00  0.00    +0.002 A 
ENDBRANCH  13  15
ENDBRANCH   3  13
ENDBRANCH  14   9
TORSDOF 4
ENDMDL
MODEL 10
REMARK VINA RESULT:      -7.4     28.266     30.730
REMARK  Name = 45783286
REMARK  4 active torsions:
REMARK  status: ('A' for Active; 'I' for Inactive)
REMARK    1  A    between atoms: N_3  and  C_13
REMARK    2  A    between atoms: C_9  and  C_14
REMARK    3  A    between atoms: C_13  and  C_15
REMARK    4  A    between atoms: C_17  and  C_19
REMARK                            x       y       z     vdW  Elec       q    Type
REMARK                         _______ _______ _______ _____ _____    ______ ____
ROOT
ATOM      1  O   UNL     1      -7.737 -10.400  11.141  0.00  0.00    -0.336 OA
ATOM      4  N   UNL     1      -6.397  -9.026  12.297  0.00  0.00    -0.190 NA
ATOM      6  N   UNL     1      -7.821 -10.808  12.478  0.00  0.00    -0.056 NA
ATOM     14  C   UNL     1      -6.878  -9.347  11.122  0.00  0.00    +0.245 A 
ATOM     17  C   UNL     1      -7.005  -9.950  13.098  0.00  0.00    +0.202 A 
ENDROOT
BRANCH  17  19
ATOM      2  O   UNL     1     -10.736  -9.902  19.514  0.00  0.00    -0.377 OA
ATOM      5  N   UNL     1      -8.659 -10.081  17.628  0.00  0.00    -0.311 N 
ATOM      8  N   UNL     1      -6.320 -10.078  17.269  0.00  0.00    -0.240 NA
ATOM     19  C   UNL     1      -6.772  -9.992  14.512  0.00  0.00    +0.027 A 
ATOM     21  C   UNL     1      -9.601  -8.952  17.592  0.00  0.00    +0.134 C 
ATOM     22  C   UNL     1      -8.541 -10.754  18.926  0.00  0.00    +0.134 C 
ATOM     23  C   UNL     1      -7.569 -10.058  16.753  0.00  0.00    +0.122 A 
ATOM     24  C   UNL     1     -10.933  -9.375  18.202  0.00  0.00    +0.178 C 
ATOM     25  C   UNL     1      -9.930 -11.079  19.465  0.00  0.00    +0.178 C 
ATOM     27  C   UNL     1      -7.847 -10.016  15.396  0.00  0.00    +0.055 A 
ATOM     28  C   UNL     1      -5.473 -10.011  15.006  0.00  0.00    +0.031 A 
ATOM     31  C   UNL     1      -5.302 -10.053  16.380  0.00  0.00    +0.113 A 
ENDBRANCH  17  19
BRANCH  14   9
ATOM      3  N   UNL     1      -5.823  -9.587   8.882  0.00  0.00    -0.287 NA
ATOM      9  C   UNL     1      -6.614  -8.715   9.772  0.00  0.00    +0.146 C 
ATOM     10  C   UNL     1      -7.906  -8.424   8.988  0.00  0.00    +0.030 C 
ATOM     11  C   UNL     1      -7.724  -9.124   7.649  0.00  0.00    +0.017 C 
ATOM     12  C   UNL     1      -6.220  -9.252   7.515  0.00  0.00    +0.085 C 
BRANCH   3  13
ATOM     13  C   UNL     1      -4.385  -9.459   9.081  0.00  0.00    +0.121 C 
BRANCH  13  15
ATOM      7  N   UNL     1      -3.486 -12.718  10.742  0.00  0.00    -0.255 NA
ATOM     15  C   UNL     1      -3.860 -10.426  10.081  0.00  0.00    -0.015 A 
ATOM     16  C   UNL     1      -3.268  -9.993  11.259  0.00  0.00    +0.016 A 
ATOM     18  C   UNL     1      -3.943 -11.788   9.872  0.00  0.00    +0.116 A 
ATOM     20  C   UNL     1      -2.781 -10.923  12.186  0.00  0.00    +0.001 A 
ATOM     26  C   UNL     1      -2.913 -12.294  11.883  0.00  0.00    +0.071 A 
ATOM     29  C   UNL     1      -2.178 -10.517  13.388  0.00  0.00    +0.010 A 
ATOM     30  C   UNL     1      -2.429 -13.218  12.806  0.00  0.00    +0.028 A 
ATOM     32  C   UNL     1      -1.702 -11.462  14.293  0.00  0.00    +0.001 A 
ATOM     33  C   UNL     1      -1.828 -12.815  14.001  0.00  0.00    +0.002 A 
ENDBRANCH  13  15
ENDBRANCH   3  13
ENDBRANCH  14   9
TORSDOF 4
ENDMDL
