MODEL 1
REMARK VINA RESULT:      -6.5      0.000      0.000
REMARK  Name = 25389601
REMARK  12 active torsions:
REMARK  status: ('A' for Active; 'I' for Inactive)
REMARK    1  A    between atoms: O_1  and  C_16
REMARK    2  A    between atoms: O_1  and  C_21
REMARK    3  A    between atoms: O_3  and  C_22
REMARK    4  A    between atoms: O_3  and  C_30
REMARK    5  A    between atoms: N_5  and  C_19
REMARK    6  A    between atoms: N_7  and  C_26
REMARK    7  A    between atoms: C_9  and  C_15
REMARK    8  A    between atoms: C_10  and  C_16
REMARK    9  A    between atoms: C_18  and  C_20
REMARK   10  A    between atoms: C_31  and  C_34
REMARK   11  A    between atoms: C_34  and  C_35
REMARK   12  A    between atoms: C_34  and  C_36
REMARK                            x       y       z     vdW  Elec       q    Type
REMARK                         _______ _______ _______ _____ _____    ______ ____
ROOT
ATOM      4  N   UNL     1      -6.102 -10.525   9.492  0.00  0.00    -0.296 NA
ATOM      8  C   UNL     1      -4.192  -9.057  10.480  0.00  0.00    +0.002 C 
ATOM      9  C   UNL     1      -4.110 -10.504  11.041  0.00  0.00    +0.055 C 
ATOM     10  C   UNL     1      -6.661  -9.254  10.023  0.00  0.00    +0.095 C 
ATOM     11  C   UNL     1      -5.581  -8.465  10.796  0.00  0.00    +0.026 C 
ATOM     12  C   UNL     1      -4.082  -9.167   8.944  0.00  0.00    +0.019 C 
ATOM     13  C   UNL     1      -5.388 -11.256  10.568  0.00  0.00    +0.094 C 
ATOM     14  C   UNL     1      -5.120 -10.183   8.435  0.00  0.00    +0.085 C 
ENDROOT
BRANCH   9  15
ATOM      5  N   UNL     1      -2.634 -10.464  13.104  0.00  0.00    -0.270 N 
ATOM      6  N   UNL     1      -2.612 -10.681  14.430  0.00  0.00    -0.171 NA
ATOM     15  C   UNL     1      -3.851 -10.685  12.529  0.00  0.00    +0.044 A 
ATOM     17  C   UNL     1      -4.683 -11.075  13.550  0.00  0.00    +0.053 A 
ATOM     18  C   UNL     1      -3.867 -11.054  14.696  0.00  0.00    +0.096 A 
ATOM     19  C   UNL     1      -1.424 -10.038  12.439  0.00  0.00    +0.172 C 
BRANCH  18  20
ATOM     20  C   UNL     1      -4.262 -11.384  16.041  0.00  0.00    +0.044 A 
ATOM     22  C   UNL     1      -4.457 -12.712  16.423  0.00  0.00    +0.129 A 
ATOM     23  C   UNL     1      -4.449 -10.357  16.965  0.00  0.00    +0.014 A 
ATOM     24  C   UNL     1      -4.840 -13.012  17.731  0.00  0.00    +0.046 A 
ATOM     25  C   UNL     1      -4.832 -10.657  18.273  0.00  0.00    +0.001 A 
ATOM     27  C   UNL     1      -5.027 -11.984  18.656  0.00  0.00    +0.004 A 
BRANCH  22   3
ATOM      3  O   UNL     1      -4.281 -13.736  15.541  0.00  0.00    -0.494 OA
ATOM     30  C   UNL     1      -5.445 -14.460  15.149  0.00  0.00    +0.277 C 
ENDBRANCH  22   3
ENDBRANCH  18  20
ENDBRANCH   9  15
BRANCH  10  16
ATOM     16  C   UNL     1      -7.917  -9.477  10.868  0.00  0.00    +0.252 C 
BRANCH  16   1
ATOM      1  O   UNL     1      -7.674  -8.981  12.170  0.00  0.00    -0.449 OA
BRANCH   1  21
ATOM      2  O   UNL     1      -9.458 -10.095  13.067  0.00  0.00    -0.226 OA
ATOM      7  N   UNL     1      -7.576  -9.547  14.347  0.00  0.00    -0.251 N 
ATOM     21  C   UNL     1      -8.347  -9.597  13.202  0.00  0.00    +0.405 C 
ATOM     37  H   UNL     1      -6.672  -9.087  14.261  0.00  0.00    +0.158 HD
BRANCH   7  26
ATOM     26  C   UNL     1      -7.884 -10.058  15.628  0.00  0.00    +0.036 A 
ATOM     28  C   UNL     1      -8.092  -9.184  16.695  0.00  0.00    +0.024 A 
ATOM     29  C   UNL     1      -7.981 -11.435  15.825  0.00  0.00    +0.024 A 
ATOM     31  C   UNL     1      -8.494 -11.065  18.157  0.00  0.00    -0.045 A 
ATOM     32  C   UNL     1      -8.396  -9.688  17.960  0.00  0.00    +0.006 A 
ATOM     33  C   UNL     1      -8.286 -11.939  17.089  0.00  0.00    +0.006 A 
BRANCH  31  34
ATOM     34  C   UNL     1      -8.819 -11.605  19.508  0.00  0.00    +0.013 C 
ATOM     35  C   UNL     1      -8.736 -13.142  19.564  0.00  0.00    +0.012 C 
ATOM     36  C   UNL     1     -10.197 -11.137  20.015  0.00  0.00    +0.012 C 
ENDBRANCH  31  34
ENDBRANCH   7  26
ENDBRANCH   1  21
ENDBRANCH  16   1
ENDBRANCH  10  16
TORSDOF 8
ENDMDL
MODEL 2
REMARK VINA RESULT:      -6.2      1.893      7.020
REMARK  Name = 25389601
REMARK  12 active torsions:
REMARK  status: ('A' for Active; 'I' for Inactive)
REMARK    1  A    between atoms: O_1  and  C_16
REMARK    2  A    between atoms: O_1  and  C_21
REMARK    3  A    between atoms: O_3  and  C_22
REMARK    4  A    between atoms: O_3  and  C_30
REMARK    5  A    between atoms: N_5  and  C_19
REMARK    6  A    between atoms: N_7  and  C_26
REMARK    7  A    between atoms: C_9  and  C_15
REMARK    8  A    between atoms: C_10  and  C_16
REMARK    9  A    between atoms: C_18  and  C_20
REMARK   10  A    between atoms: C_31  and  C_34
REMARK   11  A    between atoms: C_34  and  C_35
REMARK   12  A    between atoms: C_34  and  C_36
REMARK                            x       y       z     vdW  Elec       q    Type
REMARK                         _______ _______ _______ _____ _____    ______ ____
ROOT
ATOM      4  N   UNL     1      -6.367 -10.419  17.782  0.00  0.00    -0.296 NA
ATOM      8  C   UNL     1      -4.443 -12.052  17.138  0.00  0.00    +0.002 C 
ATOM      9  C   UNL     1      -4.220 -10.662  16.479  0.00  0.00    +0.055 C 
ATOM     10  C   UNL     1      -6.933 -11.703  17.291  0.00  0.00    +0.095 C 
ATOM     11  C   UNL     1      -5.820 -12.603  16.712  0.00  0.00    +0.026 C 
ATOM     12  C   UNL     1      -4.499 -11.818  18.663  0.00  0.00    +0.019 C 
ATOM     13  C   UNL     1      -5.498  -9.815  16.741  0.00  0.00    +0.094 C 
ATOM     14  C   UNL     1      -5.529 -10.716  18.969  0.00  0.00    +0.085 C 
ENDROOT
BRANCH   9  15
ATOM      5  N   UNL     1      -2.480 -10.568  14.634  0.00  0.00    -0.270 N 
ATOM      6  N   UNL     1      -2.309 -10.534  13.302  0.00  0.00    -0.171 NA
ATOM     15  C   UNL     1      -3.788 -10.619  15.021  0.00  0.00    +0.044 A 
ATOM     17  C   UNL     1      -4.523 -10.618  13.861  0.00  0.00    +0.053 A 
ATOM     18  C   UNL     1      -3.560 -10.566  12.835  0.00  0.00    +0.096 A 
ATOM     19  C   UNL     1      -1.320 -10.545  15.496  0.00  0.00    +0.172 C 
BRANCH  18  20
ATOM     20  C   UNL     1      -3.813 -10.544  11.418  0.00  0.00    +0.044 A 
ATOM     22  C   UNL     1      -3.916 -11.730  10.690  0.00  0.00    +0.129 A 
ATOM     23  C   UNL     1      -3.953  -9.315  10.773  0.00  0.00    +0.014 A 
ATOM     24  C   UNL     1      -4.160 -11.686   9.317  0.00  0.00    +0.046 A 
ATOM     25  C   UNL     1      -4.198  -9.272   9.399  0.00  0.00    +0.001 A 
ATOM     27  C   UNL     1      -4.301 -10.457   8.672  0.00  0.00    +0.004 A 
BRANCH  22   3
ATOM      3  O   UNL     1      -3.784 -12.944  11.294  0.00  0.00    -0.494 OA
ATOM     30  C   UNL     1      -4.950 -13.762  11.367  0.00  0.00    +0.277 C 
ENDBRANCH  22   3
ENDBRANCH  18  20
ENDBRANCH   9  15
BRANCH  10  16
ATOM     16  C   UNL     1      -8.074 -11.493  16.293  0.00  0.00    +0.252 C 
BRANCH  16   1
ATOM      1  O   UNL     1      -7.617 -11.867  15.008  0.00  0.00    -0.449 OA
BRANCH   1  21
ATOM      2  O   UNL     1      -9.305 -10.708  13.989  0.00  0.00    -0.226 OA
ATOM      7  N   UNL     1      -7.339 -11.278  12.853  0.00  0.00    -0.251 N 
ATOM     21  C   UNL     1      -8.197 -11.227  13.935  0.00  0.00    +0.405 C 
ATOM     37  H   UNL     1      -6.453 -11.757  13.003  0.00  0.00    +0.158 HD
BRANCH   7  26
ATOM     26  C   UNL     1      -7.537 -10.747  11.559  0.00  0.00    +0.036 A 
ATOM     28  C   UNL     1      -7.523  -9.366  11.362  0.00  0.00    +0.024 A 
ATOM     29  C   UNL     1      -7.748 -11.603  10.477  0.00  0.00    +0.024 A 
ATOM     31  C   UNL     1      -7.930  -9.697   9.004  0.00  0.00    -0.045 A 
ATOM     32  C   UNL     1      -7.720  -8.841  10.084  0.00  0.00    +0.006 A 
ATOM     33  C   UNL     1      -7.944 -11.078   9.201  0.00  0.00    +0.006 A 
BRANCH  31  34
ATOM     34  C   UNL     1      -8.140  -9.137   7.638  0.00  0.00    +0.013 C 
ATOM     35  C   UNL     1      -7.209  -9.776   6.589  0.00  0.00    +0.012 C 
ATOM     36  C   UNL     1      -7.995  -7.604   7.600  0.00  0.00    +0.012 C 
ENDBRANCH  31  34
ENDBRANCH   7  26
ENDBRANCH   1  21
ENDBRANCH  16   1
ENDBRANCH  10  16
TORSDOF 8
ENDMDL
MODEL 3
REMARK VINA RESULT:      -5.6     24.511     28.224
REMARK  Name = 25389601
REMARK  12 active torsions:
REMARK  status: ('A' for Active; 'I' for Inactive)
REMARK    1  A    between atoms: O_1  and  C_16
REMARK    2  A    between atoms: O_1  and  C_21
REMARK    3  A    between atoms: O_3  and  C_22
REMARK    4  A    between atoms: O_3  and  C_30
REMARK    5  A    between atoms: N_5  and  C_19
REMARK    6  A    between atoms: N_7  and  C_26
REMARK    7  A    between atoms: C_9  and  C_15
REMARK    8  A    between atoms: C_10  and  C_16
REMARK    9  A    between atoms: C_18  and  C_20
REMARK   10  A    between atoms: C_31  and  C_34
REMARK   11  A    between atoms: C_34  and  C_35
REMARK   12  A    between atoms: C_34  and  C_36
REMARK                            x       y       z     vdW  Elec       q    Type
REMARK                         _______ _______ _______ _____ _____    ______ ____
ROOT
ATOM      4  N   UNL     1      15.156   3.984  -0.662  0.00  0.00    -0.296 NA
ATOM      8  C   UNL     1      15.343   6.575  -0.844  0.00  0.00    +0.002 C 
ATOM      9  C   UNL     1      15.807   6.095   0.558  0.00  0.00    +0.055 C 
ATOM     10  C   UNL     1      13.881   4.551  -1.177  0.00  0.00    +0.095 C 
ATOM     11  C   UNL     1      13.899   6.093  -1.097  0.00  0.00    +0.026 C 
ATOM     12  C   UNL     1      16.246   5.869  -1.879  0.00  0.00    +0.019 C 
ATOM     13  C   UNL     1      15.478   4.577   0.660  0.00  0.00    +0.094 C 
ATOM     14  C   UNL     1      16.234   4.354  -1.610  0.00  0.00    +0.085 C 
ENDROOT
BRANCH   9  15
ATOM      5  N   UNL     1      16.025   7.921   2.306  0.00  0.00    -0.270 N 
ATOM      6  N   UNL     1      15.439   8.472   3.382  0.00  0.00    -0.171 NA
ATOM     15  C   UNL     1      15.333   6.871   1.778  0.00  0.00    +0.044 A 
ATOM     17  C   UNL     1      14.217   6.724   2.565  0.00  0.00    +0.053 A 
ATOM     18  C   UNL     1      14.334   7.736   3.535  0.00  0.00    +0.096 A 
ATOM     19  C   UNL     1      17.276   8.464   1.829  0.00  0.00    +0.172 C 
BRANCH  18  20
ATOM     20  C   UNL     1      13.413   8.013   4.607  0.00  0.00    +0.044 A 
ATOM     22  C   UNL     1      12.426   8.989   4.468  0.00  0.00    +0.129 A 
ATOM     23  C   UNL     1      13.519   7.291   5.795  0.00  0.00    +0.014 A 
ATOM     24  C   UNL     1      11.544   9.242   5.519  0.00  0.00    +0.046 A 
ATOM     25  C   UNL     1      12.636   7.545   6.846  0.00  0.00    +0.001 A 
ATOM     27  C   UNL     1      11.649   8.520   6.708  0.00  0.00    +0.004 A 
BRANCH  22   3
ATOM      3  O   UNL     1      12.299   9.709   3.317  0.00  0.00    -0.494 OA
ATOM     30  C   UNL     1      10.999  10.202   3.002  0.00  0.00    +0.277 C 
ENDBRANCH  22   3
ENDBRANCH  18  20
ENDBRANCH   9  15
BRANCH  10  16
ATOM     16  C   UNL     1      12.655   3.958  -0.480  0.00  0.00    +0.252 C 
BRANCH  16   1
ATOM      1  O   UNL     1      11.543   4.791  -0.747  0.00  0.00    -0.449 OA
BRANCH   1  21
ATOM      2  O   UNL     1       9.405   4.609   0.042  0.00  0.00    -0.226 OA
ATOM      7  N   UNL     1      11.173   5.293   1.416  0.00  0.00    -0.251 N 
ATOM     21  C   UNL     1      10.584   4.876   0.238  0.00  0.00    +0.405 C 
ATOM     37  H   UNL     1      12.175   5.466   1.382  0.00  0.00    +0.158 HD
BRANCH   7  26
ATOM     26  C   UNL     1      10.556   5.510   2.669  0.00  0.00    +0.036 A 
ATOM     28  C   UNL     1      10.732   4.589   3.702  0.00  0.00    +0.024 A 
ATOM     29  C   UNL     1       9.771   6.645   2.873  0.00  0.00    +0.024 A 
ATOM     31  C   UNL     1       9.338   5.937   5.142  0.00  0.00    -0.045 A 
ATOM     32  C   UNL     1      10.122   4.802   4.938  0.00  0.00    +0.006 A 
ATOM     33  C   UNL     1       9.162   6.858   4.109  0.00  0.00    +0.006 A 
BRANCH  31  34
ATOM     34  C   UNL     1       8.686   6.166   6.463  0.00  0.00    +0.013 C 
ATOM     35  C   UNL     1       8.288   7.639   6.676  0.00  0.00    +0.012 C 
ATOM     36  C   UNL     1       9.553   5.683   7.641  0.00  0.00    +0.012 C 
ENDBRANCH  31  34
ENDBRANCH   7  26
ENDBRANCH   1  21
ENDBRANCH  16   1
ENDBRANCH  10  16
TORSDOF 8
ENDMDL
MODEL 4
REMARK VINA RESULT:      -5.6      2.004      8.095
REMARK  Name = 25389601
REMARK  12 active torsions:
REMARK  status: ('A' for Active; 'I' for Inactive)
REMARK    1  A    between atoms: O_1  and  C_16
REMARK    2  A    between atoms: O_1  and  C_21
REMARK    3  A    between atoms: O_3  and  C_22
REMARK    4  A    between atoms: O_3  and  C_30
REMARK    5  A    between atoms: N_5  and  C_19
REMARK    6  A    between atoms: N_7  and  C_26
REMARK    7  A    between atoms: C_9  and  C_15
REMARK    8  A    between atoms: C_10  and  C_16
REMARK    9  A    between atoms: C_18  and  C_20
REMARK   10  A    between atoms: C_31  and  C_34
REMARK   11  A    between atoms: C_34  and  C_35
REMARK   12  A    between atoms: C_34  and  C_36
REMARK                            x       y       z     vdW  Elec       q    Type
REMARK                         _______ _______ _______ _____ _____    ______ ____
ROOT
ATOM      4  N   UNL     1      -4.504 -12.441  17.098  0.00  0.00    -0.296 NA
ATOM      8  C   UNL     1      -5.759 -10.168  17.291  0.00  0.00    +0.002 C 
ATOM      9  C   UNL     1      -6.640 -11.214  16.552  0.00  0.00    +0.055 C 
ATOM     10  C   UNL     1      -3.626 -11.334  16.634  0.00  0.00    +0.095 C 
ATOM     11  C   UNL     1      -4.418 -10.012  16.545  0.00  0.00    +0.026 C 
ATOM     12  C   UNL     1      -5.441 -10.757  18.682  0.00  0.00    +0.019 C 
ATOM     13  C   UNL     1      -5.754 -12.467  16.298  0.00  0.00    +0.094 C 
ATOM     14  C   UNL     1      -4.864 -12.174  18.511  0.00  0.00    +0.085 C 
ENDROOT
BRANCH   9  15
ATOM      5  N   UNL     1      -8.567 -10.090  15.342  0.00  0.00    -0.270 N 
ATOM      6  N   UNL     1      -9.064  -9.793  14.130  0.00  0.00    -0.171 NA
ATOM     15  C   UNL     1      -7.385 -10.771  15.302  0.00  0.00    +0.044 A 
ATOM     17  C   UNL     1      -7.089 -10.930  13.969  0.00  0.00    +0.053 A 
ATOM     18  C   UNL     1      -8.156 -10.308  13.295  0.00  0.00    +0.096 A 
ATOM     19  C   UNL     1      -9.295  -9.684  16.522  0.00  0.00    +0.172 C 
BRANCH  18  20
ATOM     20  C   UNL     1      -8.327 -10.197  11.870  0.00  0.00    +0.044 A 
ATOM     22  C   UNL     1      -9.068 -11.144  11.163  0.00  0.00    +0.129 A 
ATOM     23  C   UNL     1      -7.740  -9.127  11.197  0.00  0.00    +0.014 A 
ATOM     24  C   UNL     1      -9.222 -11.020   9.782  0.00  0.00    +0.046 A 
ATOM     25  C   UNL     1      -7.894  -9.002   9.815  0.00  0.00    +0.001 A 
ATOM     27  C   UNL     1      -8.634  -9.948   9.108  0.00  0.00    +0.004 A 
BRANCH  22   3
ATOM      3  O   UNL     1      -9.654 -12.201  11.795  0.00  0.00    -0.494 OA
ATOM     30  C   UNL     1      -8.982 -13.456  11.715  0.00  0.00    +0.277 C 
ENDBRANCH  22   3
ENDBRANCH  18  20
ENDBRANCH   9  15
BRANCH  10  16
ATOM     16  C   UNL     1      -2.918 -11.664  15.318  0.00  0.00    +0.252 C 
BRANCH  16   1
ATOM      1  O   UNL     1      -2.946 -10.514  14.495  0.00  0.00    -0.449 OA
BRANCH   1  21
ATOM      2  O   UNL     1      -1.795 -11.175  12.633  0.00  0.00    -0.226 OA
ATOM      7  N   UNL     1      -3.977 -10.338  12.502  0.00  0.00    -0.251 N 
ATOM     21  C   UNL     1      -2.813 -10.720  13.140  0.00  0.00    +0.405 C 
ATOM     37  H   UNL     1      -4.721  -9.980  13.099  0.00  0.00    +0.158 HD
BRANCH   7  26
ATOM     26  C   UNL     1      -4.268 -10.383  11.120  0.00  0.00    +0.036 A 
ATOM     28  C   UNL     1      -4.880 -11.511  10.572  0.00  0.00    +0.024 A 
ATOM     29  C   UNL     1      -3.944  -9.299  10.303  0.00  0.00    +0.024 A 
ATOM     31  C   UNL     1      -4.842 -10.472   8.391  0.00  0.00    -0.045 A 
ATOM     32  C   UNL     1      -5.166 -11.556   9.207  0.00  0.00    +0.006 A 
ATOM     33  C   UNL     1      -4.230  -9.345   8.939  0.00  0.00    +0.006 A 
BRANCH  31  34
ATOM     34  C   UNL     1      -5.148 -10.519   6.933  0.00  0.00    +0.013 C 
ATOM     35  C   UNL     1      -6.304  -9.578   6.543  0.00  0.00    +0.012 C 
ATOM     36  C   UNL     1      -5.447 -11.947   6.438  0.00  0.00    +0.012 C 
ENDBRANCH  31  34
ENDBRANCH   7  26
ENDBRANCH   1  21
ENDBRANCH  16   1
ENDBRANCH  10  16
TORSDOF 8
ENDMDL
MODEL 5
REMARK VINA RESULT:      -5.5      3.270      6.633
REMARK  Name = 25389601
REMARK  12 active torsions:
REMARK  status: ('A' for Active; 'I' for Inactive)
REMARK    1  A    between atoms: O_1  and  C_16
REMARK    2  A    between atoms: O_1  and  C_21
REMARK    3  A    between atoms: O_3  and  C_22
REMARK    4  A    between atoms: O_3  and  C_30
REMARK    5  A    between atoms: N_5  and  C_19
REMARK    6  A    between atoms: N_7  and  C_26
REMARK    7  A    between atoms: C_9  and  C_15
REMARK    8  A    between atoms: C_10  and  C_16
REMARK    9  A    between atoms: C_18  and  C_20
REMARK   10  A    between atoms: C_31  and  C_34
REMARK   11  A    between atoms: C_34  and  C_35
REMARK   12  A    between atoms: C_34  and  C_36
REMARK                            x       y       z     vdW  Elec       q    Type
REMARK                         _______ _______ _______ _____ _____    ______ ____
ROOT
ATOM      4  N   UNL     1      -6.219 -10.650  18.073  0.00  0.00    -0.296 NA
ATOM      8  C   UNL     1      -4.502 -12.398  17.189  0.00  0.00    +0.002 C 
ATOM      9  C   UNL     1      -4.132 -10.974  16.692  0.00  0.00    +0.055 C 
ATOM     10  C   UNL     1      -6.934 -11.796  17.451  0.00  0.00    +0.095 C 
ATOM     11  C   UNL     1      -5.939 -12.739  16.740  0.00  0.00    +0.026 C 
ATOM     12  C   UNL     1      -4.509 -12.344  18.732  0.00  0.00    +0.019 C 
ATOM     13  C   UNL     1      -5.302 -10.027  17.086  0.00  0.00    +0.094 C 
ATOM     14  C   UNL     1      -5.403 -11.178  19.193  0.00  0.00    +0.085 C 
ENDROOT
BRANCH   9  15
ATOM      5  N   UNL     1      -2.426 -10.602  14.850  0.00  0.00    -0.270 N 
ATOM      6  N   UNL     1      -2.270 -10.476  13.522  0.00  0.00    -0.171 NA
ATOM     15  C   UNL     1      -3.719 -10.805  15.237  0.00  0.00    +0.044 A 
ATOM     17  C   UNL     1      -4.460 -10.812  14.081  0.00  0.00    +0.053 A 
ATOM     18  C   UNL     1      -3.516 -10.606  13.057  0.00  0.00    +0.096 A 
ATOM     19  C   UNL     1      -1.267 -10.512  15.708  0.00  0.00    +0.172 C 
BRANCH  18  20
ATOM     20  C   UNL     1      -3.782 -10.529  11.644  0.00  0.00    +0.044 A 
ATOM     22  C   UNL     1      -4.159 -11.662  10.923  0.00  0.00    +0.129 A 
ATOM     23  C   UNL     1      -3.656  -9.301  10.996  0.00  0.00    +0.014 A 
ATOM     24  C   UNL     1      -4.411 -11.567   9.555  0.00  0.00    +0.046 A 
ATOM     25  C   UNL     1      -3.909  -9.205   9.627  0.00  0.00    +0.001 A 
ATOM     27  C   UNL     1      -4.286 -10.337   8.906  0.00  0.00    +0.004 A 
BRANCH  22   3
ATOM      3  O   UNL     1      -4.290 -12.876  11.531  0.00  0.00    -0.494 OA
ATOM     30  C   UNL     1      -3.556 -13.963  10.971  0.00  0.00    +0.277 C 
ENDBRANCH  22   3
ENDBRANCH  18  20
ENDBRANCH   9  15
BRANCH  10  16
ATOM     16  C   UNL     1      -8.058 -11.343  16.516  0.00  0.00    +0.252 C 
BRANCH  16   1
ATOM      1  O   UNL     1      -8.998 -10.606  17.273  0.00  0.00    -0.449 OA
BRANCH   1  21
ATOM      2  O   UNL     1      -8.518  -8.381  17.054  0.00  0.00    -0.226 OA
ATOM      7  N   UNL     1     -10.477  -9.313  16.174  0.00  0.00    -0.251 N 
ATOM     21  C   UNL     1      -9.269  -9.325  16.845  0.00  0.00    +0.405 C 
ATOM     37  H   UNL     1     -10.960 -10.205  16.101  0.00  0.00    +0.158 HD
BRANCH   7  26
ATOM     26  C   UNL     1     -11.128  -8.212  15.573  0.00  0.00    +0.036 A 
ATOM     28  C   UNL     1     -11.386  -7.062  16.320  0.00  0.00    +0.024 A 
ATOM     29  C   UNL     1     -11.511  -8.274  14.233  0.00  0.00    +0.024 A 
ATOM     31  C   UNL     1     -12.413  -6.038  14.388  0.00  0.00    -0.045 A 
ATOM     32  C   UNL     1     -12.030  -5.975  15.727  0.00  0.00    +0.006 A 
ATOM     33  C   UNL     1     -12.154  -7.187  13.641  0.00  0.00    +0.006 A 
BRANCH  31  34
ATOM     34  C   UNL     1     -13.100  -4.876  13.754  0.00  0.00    +0.013 C 
ATOM     35  C   UNL     1     -14.581  -5.166  13.443  0.00  0.00    +0.012 C 
ATOM     36  C   UNL     1     -12.384  -4.391  12.479  0.00  0.00    +0.012 C 
ENDBRANCH  31  34
ENDBRANCH   7  26
ENDBRANCH   1  21
ENDBRANCH  16   1
ENDBRANCH  10  16
TORSDOF 8
ENDMDL
MODEL 6
REMARK VINA RESULT:      -5.5      2.498      8.435
REMARK  Name = 25389601
REMARK  12 active torsions:
REMARK  status: ('A' for Active; 'I' for Inactive)
REMARK    1  A    between atoms: O_1  and  C_16
REMARK    2  A    between atoms: O_1  and  C_21
REMARK    3  A    between atoms: O_3  and  C_22
REMARK    4  A    between atoms: O_3  and  C_30
REMARK    5  A    between atoms: N_5  and  C_19
REMARK    6  A    between atoms: N_7  and  C_26
REMARK    7  A    between atoms: C_9  and  C_15
REMARK    8  A    between atoms: C_10  and  C_16
REMARK    9  A    between atoms: C_18  and  C_20
REMARK   10  A    between atoms: C_31  and  C_34
REMARK   11  A    between atoms: C_34  and  C_35
REMARK   12  A    between atoms: C_34  and  C_36
REMARK                            x       y       z     vdW  Elec       q    Type
REMARK                         _______ _______ _______ _____ _____    ______ ____
ROOT
ATOM      4  N   UNL     1      -5.062 -12.543  16.857  0.00  0.00    -0.296 NA
ATOM      8  C   UNL     1      -5.723 -10.845  18.719  0.00  0.00    +0.002 C 
ATOM      9  C   UNL     1      -6.990 -11.523  18.127  0.00  0.00    +0.055 C 
ATOM     10  C   UNL     1      -4.395 -11.236  16.615  0.00  0.00    +0.095 C 
ATOM     11  C   UNL     1      -4.933 -10.161  17.584  0.00  0.00    +0.026 C 
ATOM     12  C   UNL     1      -4.831 -11.976  19.276  0.00  0.00    +0.019 C 
ATOM     13  C   UNL     1      -6.535 -12.361  16.898  0.00  0.00    +0.094 C 
ATOM     14  C   UNL     1      -4.621 -13.039  18.183  0.00  0.00    +0.085 C 
ENDROOT
BRANCH   9  15
ATOM      5  N   UNL     1      -9.320 -10.629  18.584  0.00  0.00    -0.270 N 
ATOM      6  N   UNL     1     -10.270  -9.791  18.139  0.00  0.00    -0.171 NA
ATOM     15  C   UNL     1      -8.194 -10.648  17.815  0.00  0.00    +0.044 A 
ATOM     17  C   UNL     1      -8.424  -9.758  16.793  0.00  0.00    +0.053 A 
ATOM     18  C   UNL     1      -9.716  -9.260  17.044  0.00  0.00    +0.096 A 
ATOM     19  C   UNL     1      -9.566 -11.402  19.781  0.00  0.00    +0.172 C 
BRANCH  18  20
ATOM     20  C   UNL     1     -10.433  -8.290  16.258  0.00  0.00    +0.044 A 
ATOM     22  C   UNL     1     -11.014  -8.644  15.040  0.00  0.00    +0.129 A 
ATOM     23  C   UNL     1     -10.543  -6.983  16.729  0.00  0.00    +0.014 A 
ATOM     24  C   UNL     1     -11.704  -7.690  14.293  0.00  0.00    +0.046 A 
ATOM     25  C   UNL     1     -11.234  -6.027  15.982  0.00  0.00    +0.001 A 
ATOM     27  C   UNL     1     -11.814  -6.381  14.764  0.00  0.00    +0.004 A 
BRANCH  22   3
ATOM      3  O   UNL     1     -10.923  -9.916  14.556  0.00  0.00    -0.494 OA
ATOM     30  C   UNL     1     -10.132 -10.107  13.385  0.00  0.00    +0.277 C 
ENDBRANCH  22   3
ENDBRANCH  18  20
ENDBRANCH   9  15
BRANCH  10  16
ATOM     16  C   UNL     1      -4.499 -10.791  15.154  0.00  0.00    +0.252 C 
BRANCH  16   1
ATOM      1  O   UNL     1      -3.194 -10.529  14.673  0.00  0.00    -0.449 OA
BRANCH   1  21
ATOM      2  O   UNL     1      -1.943 -10.863  12.789  0.00  0.00    -0.226 OA
ATOM      7  N   UNL     1      -4.208 -10.279  12.679  0.00  0.00    -0.251 N 
ATOM     21  C   UNL     1      -3.016 -10.583  13.309  0.00  0.00    +0.405 C 
ATOM     37  H   UNL     1      -4.998 -10.072  13.286  0.00  0.00    +0.158 HD
BRANCH   7  26
ATOM     26  C   UNL     1      -4.469 -10.221  11.291  0.00  0.00    +0.036 A 
ATOM     28  C   UNL     1      -4.557  -8.985  10.650  0.00  0.00    +0.024 A 
ATOM     29  C   UNL     1      -4.639 -11.398  10.563  0.00  0.00    +0.024 A 
ATOM     31  C   UNL     1      -4.985 -10.104   8.552  0.00  0.00    -0.045 A 
ATOM     32  C   UNL     1      -4.815  -8.927   9.280  0.00  0.00    +0.006 A 
ATOM     33  C   UNL     1      -4.897 -11.340   9.194  0.00  0.00    +0.006 A 
BRANCH  31  34
ATOM     34  C   UNL     1      -5.261 -10.043   7.088  0.00  0.00    +0.013 C 
ATOM     35  C   UNL     1      -6.667  -9.497   6.776  0.00  0.00    +0.012 C 
ATOM     36  C   UNL     1      -5.063 -11.404   6.393  0.00  0.00    +0.012 C 
ENDBRANCH  31  34
ENDBRANCH   7  26
ENDBRANCH   1  21
ENDBRANCH  16   1
ENDBRANCH  10  16
TORSDOF 8
ENDMDL
MODEL 7
REMARK VINA RESULT:      -5.4     28.490     30.540
REMARK  Name = 25389601
REMARK  12 active torsions:
REMARK  status: ('A' for Active; 'I' for Inactive)
REMARK    1  A    between atoms: O_1  and  C_16
REMARK    2  A    between atoms: O_1  and  C_21
REMARK    3  A    between atoms: O_3  and  C_22
REMARK    4  A    between atoms: O_3  and  C_30
REMARK    5  A    between atoms: N_5  and  C_19
REMARK    6  A    between atoms: N_7  and  C_26
REMARK    7  A    between atoms: C_9  and  C_15
REMARK    8  A    between atoms: C_10  and  C_16
REMARK    9  A    between atoms: C_18  and  C_20
REMARK   10  A    between atoms: C_31  and  C_34
REMARK   11  A    between atoms: C_34  and  C_35
REMARK   12  A    between atoms: C_34  and  C_36
REMARK                            x       y       z     vdW  Elec       q    Type
REMARK                         _______ _______ _______ _____ _____    ______ ____
ROOT
ATOM      4  N   UNL     1      22.204  -6.082  -0.242  0.00  0.00    -0.296 NA
ATOM      8  C   UNL     1      20.383  -7.324   1.146  0.00  0.00    +0.002 C 
ATOM      9  C   UNL     1      20.708  -8.112  -0.153  0.00  0.00    +0.055 C 
ATOM     10  C   UNL     1      21.119  -5.137   0.136  0.00  0.00    +0.095 C 
ATOM     11  C   UNL     1      19.936  -5.894   0.777  0.00  0.00    +0.026 C 
ATOM     12  C   UNL     1      21.705  -7.198   1.933  0.00  0.00    +0.019 C 
ATOM     13  C   UNL     1      21.642  -7.216  -1.016  0.00  0.00    +0.094 C 
ATOM     14  C   UNL     1      22.791  -6.622   1.008  0.00  0.00    +0.085 C 
ENDROOT
BRANCH   9  15
ATOM      5  N   UNL     1      18.979  -9.891  -0.690  0.00  0.00    -0.270 N 
ATOM      6  N   UNL     1      17.970 -10.213  -1.516  0.00  0.00    -0.171 NA
ATOM     15  C   UNL     1      19.549  -8.681  -0.958  0.00  0.00    +0.044 A 
ATOM     17  C   UNL     1      18.863  -8.176  -2.037  0.00  0.00    +0.053 A 
ATOM     18  C   UNL     1      17.904  -9.160  -2.336  0.00  0.00    +0.096 A 
ATOM     19  C   UNL     1      19.355 -10.814   0.358  0.00  0.00    +0.172 C 
BRANCH  18  20
ATOM     20  C   UNL     1      16.926  -9.117  -3.392  0.00  0.00    +0.044 A 
ATOM     22  C   UNL     1      17.252  -9.523  -4.687  0.00  0.00    +0.129 A 
ATOM     23  C   UNL     1      15.640  -8.661  -3.107  0.00  0.00    +0.014 A 
ATOM     24  C   UNL     1      16.290  -9.472  -5.696  0.00  0.00    +0.046 A 
ATOM     25  C   UNL     1      14.677  -8.611  -4.117  0.00  0.00    +0.001 A 
ATOM     27  C   UNL     1      15.003  -9.017  -5.411  0.00  0.00    +0.004 A 
BRANCH  22   3
ATOM      3  O   UNL     1      18.502  -9.973  -4.993  0.00  0.00    -0.494 OA
ATOM     30  C   UNL     1      18.609 -10.903  -6.069  0.00  0.00    +0.277 C 
ENDBRANCH  22   3
ENDBRANCH  18  20
ENDBRANCH   9  15
BRANCH  10  16
ATOM     16  C   UNL     1      20.670  -4.266  -1.039  0.00  0.00    +0.252 C 
BRANCH  16   1
ATOM      1  O   UNL     1      19.299  -3.961  -0.870  0.00  0.00    -0.449 OA
BRANCH   1  21
ATOM      2  O   UNL     1      18.544  -2.602  -2.546  0.00  0.00    -0.226 OA
ATOM      7  N   UNL     1      17.936  -4.859  -2.420  0.00  0.00    -0.251 N 
ATOM     21  C   UNL     1      18.576  -3.704  -2.014  0.00  0.00    +0.405 C 
ATOM     37  H   UNL     1      18.086  -5.684  -1.843  0.00  0.00    +0.158 HD
BRANCH   7  26
ATOM     26  C   UNL     1      17.096  -5.040  -3.542  0.00  0.00    +0.036 A 
ATOM     28  C   UNL     1      17.641  -5.429  -4.765  0.00  0.00    +0.024 A 
ATOM     29  C   UNL     1      15.722  -4.829  -3.425  0.00  0.00    +0.024 A 
ATOM     31  C   UNL     1      15.438  -5.397  -5.757  0.00  0.00    -0.045 A 
ATOM     32  C   UNL     1      16.812  -5.607  -5.874  0.00  0.00    +0.006 A 
ATOM     33  C   UNL     1      14.893  -5.007  -4.533  0.00  0.00    +0.006 A 
BRANCH  31  34
ATOM     34  C   UNL     1      14.551  -5.587  -6.940  0.00  0.00    +0.013 C 
ATOM     35  C   UNL     1      13.154  -6.110  -6.552  0.00  0.00    +0.012 C 
ATOM     36  C   UNL     1      15.176  -6.508  -8.005  0.00  0.00    +0.012 C 
ENDBRANCH  31  34
ENDBRANCH   7  26
ENDBRANCH   1  21
ENDBRANCH  16   1
ENDBRANCH  10  16
TORSDOF 8
ENDMDL
MODEL 8
REMARK VINA RESULT:      -5.4      1.681      4.454
REMARK  Name = 25389601
REMARK  12 active torsions:
REMARK  status: ('A' for Active; 'I' for Inactive)
REMARK    1  A    between atoms: O_1  and  C_16
REMARK    2  A    between atoms: O_1  and  C_21
REMARK    3  A    between atoms: O_3  and  C_22
REMARK    4  A    between atoms: O_3  and  C_30
REMARK    5  A    between atoms: N_5  and  C_19
REMARK    6  A    between atoms: N_7  and  C_26
REMARK    7  A    between atoms: C_9  and  C_15
REMARK    8  A    between atoms: C_10  and  C_16
REMARK    9  A    between atoms: C_18  and  C_20
REMARK   10  A    between atoms: C_31  and  C_34
REMARK   11  A    between atoms: C_34  and  C_35
REMARK   12  A    between atoms: C_34  and  C_36
REMARK                            x       y       z     vdW  Elec       q    Type
REMARK                         _______ _______ _______ _____ _____    ______ ____
ROOT
ATOM      4  N   UNL     1      -4.095  -9.188   9.926  0.00  0.00    -0.296 NA
ATOM      8  C   UNL     1      -5.997 -10.961   9.779  0.00  0.00    +0.002 C 
ATOM      9  C   UNL     1      -6.533  -9.640  10.397  0.00  0.00    +0.055 C 
ATOM     10  C   UNL     1      -3.636 -10.476  10.510  0.00  0.00    +0.095 C 
ATOM     11  C   UNL     1      -4.809 -11.473  10.621  0.00  0.00    +0.026 C 
ATOM     12  C   UNL     1      -5.444 -10.608   8.381  0.00  0.00    +0.019 C 
ATOM     13  C   UNL     1      -5.308  -8.711  10.637  0.00  0.00    +0.094 C 
ATOM     14  C   UNL     1      -4.457  -9.435   8.510  0.00  0.00    +0.085 C 
ENDROOT
BRANCH   9  15
ATOM      5  N   UNL     1      -8.770 -10.004  11.537  0.00  0.00    -0.270 N 
ATOM      6  N   UNL     1      -9.391 -10.040  12.728  0.00  0.00    -0.171 NA
ATOM     15  C   UNL     1      -7.436  -9.731  11.617  0.00  0.00    +0.044 A 
ATOM     17  C   UNL     1      -7.165  -9.577  12.955  0.00  0.00    +0.053 A 
ATOM     18  C   UNL     1      -8.404  -9.779  13.591  0.00  0.00    +0.096 A 
ATOM     19  C   UNL     1      -9.536 -10.244  10.335  0.00  0.00    +0.172 C 
BRANCH  18  20
ATOM     20  C   UNL     1      -8.666  -9.725  15.006  0.00  0.00    +0.044 A 
ATOM     22  C   UNL     1      -8.568 -10.871  15.796  0.00  0.00    +0.129 A 
ATOM     23  C   UNL     1      -9.022  -8.507  15.584  0.00  0.00    +0.014 A 
ATOM     24  C   UNL     1      -8.826 -10.798  17.165  0.00  0.00    +0.046 A 
ATOM     25  C   UNL     1      -9.280  -8.434  16.954  0.00  0.00    +0.001 A 
ATOM     27  C   UNL     1      -9.182  -9.579  17.744  0.00  0.00    +0.004 A 
BRANCH  22   3
ATOM      3  O   UNL     1      -8.222 -12.075  15.257  0.00  0.00    -0.494 OA
ATOM     30  C   UNL     1      -9.004 -13.204  15.639  0.00  0.00    +0.277 C 
ENDBRANCH  22   3
ENDBRANCH  18  20
ENDBRANCH   9  15
BRANCH  10  16
ATOM     16  C   UNL     1      -2.920 -10.286  11.849  0.00  0.00    +0.252 C 
BRANCH  16   1
ATOM      1  O   UNL     1      -2.497 -11.554  12.313  0.00  0.00    -0.449 OA
BRANCH   1  21
ATOM      2  O   UNL     1      -1.689 -12.253  14.334  0.00  0.00    -0.226 OA
ATOM      7  N   UNL     1      -3.860 -11.409  14.098  0.00  0.00    -0.251 N 
ATOM     21  C   UNL     1      -2.603 -11.785  13.666  0.00  0.00    +0.405 C 
ATOM     37  H   UNL     1      -4.487 -11.038  13.388  0.00  0.00    +0.158 HD
BRANCH   7  26
ATOM     26  C   UNL     1      -4.387 -11.476  15.407  0.00  0.00    +0.036 A 
ATOM     28  C   UNL     1      -4.514 -10.313  16.168  0.00  0.00    +0.024 A 
ATOM     29  C   UNL     1      -4.780 -12.704  15.940  0.00  0.00    +0.024 A 
ATOM     31  C   UNL     1      -5.426 -11.606  17.993  0.00  0.00    -0.045 A 
ATOM     32  C   UNL     1      -5.033 -10.378  17.462  0.00  0.00    +0.006 A 
ATOM     33  C   UNL     1      -5.299 -12.769  17.233  0.00  0.00    +0.006 A 
BRANCH  31  34
ATOM     34  C   UNL     1      -5.981 -11.677  19.376  0.00  0.00    +0.013 C 
ATOM     35  C   UNL     1      -7.208 -12.605  19.471  0.00  0.00    +0.012 C 
ATOM     36  C   UNL     1      -6.332 -10.288  19.943  0.00  0.00    +0.012 C 
ENDBRANCH  31  34
ENDBRANCH   7  26
ENDBRANCH   1  21
ENDBRANCH  16   1
ENDBRANCH  10  16
TORSDOF 8
ENDMDL
MODEL 9
REMARK VINA RESULT:      -5.3     28.238     30.394
REMARK  Name = 25389601
REMARK  12 active torsions:
REMARK  status: ('A' for Active; 'I' for Inactive)
REMARK    1  A    between atoms: O_1  and  C_16
REMARK    2  A    between atoms: O_1  and  C_21
REMARK    3  A    between atoms: O_3  and  C_22
REMARK    4  A    between atoms: O_3  and  C_30
REMARK    5  A    between atoms: N_5  and  C_19
REMARK    6  A    between atoms: N_7  and  C_26
REMARK    7  A    between atoms: C_9  and  C_15
REMARK    8  A    between atoms: C_10  and  C_16
REMARK    9  A    between atoms: C_18  and  C_20
REMARK   10  A    between atoms: C_31  and  C_34
REMARK   11  A    between atoms: C_34  and  C_35
REMARK   12  A    between atoms: C_34  and  C_36
REMARK                            x       y       z     vdW  Elec       q    Type
REMARK                         _______ _______ _______ _____ _____    ______ ____
ROOT
ATOM      4  N   UNL     1      15.841  -7.267  -5.589  0.00  0.00    -0.296 NA
ATOM      8  C   UNL     1      14.869  -5.900  -3.596  0.00  0.00    +0.002 C 
ATOM      9  C   UNL     1      16.212  -5.282  -4.076  0.00  0.00    +0.055 C 
ATOM     10  C   UNL     1      15.477  -8.181  -4.473  0.00  0.00    +0.095 C 
ATOM     11  C   UNL     1      15.095  -7.377  -3.212  0.00  0.00    +0.026 C 
ATOM     12  C   UNL     1      13.914  -5.887  -4.810  0.00  0.00    +0.019 C 
ATOM     13  C   UNL     1      16.824  -6.260  -5.119  0.00  0.00    +0.094 C 
ATOM     14  C   UNL     1      14.612  -6.553  -6.009  0.00  0.00    +0.085 C 
ENDROOT
BRANCH   9  15
ATOM      5  N   UNL     1      17.352  -3.565  -2.595  0.00  0.00    -0.270 N 
ATOM      6  N   UNL     1      18.302  -3.394  -1.662  0.00  0.00    -0.171 NA
ATOM     15  C   UNL     1      17.223  -4.854  -3.023  0.00  0.00    +0.044 A 
ATOM     17  C   UNL     1      18.156  -5.577  -2.319  0.00  0.00    +0.053 A 
ATOM     18  C   UNL     1      18.790  -4.627  -1.497  0.00  0.00    +0.096 A 
ATOM     19  C   UNL     1      16.589  -2.422  -3.043  0.00  0.00    +0.172 C 
BRANCH  18  20
ATOM     20  C   UNL     1      19.853  -4.874  -0.558  0.00  0.00    +0.044 A 
ATOM     22  C   UNL     1      21.181  -4.939  -0.982  0.00  0.00    +0.129 A 
ATOM     23  C   UNL     1      19.542  -5.049   0.790  0.00  0.00    +0.014 A 
ATOM     24  C   UNL     1      22.197  -5.180  -0.057  0.00  0.00    +0.046 A 
ATOM     25  C   UNL     1      20.558  -5.289   1.715  0.00  0.00    +0.001 A 
ATOM     27  C   UNL     1      21.885  -5.355   1.292  0.00  0.00    +0.004 A 
BRANCH  22   3
ATOM      3  O   UNL     1      21.514  -4.772  -2.293  0.00  0.00    -0.494 OA
ATOM     30  C   UNL     1      22.572  -5.582  -2.801  0.00  0.00    +0.277 C 
ENDBRANCH  22   3
ENDBRANCH  18  20
ENDBRANCH   9  15
BRANCH  10  16
ATOM     16  C   UNL     1      16.572  -9.211  -4.184  0.00  0.00    +0.252 C 
BRANCH  16   1
ATOM      1  O   UNL     1      16.735  -9.306  -2.782  0.00  0.00    -0.449 OA
BRANCH   1  21
ATOM      2  O   UNL     1      18.602 -10.626  -2.795  0.00  0.00    -0.226 OA
ATOM      7  N   UNL     1      18.371  -8.831  -1.310  0.00  0.00    -0.251 N 
ATOM     21  C   UNL     1      17.981  -9.679  -2.328  0.00  0.00    +0.405 C 
ATOM     37  H   UNL     1      17.713  -8.096  -1.059  0.00  0.00    +0.158 HD
BRANCH   7  26
ATOM     26  C   UNL     1      19.574  -8.857  -0.569  0.00  0.00    +0.036 A 
ATOM     28  C   UNL     1      20.793  -8.639  -1.210  0.00  0.00    +0.024 A 
ATOM     29  C   UNL     1      19.543  -9.099   0.805  0.00  0.00    +0.024 A 
ATOM     31  C   UNL     1      21.949  -8.907   0.894  0.00  0.00    -0.045 A 
ATOM     32  C   UNL     1      21.981  -8.665  -0.479  0.00  0.00    +0.006 A 
ATOM     33  C   UNL     1      20.730  -9.124   1.535  0.00  0.00    +0.006 A 
BRANCH  31  34
ATOM     34  C   UNL     1      23.219  -8.934   1.676  0.00  0.00    +0.013 C 
ATOM     35  C   UNL     1      23.038  -8.402   3.111  0.00  0.00    +0.012 C 
ATOM     36  C   UNL     1      24.360  -8.172   0.976  0.00  0.00    +0.012 C 
ENDBRANCH  31  34
ENDBRANCH   7  26
ENDBRANCH   1  21
ENDBRANCH  16   1
ENDBRANCH  10  16
TORSDOF 8
ENDMDL
MODEL 10
REMARK VINA RESULT:      -5.1      3.426      7.775
REMARK  Name = 25389601
REMARK  12 active torsions:
REMARK  status: ('A' for Active; 'I' for Inactive)
REMARK    1  A    between atoms: O_1  and  C_16
REMARK    2  A    between atoms: O_1  and  C_21
REMARK    3  A    between atoms: O_3  and  C_22
REMARK    4  A    between atoms: O_3  and  C_30
REMARK    5  A    between atoms: N_5  and  C_19
REMARK    6  A    between atoms: N_7  and  C_26
REMARK    7  A    between atoms: C_9  and  C_15
REMARK    8  A    between atoms: C_10  and  C_16
REMARK    9  A    between atoms: C_18  and  C_20
REMARK   10  A    between atoms: C_31  and  C_34
REMARK   11  A    between atoms: C_34  and  C_35
REMARK   12  A    between atoms: C_34  and  C_36
REMARK                            x       y       z     vdW  Elec       q    Type
REMARK                         _______ _______ _______ _____ _____    ______ ____
ROOT
ATOM      4  N   UNL     1     -13.152  -9.181  18.256  0.00  0.00    -0.296 NA
ATOM      8  C   UNL     1     -13.224 -11.784  18.317  0.00  0.00    +0.002 C 
ATOM      9  C   UNL     1     -12.131 -11.248  19.283  0.00  0.00    +0.055 C 
ATOM     10  C   UNL     1     -13.115  -9.724  16.872  0.00  0.00    +0.095 C 
ATOM     11  C   UNL     1     -12.948 -11.259  16.892  0.00  0.00    +0.026 C 
ATOM     12  C   UNL     1     -14.564 -11.171  18.777  0.00  0.00    +0.019 C 
ATOM     13  C   UNL     1     -12.011  -9.716  19.041  0.00  0.00    +0.094 C 
ATOM     14  C   UNL     1     -14.408  -9.644  18.892  0.00  0.00    +0.085 C 
ENDROOT
BRANCH   9  15
ATOM      5  N   UNL     1     -10.439 -12.910  20.185  0.00  0.00    -0.270 N 
ATOM      6  N   UNL     1      -9.196 -13.393  20.024  0.00  0.00    -0.171 NA
ATOM     15  C   UNL     1     -10.775 -11.938  19.289  0.00  0.00    +0.044 A 
ATOM     17  C   UNL     1      -9.673 -11.773  18.485  0.00  0.00    +0.053 A 
ATOM     18  C   UNL     1      -8.733 -12.695  18.983  0.00  0.00    +0.096 A 
ATOM     19  C   UNL     1     -11.269 -13.438  21.245  0.00  0.00    +0.172 C 
BRANCH  18  20
ATOM     20  C   UNL     1      -7.401 -12.920  18.486  0.00  0.00    +0.044 A 
ATOM     22  C   UNL     1      -6.306 -12.265  19.052  0.00  0.00    +0.129 A 
ATOM     23  C   UNL     1      -7.213 -13.804  17.425  0.00  0.00    +0.014 A 
ATOM     24  C   UNL     1      -5.023 -12.496  18.555  0.00  0.00    +0.046 A 
ATOM     25  C   UNL     1      -5.929 -14.035  16.928  0.00  0.00    +0.001 A 
ATOM     27  C   UNL     1      -4.835 -13.382  17.493  0.00  0.00    +0.004 A 
BRANCH  22   3
ATOM      3  O   UNL     1      -6.460 -11.396  20.090  0.00  0.00    -0.494 OA
ATOM     30  C   UNL     1      -6.329 -10.006  19.796  0.00  0.00    +0.277 C 
ENDBRANCH  22   3
ENDBRANCH  18  20
ENDBRANCH   9  15
BRANCH  10  16
ATOM     16  C   UNL     1     -12.049  -9.046  16.008  0.00  0.00    +0.252 C 
BRANCH  16   1
ATOM      1  O   UNL     1     -11.098 -10.021  15.626  0.00  0.00    -0.449 OA
BRANCH   1  21
ATOM      2  O   UNL     1      -9.510  -8.408  15.301  0.00  0.00    -0.226 OA
ATOM      7  N   UNL     1      -8.947 -10.672  15.497  0.00  0.00    -0.251 N 
ATOM     21  C   UNL     1      -9.802  -9.587  15.457  0.00  0.00    +0.405 C 
ATOM     37  H   UNL     1      -9.380 -11.582  15.638  0.00  0.00    +0.158 HD
BRANCH   7  26
ATOM     26  C   UNL     1      -7.540 -10.676  15.368  0.00  0.00    +0.036 A 
ATOM     28  C   UNL     1      -6.757  -9.908  16.230  0.00  0.00    +0.024 A 
ATOM     29  C   UNL     1      -6.932 -11.448  14.377  0.00  0.00    +0.024 A 
ATOM     31  C   UNL     1      -4.762 -10.684  15.112  0.00  0.00    -0.045 A 
ATOM     32  C   UNL     1      -5.368  -9.911  16.102  0.00  0.00    +0.006 A 
ATOM     33  C   UNL     1      -5.544 -11.452  14.249  0.00  0.00    +0.006 A 
BRANCH  31  34
ATOM     34  C   UNL     1      -3.277 -10.688  14.974  0.00  0.00    +0.013 C 
ATOM     35  C   UNL     1      -2.767 -11.872  14.129  0.00  0.00    +0.012 C 
ATOM     36  C   UNL     1      -2.558 -10.671  16.336  0.00  0.00    +0.012 C 
ENDBRANCH  31  34
ENDBRANCH   7  26
ENDBRANCH   1  21
ENDBRANCH  16   1
ENDBRANCH  10  16
TORSDOF 8
ENDMDL
