MODEL 1
REMARK VINA RESULT:      -6.9      0.000      0.000
REMARK  Name = 38029432
REMARK  15 active torsions:
REMARK  status: ('A' for Active; 'I' for Inactive)
REMARK    1  A    between atoms: O_3  and  C_26
REMARK    2  A    between atoms: N_5  and  C_15
REMARK    3  A    between atoms: N_6  and  C_23
REMARK    4  A    between atoms: C_8  and  C_12
REMARK    5  A    between atoms: C_9  and  C_15
REMARK    6  A    between atoms: C_11  and  C_16
REMARK    7  A    between atoms: C_12  and  C_17
REMARK    8  A    between atoms: C_12  and  C_18
REMARK    9  A    between atoms: C_13  and  C_19
REMARK   10  A    between atoms: C_16  and  C_20
REMARK   11  A    between atoms: C_21  and  C_22
REMARK   12  A    between atoms: C_22  and  C_24
REMARK   13  A    between atoms: C_23  and  C_25
REMARK   14  A    between atoms: C_24  and  C_26
REMARK   15  A    between atoms: C_31  and  C_32
REMARK                            x       y       z     vdW  Elec       q    Type
REMARK                         _______ _______ _______ _____ _____    ______ ____
ROOT
ATOM      8  C   UNL     1      -6.183 -10.266  15.626  0.00  0.00    +0.000 C 
ATOM      9  C   UNL     1      -6.864 -10.433  17.009  0.00  0.00    +0.032 C 
ATOM     10  C   UNL     1      -5.211 -11.426  15.364  0.00  0.00    +0.012 C 
ATOM     11  C   UNL     1      -4.113 -11.521  16.442  0.00  0.00    +0.023 C 
ATOM     13  C   UNL     1      -4.687 -11.422  17.841  0.00  0.00    -0.073 C 
ATOM     14  C   UNL     1      -5.923 -10.946  18.073  0.00  0.00    -0.022 C 
ATOM     19  C   UNL     1      -3.823 -11.926  18.963  0.00  0.00    +0.039 C 
ENDROOT
BRANCH   8  12
ATOM     12  C   UNL     1      -7.209 -10.184  14.493  0.00  0.00    -0.013 C 
ATOM     17  C   UNL     1      -6.507 -10.148  13.139  0.00  0.00    +0.007 C 
ATOM     18  C   UNL     1      -8.181 -11.358  14.567  0.00  0.00    +0.007 C 
ENDBRANCH   8  12
BRANCH   9  15
ATOM     15  C   UNL     1      -7.497  -9.118  17.476  0.00  0.00    +0.112 C 
BRANCH  15   5
ATOM      2  O   UNL     1      -9.776  -7.676  16.429  0.00  0.00    -0.276 OA
ATOM      5  N   UNL     1      -8.872  -9.310  17.816  0.00  0.00    -0.315 N 
ATOM     21  C   UNL     1      -9.916  -8.568  17.261  0.00  0.00    +0.214 C 
ATOM     33  H   UNL     1      -9.105 -10.064  18.455  0.00  0.00    +0.149 HD
BRANCH  21  22
ATOM     22  C   UNL     1     -11.268  -8.987  17.809  0.00  0.00    +0.107 C 
BRANCH  22  24
ATOM     24  C   UNL     1     -11.204 -10.303  18.579  0.00  0.00    +0.129 C 
BRANCH  24  26
ATOM      4  O   UNL     1     -12.292  -9.854  20.708  0.00  0.00    -0.251 OA
ATOM     26  C   UNL     1     -11.274 -10.088  20.072  0.00  0.00    +0.305 C 
BRANCH  26   3
ATOM      3  O   UNL     1     -10.046 -10.189  20.647  0.00  0.00    -0.481 OA
ATOM     35  H   UNL     1      -9.604 -11.035  20.419  0.00  0.00    +0.295 HD
ENDBRANCH  26   3
ENDBRANCH  24  26
ENDBRANCH  22  24
ENDBRANCH  21  22
ENDBRANCH  15   5
ENDBRANCH   9  15
BRANCH  11  16
ATOM     16  C   UNL     1      -3.027 -10.463  16.218  0.00  0.00    +0.103 C 
BRANCH  16  20
ATOM      1  O   UNL     1      -1.091 -11.566  15.272  0.00  0.00    -0.276 OA
ATOM      6  N   UNL     1      -2.468 -10.292  13.900  0.00  0.00    -0.311 N 
ATOM     20  C   UNL     1      -2.076 -10.850  15.108  0.00  0.00    +0.214 C 
ATOM     34  H   UNL     1      -3.302  -9.714  13.862  0.00  0.00    +0.149 HD
BRANCH   6  23
ATOM     23  C   UNL     1      -1.742 -10.492  12.666  0.00  0.00    +0.139 C 
BRANCH  23  25
ATOM     25  C   UNL     1      -2.638 -10.393  11.465  0.00  0.00    -0.030 A 
ATOM     27  C   UNL     1      -3.418 -11.486  11.085  0.00  0.00    +0.006 A 
ATOM     28  C   UNL     1      -2.692  -9.208  10.731  0.00  0.00    +0.006 A 
ATOM     29  C   UNL     1      -4.251 -11.394   9.970  0.00  0.00    +0.019 A 
ATOM     30  C   UNL     1      -3.525  -9.117   9.616  0.00  0.00    +0.019 A 
ATOM     31  C   UNL     1      -4.305 -10.209   9.235  0.00  0.00    +0.052 A 
BRANCH  31  32
ATOM      7  N   UNL     1      -5.849 -10.041   7.164  0.00  0.00    -0.191 NA
ATOM     32  C   UNL     1      -5.158 -10.116   8.093  0.00  0.00    +0.099 C 
ENDBRANCH  31  32
ENDBRANCH  23  25
ENDBRANCH   6  23
ENDBRANCH  16  20
ENDBRANCH  11  16
TORSDOF 12
ENDMDL
MODEL 2
REMARK VINA RESULT:      -6.7     23.055     26.989
REMARK  Name = 38029432
REMARK  15 active torsions:
REMARK  status: ('A' for Active; 'I' for Inactive)
REMARK    1  A    between atoms: O_3  and  C_26
REMARK    2  A    between atoms: N_5  and  C_15
REMARK    3  A    between atoms: N_6  and  C_23
REMARK    4  A    between atoms: C_8  and  C_12
REMARK    5  A    between atoms: C_9  and  C_15
REMARK    6  A    between atoms: C_11  and  C_16
REMARK    7  A    between atoms: C_12  and  C_17
REMARK    8  A    between atoms: C_12  and  C_18
REMARK    9  A    between atoms: C_13  and  C_19
REMARK   10  A    between atoms: C_16  and  C_20
REMARK   11  A    between atoms: C_21  and  C_22
REMARK   12  A    between atoms: C_22  and  C_24
REMARK   13  A    between atoms: C_23  and  C_25
REMARK   14  A    between atoms: C_24  and  C_26
REMARK   15  A    between atoms: C_31  and  C_32
REMARK                            x       y       z     vdW  Elec       q    Type
REMARK                         _______ _______ _______ _____ _____    ______ ____
ROOT
ATOM      8  C   UNL     1      12.528   7.799   4.868  0.00  0.00    +0.000 C 
ATOM      9  C   UNL     1      11.595   8.929   5.372  0.00  0.00    +0.032 C 
ATOM     10  C   UNL     1      12.275   7.520   3.379  0.00  0.00    +0.012 C 
ATOM     11  C   UNL     1      10.816   7.109   3.102  0.00  0.00    +0.023 C 
ATOM     13  C   UNL     1       9.831   8.029   3.795  0.00  0.00    -0.073 C 
ATOM     14  C   UNL     1      10.201   8.845   4.798  0.00  0.00    -0.022 C 
ATOM     19  C   UNL     1       8.420   8.023   3.277  0.00  0.00    +0.039 C 
ENDROOT
BRANCH   8  12
ATOM     12  C   UNL     1      14.005   8.139   5.088  0.00  0.00    -0.013 C 
ATOM     17  C   UNL     1      14.594   7.264   6.190  0.00  0.00    +0.007 C 
ATOM     18  C   UNL     1      14.789   7.975   3.790  0.00  0.00    +0.007 C 
ENDBRANCH   8  12
BRANCH   9  15
ATOM     15  C   UNL     1      11.518   8.940   6.903  0.00  0.00    +0.112 C 
BRANCH  15   5
ATOM      2  O   UNL     1      11.578   6.178   7.760  0.00  0.00    -0.276 OA
ATOM      5  N   UNL     1      10.416   8.153   7.362  0.00  0.00    -0.315 N 
ATOM     21  C   UNL     1      10.531   6.820   7.758  0.00  0.00    +0.214 C 
ATOM     33  H   UNL     1       9.512   8.606   7.454  0.00  0.00    +0.149 HD
BRANCH  21  22
ATOM     22  C   UNL     1       9.199   6.237   8.194  0.00  0.00    +0.107 C 
BRANCH  22  24
ATOM     24  C   UNL     1       9.326   4.803   8.699  0.00  0.00    +0.129 C 
BRANCH  24  26
ATOM      4  O   UNL     1      10.445   4.667  10.856  0.00  0.00    -0.251 OA
ATOM     26  C   UNL     1       9.411   4.740  10.205  0.00  0.00    +0.305 C 
BRANCH  26   3
ATOM      3  O   UNL     1       8.177   4.777  10.775  0.00  0.00    -0.481 OA
ATOM     35  H   UNL     1       8.181   4.397  11.680  0.00  0.00    +0.295 HD
ENDBRANCH  26   3
ENDBRANCH  24  26
ENDBRANCH  22  24
ENDBRANCH  21  22
ENDBRANCH  15   5
ENDBRANCH   9  15
BRANCH  11  16
ATOM     16  C   UNL     1      10.570   5.648   3.493  0.00  0.00    +0.103 C 
BRANCH  16  20
ATOM      1  O   UNL     1      10.167   4.694   1.306  0.00  0.00    -0.276 OA
ATOM      6  N   UNL     1      11.893   3.859   2.619  0.00  0.00    -0.311 N 
ATOM     20  C   UNL     1      10.826   4.701   2.342  0.00  0.00    +0.214 C 
ATOM     34  H   UNL     1      12.381   3.943   3.506  0.00  0.00    +0.149 HD
BRANCH   6  23
ATOM     23  C   UNL     1      12.360   2.848   1.697  0.00  0.00    +0.139 C 
BRANCH  23  25
ATOM     25  C   UNL     1      13.454   3.363   0.806  0.00  0.00    -0.030 A 
ATOM     27  C   UNL     1      13.197   3.605  -0.544  0.00  0.00    +0.006 A 
ATOM     28  C   UNL     1      14.725   3.601   1.328  0.00  0.00    +0.006 A 
ATOM     29  C   UNL     1      14.213   4.083  -1.371  0.00  0.00    +0.019 A 
ATOM     30  C   UNL     1      15.740   4.080   0.500  0.00  0.00    +0.019 A 
ATOM     31  C   UNL     1      15.484   4.322  -0.849  0.00  0.00    +0.052 A 
BRANCH  31  32
ATOM      7  N   UNL     1      17.369   5.210  -2.386  0.00  0.00    -0.191 NA
ATOM     32  C   UNL     1      16.524   4.811  -1.698  0.00  0.00    +0.099 C 
ENDBRANCH  31  32
ENDBRANCH  23  25
ENDBRANCH   6  23
ENDBRANCH  16  20
ENDBRANCH  11  16
TORSDOF 12
ENDMDL
MODEL 3
REMARK VINA RESULT:      -6.5      3.924      8.861
REMARK  Name = 38029432
REMARK  15 active torsions:
REMARK  status: ('A' for Active; 'I' for Inactive)
REMARK    1  A    between atoms: O_3  and  C_26
REMARK    2  A    between atoms: N_5  and  C_15
REMARK    3  A    between atoms: N_6  and  C_23
REMARK    4  A    between atoms: C_8  and  C_12
REMARK    5  A    between atoms: C_9  and  C_15
REMARK    6  A    between atoms: C_11  and  C_16
REMARK    7  A    between atoms: C_12  and  C_17
REMARK    8  A    between atoms: C_12  and  C_18
REMARK    9  A    between atoms: C_13  and  C_19
REMARK   10  A    between atoms: C_16  and  C_20
REMARK   11  A    between atoms: C_21  and  C_22
REMARK   12  A    between atoms: C_22  and  C_24
REMARK   13  A    between atoms: C_23  and  C_25
REMARK   14  A    between atoms: C_24  and  C_26
REMARK   15  A    between atoms: C_31  and  C_32
REMARK                            x       y       z     vdW  Elec       q    Type
REMARK                         _______ _______ _______ _____ _____    ______ ____
ROOT
ATOM      8  C   UNL     1      -5.560 -10.368  10.542  0.00  0.00    +0.000 C 
ATOM      9  C   UNL     1      -4.902  -9.479   9.456  0.00  0.00    +0.032 C 
ATOM     10  C   UNL     1      -5.041  -9.984  11.936  0.00  0.00    +0.012 C 
ATOM     11  C   UNL     1      -3.511 -10.128  12.047  0.00  0.00    +0.023 C 
ATOM     13  C   UNL     1      -2.799  -9.503  10.865  0.00  0.00    -0.073 C 
ATOM     14  C   UNL     1      -3.441  -9.208   9.720  0.00  0.00    -0.022 C 
ATOM     19  C   UNL     1      -1.341  -9.184  11.044  0.00  0.00    +0.039 C 
ENDROOT
BRANCH   8  12
ATOM     12  C   UNL     1      -7.088 -10.267  10.512  0.00  0.00    -0.013 C 
ATOM     17  C   UNL     1      -7.712 -11.655  10.416  0.00  0.00    +0.007 C 
ATOM     18  C   UNL     1      -7.598  -9.529  11.746  0.00  0.00    +0.007 C 
ENDBRANCH   8  12
BRANCH   9  15
ATOM     15  C   UNL     1      -5.065 -10.096   8.063  0.00  0.00    +0.112 C 
BRANCH  15   5
ATOM      2  O   UNL     1      -6.056 -10.691   5.410  0.00  0.00    -0.276 OA
ATOM      5  N   UNL     1      -5.845  -9.244   7.219  0.00  0.00    -0.315 N 
ATOM     21  C   UNL     1      -6.284  -9.610   5.946  0.00  0.00    +0.214 C 
ATOM     33  H   UNL     1      -6.139  -8.345   7.590  0.00  0.00    +0.149 HD
BRANCH  21  22
ATOM     22  C   UNL     1      -7.088  -8.507   5.281  0.00  0.00    +0.107 C 
BRANCH  22  24
ATOM     24  C   UNL     1      -8.519  -8.432   5.804  0.00  0.00    +0.129 C 
BRANCH  24  26
ATOM      4  O   UNL     1      -9.834  -6.595   6.710  0.00  0.00    -0.251 OA
ATOM     26  C   UNL     1      -8.762  -7.176   6.607  0.00  0.00    +0.305 C 
BRANCH  26   3
ATOM      3  O   UNL     1      -7.626  -6.752   7.222  0.00  0.00    -0.481 OA
ATOM     35  H   UNL     1      -7.464  -7.232   8.062  0.00  0.00    +0.295 HD
ENDBRANCH  26   3
ENDBRANCH  24  26
ENDBRANCH  22  24
ENDBRANCH  21  22
ENDBRANCH  15   5
ENDBRANCH   9  15
BRANCH  11  16
ATOM     16  C   UNL     1      -3.105 -11.596  12.220  0.00  0.00    +0.103 C 
BRANCH  16  20
ATOM      1  O   UNL     1      -2.296 -13.012  14.008  0.00  0.00    -0.276 OA
ATOM      6  N   UNL     1      -2.797 -10.785  14.447  0.00  0.00    -0.311 N 
ATOM     20  C   UNL     1      -2.684 -11.906  13.639  0.00  0.00    +0.214 C 
ATOM     34  H   UNL     1      -3.126  -9.911  14.049  0.00  0.00    +0.149 HD
BRANCH   6  23
ATOM     23  C   UNL     1      -2.464 -10.791  15.854  0.00  0.00    +0.139 C 
BRANCH  23  25
ATOM     25  C   UNL     1      -3.690 -10.820  16.721  0.00  0.00    -0.030 A 
ATOM     27  C   UNL     1      -4.866 -10.208  16.287  0.00  0.00    +0.006 A 
ATOM     28  C   UNL     1      -3.653 -11.462  17.959  0.00  0.00    +0.006 A 
ATOM     29  C   UNL     1      -6.004 -10.235  17.093  0.00  0.00    +0.019 A 
ATOM     30  C   UNL     1      -4.792 -11.490  18.764  0.00  0.00    +0.019 A 
ATOM     31  C   UNL     1      -5.968 -10.877  18.331  0.00  0.00    +0.052 A 
BRANCH  31  32
ATOM      7  N   UNL     1      -8.082 -10.925  19.824  0.00  0.00    -0.191 NA
ATOM     32  C   UNL     1      -7.134 -10.904  19.155  0.00  0.00    +0.099 C 
ENDBRANCH  31  32
ENDBRANCH  23  25
ENDBRANCH   6  23
ENDBRANCH  16  20
ENDBRANCH  11  16
TORSDOF 12
ENDMDL
MODEL 4
REMARK VINA RESULT:      -6.3     19.242     23.449
REMARK  Name = 38029432
REMARK  15 active torsions:
REMARK  status: ('A' for Active; 'I' for Inactive)
REMARK    1  A    between atoms: O_3  and  C_26
REMARK    2  A    between atoms: N_5  and  C_15
REMARK    3  A    between atoms: N_6  and  C_23
REMARK    4  A    between atoms: C_8  and  C_12
REMARK    5  A    between atoms: C_9  and  C_15
REMARK    6  A    between atoms: C_11  and  C_16
REMARK    7  A    between atoms: C_12  and  C_17
REMARK    8  A    between atoms: C_12  and  C_18
REMARK    9  A    between atoms: C_13  and  C_19
REMARK   10  A    between atoms: C_16  and  C_20
REMARK   11  A    between atoms: C_21  and  C_22
REMARK   12  A    between atoms: C_22  and  C_24
REMARK   13  A    between atoms: C_23  and  C_25
REMARK   14  A    between atoms: C_24  and  C_26
REMARK   15  A    between atoms: C_31  and  C_32
REMARK                            x       y       z     vdW  Elec       q    Type
REMARK                         _______ _______ _______ _____ _____    ______ ____
ROOT
ATOM      8  C   UNL     1     -12.206   9.937  18.529  0.00  0.00    +0.000 C 
ATOM      9  C   UNL     1     -12.177   8.513  17.918  0.00  0.00    +0.032 C 
ATOM     10  C   UNL     1     -11.357   9.989  19.808  0.00  0.00    +0.012 C 
ATOM     11  C   UNL     1     -11.847   8.989  20.874  0.00  0.00    +0.023 C 
ATOM     13  C   UNL     1     -12.099   7.616  20.285  0.00  0.00    -0.073 C 
ATOM     14  C   UNL     1     -12.230   7.421  18.960  0.00  0.00    -0.022 C 
ATOM     19  C   UNL     1     -12.152   6.465  21.250  0.00  0.00    +0.039 C 
ENDROOT
BRANCH   8  12
ATOM     12  C   UNL     1     -11.713  10.993  17.536  0.00  0.00    -0.013 C 
ATOM     17  C   UNL     1     -12.407  12.327  17.788  0.00  0.00    +0.007 C 
ATOM     18  C   UNL     1     -10.198  11.145  17.629  0.00  0.00    +0.007 C 
ENDBRANCH   8  12
BRANCH   9  15
ATOM     15  C   UNL     1     -13.319   8.318  16.914  0.00  0.00    +0.112 C 
BRANCH  15   5
ATOM      2  O   UNL     1     -14.731   7.431  14.550  0.00  0.00    -0.276 OA
ATOM      5  N   UNL     1     -12.814   8.252  15.579  0.00  0.00    -0.315 N 
ATOM     21  C   UNL     1     -13.565   7.810  14.489  0.00  0.00    +0.214 C 
ATOM     33  H   UNL     1     -11.874   8.598  15.406  0.00  0.00    +0.149 HD
BRANCH  21  22
ATOM     22  C   UNL     1     -12.770   7.845  13.196  0.00  0.00    +0.107 C 
BRANCH  22  24
ATOM     24  C   UNL     1     -11.430   8.557  13.353  0.00  0.00    +0.129 C 
BRANCH  24  26
ATOM      4  O   UNL     1      -9.538   7.442  12.305  0.00  0.00    -0.251 OA
ATOM     26  C   UNL     1     -10.268   7.597  13.275  0.00  0.00    +0.305 C 
BRANCH  26   3
ATOM      3  O   UNL     1     -10.116   6.905  14.435  0.00  0.00    -0.481 OA
ATOM     35  H   UNL     1      -9.663   6.046  14.292  0.00  0.00    +0.295 HD
ENDBRANCH  26   3
ENDBRANCH  24  26
ENDBRANCH  22  24
ENDBRANCH  21  22
ENDBRANCH  15   5
ENDBRANCH   9  15
BRANCH  11  16
ATOM     16  C   UNL     1     -13.094   9.516  21.593  0.00  0.00    +0.103 C 
BRANCH  16  20
ATOM      1  O   UNL     1     -13.060  11.926  21.807  0.00  0.00    -0.276 OA
ATOM      6  N   UNL     1     -12.306  10.608  23.567  0.00  0.00    -0.311 N 
ATOM     20  C   UNL     1     -12.831  10.825  22.302  0.00  0.00    +0.214 C 
ATOM     34  H   UNL     1     -12.154   9.658  23.891  0.00  0.00    +0.149 HD
BRANCH   6  23
ATOM     23  C   UNL     1     -11.955  11.681  24.470  0.00  0.00    +0.139 C 
BRANCH  23  25
ATOM     25  C   UNL     1     -11.877  11.214  25.895  0.00  0.00    -0.030 A 
ATOM     27  C   UNL     1     -12.840  11.623  26.817  0.00  0.00    +0.006 A 
ATOM     28  C   UNL     1     -10.842  10.369  26.295  0.00  0.00    +0.006 A 
ATOM     29  C   UNL     1     -12.767  11.188  28.141  0.00  0.00    +0.019 A 
ATOM     30  C   UNL     1     -10.770   9.933  27.619  0.00  0.00    +0.019 A 
ATOM     31  C   UNL     1     -11.732  10.342  28.542  0.00  0.00    +0.052 A 
BRANCH  31  32
ATOM      7  N   UNL     1     -11.600   9.538  30.999  0.00  0.00    -0.191 NA
ATOM     32  C   UNL     1     -11.658   9.898  29.897  0.00  0.00    +0.099 C 
ENDBRANCH  31  32
ENDBRANCH  23  25
ENDBRANCH   6  23
ENDBRANCH  16  20
ENDBRANCH  11  16
TORSDOF 12
ENDMDL
MODEL 5
REMARK VINA RESULT:      -6.3      1.193      2.329
REMARK  Name = 38029432
REMARK  15 active torsions:
REMARK  status: ('A' for Active; 'I' for Inactive)
REMARK    1  A    between atoms: O_3  and  C_26
REMARK    2  A    between atoms: N_5  and  C_15
REMARK    3  A    between atoms: N_6  and  C_23
REMARK    4  A    between atoms: C_8  and  C_12
REMARK    5  A    between atoms: C_9  and  C_15
REMARK    6  A    between atoms: C_11  and  C_16
REMARK    7  A    between atoms: C_12  and  C_17
REMARK    8  A    between atoms: C_12  and  C_18
REMARK    9  A    between atoms: C_13  and  C_19
REMARK   10  A    between atoms: C_16  and  C_20
REMARK   11  A    between atoms: C_21  and  C_22
REMARK   12  A    between atoms: C_22  and  C_24
REMARK   13  A    between atoms: C_23  and  C_25
REMARK   14  A    between atoms: C_24  and  C_26
REMARK   15  A    between atoms: C_31  and  C_32
REMARK                            x       y       z     vdW  Elec       q    Type
REMARK                         _______ _______ _______ _____ _____    ______ ____
ROOT
ATOM      8  C   UNL     1      -6.155 -10.508  15.530  0.00  0.00    +0.000 C 
ATOM      9  C   UNL     1      -6.879 -10.627  16.894  0.00  0.00    +0.032 C 
ATOM     10  C   UNL     1      -5.168 -11.670  15.344  0.00  0.00    +0.012 C 
ATOM     11  C   UNL     1      -4.105 -11.716  16.459  0.00  0.00    +0.023 C 
ATOM     13  C   UNL     1      -4.725 -11.568  17.834  0.00  0.00    -0.073 C 
ATOM     14  C   UNL     1      -5.971 -11.093  18.007  0.00  0.00    -0.022 C 
ATOM     19  C   UNL     1      -3.895 -12.023  19.002  0.00  0.00    +0.039 C 
ENDROOT
BRANCH   8  12
ATOM     12  C   UNL     1      -7.144 -10.476  14.361  0.00  0.00    -0.013 C 
ATOM     17  C   UNL     1      -6.523  -9.776  13.156  0.00  0.00    +0.007 C 
ATOM     18  C   UNL     1      -7.584 -11.891  13.997  0.00  0.00    +0.007 C 
ENDBRANCH   8  12
BRANCH   9  15
ATOM     15  C   UNL     1      -7.535  -9.299  17.290  0.00  0.00    +0.112 C 
BRANCH  15   5
ATOM      2  O   UNL     1     -10.216  -9.164  18.370  0.00  0.00    -0.276 OA
ATOM      5  N   UNL     1      -8.750  -9.098  16.565  0.00  0.00    -0.315 N 
ATOM     21  C   UNL     1     -10.009  -9.046  17.165  0.00  0.00    +0.214 C 
ATOM     33  H   UNL     1      -8.687  -8.931  15.565  0.00  0.00    +0.149 HD
BRANCH  21  22
ATOM     22  C   UNL     1     -11.116  -8.825  16.151  0.00  0.00    +0.107 C 
BRANCH  22  24
ATOM     24  C   UNL     1     -10.746  -7.782  15.100  0.00  0.00    +0.129 C 
BRANCH  24  26
ATOM      4  O   UNL     1     -11.713  -5.910  16.319  0.00  0.00    -0.251 OA
ATOM     26  C   UNL     1     -10.798  -6.378  15.654  0.00  0.00    +0.305 C 
BRANCH  26   3
ATOM      3  O   UNL     1      -9.684  -5.672  15.325  0.00  0.00    -0.481 OA
ATOM     35  H   UNL     1      -9.903  -4.768  15.014  0.00  0.00    +0.295 HD
ENDBRANCH  26   3
ENDBRANCH  24  26
ENDBRANCH  22  24
ENDBRANCH  21  22
ENDBRANCH  15   5
ENDBRANCH   9  15
BRANCH  11  16
ATOM     16  C   UNL     1      -3.018 -10.660  16.230  0.00  0.00    +0.103 C 
BRANCH  16  20
ATOM      1  O   UNL     1      -1.289 -11.852  15.029  0.00  0.00    -0.276 OA
ATOM      6  N   UNL     1      -2.478 -10.170  13.954  0.00  0.00    -0.311 N 
ATOM     20  C   UNL     1      -2.155 -10.982  15.031  0.00  0.00    +0.214 C 
ATOM     34  H   UNL     1      -3.215  -9.478  14.051  0.00  0.00    +0.149 HD
BRANCH   6  23
ATOM     23  C   UNL     1      -1.811 -10.255  12.674  0.00  0.00    +0.139 C 
BRANCH  23  25
ATOM     25  C   UNL     1      -2.788 -10.332  11.536  0.00  0.00    -0.030 A 
ATOM     27  C   UNL     1      -2.822  -9.319  10.577  0.00  0.00    +0.006 A 
ATOM     28  C   UNL     1      -3.659 -11.417  11.437  0.00  0.00    +0.006 A 
ATOM     29  C   UNL     1      -3.730  -9.390   9.520  0.00  0.00    +0.019 A 
ATOM     30  C   UNL     1      -4.565 -11.488  10.378  0.00  0.00    +0.019 A 
ATOM     31  C   UNL     1      -4.601 -10.476   9.420  0.00  0.00    +0.052 A 
BRANCH  31  32
ATOM      7  N   UNL     1      -6.283 -10.605   7.457  0.00  0.00    -0.191 NA
ATOM     32  C   UNL     1      -5.529 -10.548   8.337  0.00  0.00    +0.099 C 
ENDBRANCH  31  32
ENDBRANCH  23  25
ENDBRANCH   6  23
ENDBRANCH  16  20
ENDBRANCH  11  16
TORSDOF 12
ENDMDL
MODEL 6
REMARK VINA RESULT:      -6.2      4.226      8.890
REMARK  Name = 38029432
REMARK  15 active torsions:
REMARK  status: ('A' for Active; 'I' for Inactive)
REMARK    1  A    between atoms: O_3  and  C_26
REMARK    2  A    between atoms: N_5  and  C_15
REMARK    3  A    between atoms: N_6  and  C_23
REMARK    4  A    between atoms: C_8  and  C_12
REMARK    5  A    between atoms: C_9  and  C_15
REMARK    6  A    between atoms: C_11  and  C_16
REMARK    7  A    between atoms: C_12  and  C_17
REMARK    8  A    between atoms: C_12  and  C_18
REMARK    9  A    between atoms: C_13  and  C_19
REMARK   10  A    between atoms: C_16  and  C_20
REMARK   11  A    between atoms: C_21  and  C_22
REMARK   12  A    between atoms: C_22  and  C_24
REMARK   13  A    between atoms: C_23  and  C_25
REMARK   14  A    between atoms: C_24  and  C_26
REMARK   15  A    between atoms: C_31  and  C_32
REMARK                            x       y       z     vdW  Elec       q    Type
REMARK                         _______ _______ _______ _____ _____    ______ ____
ROOT
ATOM      8  C   UNL     1      -4.606 -11.387   7.954  0.00  0.00    +0.000 C 
ATOM      9  C   UNL     1      -5.946 -10.630   7.770  0.00  0.00    +0.032 C 
ATOM     10  C   UNL     1      -4.392 -11.746   9.432  0.00  0.00    +0.012 C 
ATOM     11  C   UNL     1      -4.377 -10.500  10.337  0.00  0.00    +0.023 C 
ATOM     13  C   UNL     1      -5.529  -9.566  10.029  0.00  0.00    -0.073 C 
ATOM     14  C   UNL     1      -6.227  -9.648   8.882  0.00  0.00    -0.022 C 
ATOM     19  C   UNL     1      -5.890  -8.563  11.090  0.00  0.00    +0.039 C 
ENDROOT
BRANCH   8  12
ATOM     12  C   UNL     1      -4.547 -12.656   7.098  0.00  0.00    -0.013 C 
ATOM     17  C   UNL     1      -3.617 -12.452   5.906  0.00  0.00    +0.007 C 
ATOM     18  C   UNL     1      -4.095 -13.845   7.939  0.00  0.00    +0.007 C 
ENDBRANCH   8  12
BRANCH   9  15
ATOM     15  C   UNL     1      -5.990  -9.903   6.422  0.00  0.00    +0.112 C 
BRANCH  15   5
ATOM      2  O   UNL     1      -8.280  -9.352   4.741  0.00  0.00    -0.276 OA
ATOM      5  N   UNL     1      -6.857  -8.768   6.486  0.00  0.00    -0.315 N 
ATOM     21  C   UNL     1      -7.945  -8.578   5.633  0.00  0.00    +0.214 C 
ATOM     33  H   UNL     1      -6.704  -8.091   7.228  0.00  0.00    +0.149 HD
BRANCH  21  22
ATOM     22  C   UNL     1      -8.685  -7.286   5.931  0.00  0.00    +0.107 C 
BRANCH  22  24
ATOM     24  C   UNL     1      -9.145  -7.197   7.383  0.00  0.00    +0.129 C 
BRANCH  24  26
ATOM      4  O   UNL     1      -9.087  -5.086   8.592  0.00  0.00    -0.251 OA
ATOM     26  C   UNL     1      -8.497  -6.045   8.112  0.00  0.00    +0.305 C 
BRANCH  26   3
ATOM      3  O   UNL     1      -7.147  -6.194   8.178  0.00  0.00    -0.481 OA
ATOM     35  H   UNL     1      -6.871  -7.112   7.969  0.00  0.00    +0.295 HD
ENDBRANCH  26   3
ENDBRANCH  24  26
ENDBRANCH  22  24
ENDBRANCH  21  22
ENDBRANCH  15   5
ENDBRANCH   9  15
BRANCH  11  16
ATOM     16  C   UNL     1      -3.035  -9.766  10.246  0.00  0.00    +0.103 C 
BRANCH  16  20
ATOM      1  O   UNL     1      -1.041  -9.570  11.602  0.00  0.00    -0.276 OA
ATOM      6  N   UNL     1      -2.958 -10.514  12.514  0.00  0.00    -0.311 N 
ATOM     20  C   UNL     1      -2.213  -9.924  11.505  0.00  0.00    +0.214 C 
ATOM     34  H   UNL     1      -3.925 -10.770  12.339  0.00  0.00    +0.149 HD
BRANCH   6  23
ATOM     23  C   UNL     1      -2.426 -10.790  13.830  0.00  0.00    +0.139 C 
BRANCH  23  25
ATOM     25  C   UNL     1      -3.480 -10.688  14.895  0.00  0.00    -0.030 A 
ATOM     27  C   UNL     1      -4.789 -10.351  14.550  0.00  0.00    +0.006 A 
ATOM     28  C   UNL     1      -3.150 -10.933  16.228  0.00  0.00    +0.006 A 
ATOM     29  C   UNL     1      -5.768 -10.257  15.540  0.00  0.00    +0.019 A 
ATOM     30  C   UNL     1      -4.129 -10.839  17.217  0.00  0.00    +0.019 A 
ATOM     31  C   UNL     1      -5.438 -10.502  16.873  0.00  0.00    +0.052 A 
BRANCH  31  32
ATOM      7  N   UNL     1      -7.256 -10.327  18.708  0.00  0.00    -0.191 NA
ATOM     32  C   UNL     1      -6.441 -10.404  17.886  0.00  0.00    +0.099 C 
ENDBRANCH  31  32
ENDBRANCH  23  25
ENDBRANCH   6  23
ENDBRANCH  16  20
ENDBRANCH  11  16
TORSDOF 12
ENDMDL
MODEL 7
REMARK VINA RESULT:      -6.1     24.063     27.140
REMARK  Name = 38029432
REMARK  15 active torsions:
REMARK  status: ('A' for Active; 'I' for Inactive)
REMARK    1  A    between atoms: O_3  and  C_26
REMARK    2  A    between atoms: N_5  and  C_15
REMARK    3  A    between atoms: N_6  and  C_23
REMARK    4  A    between atoms: C_8  and  C_12
REMARK    5  A    between atoms: C_9  and  C_15
REMARK    6  A    between atoms: C_11  and  C_16
REMARK    7  A    between atoms: C_12  and  C_17
REMARK    8  A    between atoms: C_12  and  C_18
REMARK    9  A    between atoms: C_13  and  C_19
REMARK   10  A    between atoms: C_16  and  C_20
REMARK   11  A    between atoms: C_21  and  C_22
REMARK   12  A    between atoms: C_22  and  C_24
REMARK   13  A    between atoms: C_23  and  C_25
REMARK   14  A    between atoms: C_24  and  C_26
REMARK   15  A    between atoms: C_31  and  C_32
REMARK                            x       y       z     vdW  Elec       q    Type
REMARK                         _______ _______ _______ _____ _____    ______ ____
ROOT
ATOM      8  C   UNL     1       8.917   8.120   5.833  0.00  0.00    +0.000 C 
ATOM      9  C   UNL     1       8.706   8.059   7.367  0.00  0.00    +0.032 C 
ATOM     10  C   UNL     1       8.557   6.773   5.188  0.00  0.00    +0.012 C 
ATOM     11  C   UNL     1       9.400   5.614   5.753  0.00  0.00    +0.023 C 
ATOM     13  C   UNL     1       9.460   5.645   7.266  0.00  0.00    -0.073 C 
ATOM     14  C   UNL     1       9.132   6.743   7.971  0.00  0.00    -0.022 C 
ATOM     19  C   UNL     1       9.860   4.370   7.955  0.00  0.00    +0.039 C 
ENDROOT
BRANCH   8  12
ATOM     12  C   UNL     1       8.095   9.240   5.188  0.00  0.00    -0.013 C 
ATOM     17  C   UNL     1       8.974  10.454   4.910  0.00  0.00    +0.007 C 
ATOM     18  C   UNL     1       7.435   8.745   3.905  0.00  0.00    +0.007 C 
ENDBRANCH   8  12
BRANCH   9  15
ATOM     15  C   UNL     1       9.438   9.207   8.072  0.00  0.00    +0.112 C 
BRANCH  15   5
ATOM      2  O   UNL     1      11.115  11.555   7.862  0.00  0.00    -0.276 OA
ATOM      5  N   UNL     1      10.809   9.258   7.668  0.00  0.00    -0.315 N 
ATOM     21  C   UNL     1      11.549  10.438   7.593  0.00  0.00    +0.214 C 
ATOM     33  H   UNL     1      11.283   8.380   7.478  0.00  0.00    +0.149 HD
BRANCH  21  22
ATOM     22  C   UNL     1      12.974  10.190   7.133  0.00  0.00    +0.107 C 
BRANCH  22  24
ATOM     24  C   UNL     1      13.265   8.710   6.906  0.00  0.00    +0.129 C 
BRANCH  24  26
ATOM      4  O   UNL     1      15.014   7.467   5.757  0.00  0.00    -0.251 OA
ATOM     26  C   UNL     1      14.638   8.487   6.319  0.00  0.00    +0.305 C 
BRANCH  26   3
ATOM      3  O   UNL     1      15.433   9.577   6.486  0.00  0.00    -0.481 OA
ATOM     35  H   UNL     1      14.974  10.293   6.977  0.00  0.00    +0.295 HD
ENDBRANCH  26   3
ENDBRANCH  24  26
ENDBRANCH  22  24
ENDBRANCH  21  22
ENDBRANCH  15   5
ENDBRANCH   9  15
BRANCH  11  16
ATOM     16  C   UNL     1      10.809   5.609   5.148  0.00  0.00    +0.103 C 
BRANCH  16  20
ATOM      1  O   UNL     1      10.818   6.619   2.949  0.00  0.00    -0.276 OA
ATOM      6  N   UNL     1      10.702   4.306   3.147  0.00  0.00    -0.311 N 
ATOM     20  C   UNL     1      10.779   5.602   3.636  0.00  0.00    +0.214 C 
ATOM     34  H   UNL     1      10.677   3.526   3.796  0.00  0.00    +0.149 HD
BRANCH   6  23
ATOM     23  C   UNL     1      10.656   3.998   1.735  0.00  0.00    +0.139 C 
BRANCH  23  25
ATOM     25  C   UNL     1      12.019   4.037   1.107  0.00  0.00    -0.030 A 
ATOM     27  C   UNL     1      13.105   3.456   1.761  0.00  0.00    +0.006 A 
ATOM     28  C   UNL     1      12.198   4.653  -0.131  0.00  0.00    +0.006 A 
ATOM     29  C   UNL     1      14.371   3.492   1.178  0.00  0.00    +0.019 A 
ATOM     30  C   UNL     1      13.465   4.688  -0.716  0.00  0.00    +0.019 A 
ATOM     31  C   UNL     1      14.551   4.108  -0.062  0.00  0.00    +0.052 A 
BRANCH  31  32
ATOM      7  N   UNL     1      16.903   4.176  -1.142  0.00  0.00    -0.191 NA
ATOM     32  C   UNL     1      15.849   4.145  -0.658  0.00  0.00    +0.099 C 
ENDBRANCH  31  32
ENDBRANCH  23  25
ENDBRANCH   6  23
ENDBRANCH  16  20
ENDBRANCH  11  16
TORSDOF 12
ENDMDL
MODEL 8
REMARK VINA RESULT:      -5.9      2.564      8.830
REMARK  Name = 38029432
REMARK  15 active torsions:
REMARK  status: ('A' for Active; 'I' for Inactive)
REMARK    1  A    between atoms: O_3  and  C_26
REMARK    2  A    between atoms: N_5  and  C_15
REMARK    3  A    between atoms: N_6  and  C_23
REMARK    4  A    between atoms: C_8  and  C_12
REMARK    5  A    between atoms: C_9  and  C_15
REMARK    6  A    between atoms: C_11  and  C_16
REMARK    7  A    between atoms: C_12  and  C_17
REMARK    8  A    between atoms: C_12  and  C_18
REMARK    9  A    between atoms: C_13  and  C_19
REMARK   10  A    between atoms: C_16  and  C_20
REMARK   11  A    between atoms: C_21  and  C_22
REMARK   12  A    between atoms: C_22  and  C_24
REMARK   13  A    between atoms: C_23  and  C_25
REMARK   14  A    between atoms: C_24  and  C_26
REMARK   15  A    between atoms: C_31  and  C_32
REMARK                            x       y       z     vdW  Elec       q    Type
REMARK                         _______ _______ _______ _____ _____    ______ ____
ROOT
ATOM      8  C   UNL     1      -7.201 -10.380  15.979  0.00  0.00    +0.000 C 
ATOM      9  C   UNL     1      -6.177 -10.052  14.863  0.00  0.00    +0.032 C 
ATOM     10  C   UNL     1      -6.664  -9.933  17.347  0.00  0.00    +0.012 C 
ATOM     11  C   UNL     1      -5.326 -10.612  17.697  0.00  0.00    +0.023 C 
ATOM     13  C   UNL     1      -4.350 -10.564  16.539  0.00  0.00    -0.073 C 
ATOM     14  C   UNL     1      -4.747 -10.299  15.282  0.00  0.00    -0.022 C 
ATOM     19  C   UNL     1      -2.899 -10.783  16.868  0.00  0.00    +0.039 C 
ENDROOT
BRANCH   8  12
ATOM     12  C   UNL     1      -8.560  -9.723  15.715  0.00  0.00    -0.013 C 
ATOM     17  C   UNL     1      -9.670 -10.768  15.738  0.00  0.00    +0.007 C 
ATOM     18  C   UNL     1      -8.828  -8.626  16.740  0.00  0.00    +0.007 C 
ENDBRANCH   8  12
BRANCH   9  15
ATOM     15  C   UNL     1      -6.479 -10.843  13.585  0.00  0.00    +0.112 C 
BRANCH  15   5
ATOM      2  O   UNL     1      -6.264  -8.660  11.698  0.00  0.00    -0.276 OA
ATOM      5  N   UNL     1      -5.454 -10.641  12.610  0.00  0.00    -0.315 N 
ATOM     21  C   UNL     1      -5.424  -9.556  11.733  0.00  0.00    +0.214 C 
ATOM     33  H   UNL     1      -4.677 -11.295  12.591  0.00  0.00    +0.149 HD
BRANCH  21  22
ATOM     22  C   UNL     1      -4.221  -9.602  10.808  0.00  0.00    +0.107 C 
BRANCH  22  24
ATOM     24  C   UNL     1      -3.270 -10.746  11.144  0.00  0.00    +0.129 C 
BRANCH  24  26
ATOM      4  O   UNL     1      -1.155  -9.593  11.492  0.00  0.00    -0.251 OA
ATOM     26  C   UNL     1      -2.073 -10.272  11.933  0.00  0.00    +0.305 C 
BRANCH  26   3
ATOM      3  O   UNL     1      -2.130 -10.693  13.224  0.00  0.00    -0.481 OA
ATOM     35  H   UNL     1      -2.019 -11.665  13.297  0.00  0.00    +0.295 HD
ENDBRANCH  26   3
ENDBRANCH  24  26
ENDBRANCH  22  24
ENDBRANCH  21  22
ENDBRANCH  15   5
ENDBRANCH   9  15
BRANCH  11  16
ATOM     16  C   UNL     1      -5.545 -12.053  18.172  0.00  0.00    +0.103 C 
BRANCH  16  20
ATOM      1  O   UNL     1      -6.139 -11.493  20.450  0.00  0.00    -0.276 OA
ATOM      6  N   UNL     1      -7.475 -12.966  19.247  0.00  0.00    -0.311 N 
ATOM     20  C   UNL     1      -6.392 -12.117  19.423  0.00  0.00    +0.214 C 
ATOM     34  H   UNL     1      -7.603 -13.437  18.357  0.00  0.00    +0.149 HD
BRANCH   6  23
ATOM     23  C   UNL     1      -8.453 -13.221  20.280  0.00  0.00    +0.139 C 
BRANCH  23  25
ATOM     25  C   UNL     1      -9.700 -12.409  20.086  0.00  0.00    -0.030 A 
ATOM     27  C   UNL     1     -10.939 -12.933  20.457  0.00  0.00    +0.006 A 
ATOM     28  C   UNL     1      -9.621 -11.129  19.536  0.00  0.00    +0.006 A 
ATOM     29  C   UNL     1     -12.098 -12.178  20.277  0.00  0.00    +0.019 A 
ATOM     30  C   UNL     1     -10.780 -10.374  19.357  0.00  0.00    +0.019 A 
ATOM     31  C   UNL     1     -12.019 -10.898  19.727  0.00  0.00    +0.052 A 
BRANCH  31  32
ATOM      7  N   UNL     1     -14.171  -9.499  19.395  0.00  0.00    -0.191 NA
ATOM     32  C   UNL     1     -13.206 -10.126  19.543  0.00  0.00    +0.099 C 
ENDBRANCH  31  32
ENDBRANCH  23  25
ENDBRANCH   6  23
ENDBRANCH  16  20
ENDBRANCH  11  16
TORSDOF 12
ENDMDL
MODEL 9
REMARK VINA RESULT:      -5.9      1.632      3.172
REMARK  Name = 38029432
REMARK  15 active torsions:
REMARK  status: ('A' for Active; 'I' for Inactive)
REMARK    1  A    between atoms: O_3  and  C_26
REMARK    2  A    between atoms: N_5  and  C_15
REMARK    3  A    between atoms: N_6  and  C_23
REMARK    4  A    between atoms: C_8  and  C_12
REMARK    5  A    between atoms: C_9  and  C_15
REMARK    6  A    between atoms: C_11  and  C_16
REMARK    7  A    between atoms: C_12  and  C_17
REMARK    8  A    between atoms: C_12  and  C_18
REMARK    9  A    between atoms: C_13  and  C_19
REMARK   10  A    between atoms: C_16  and  C_20
REMARK   11  A    between atoms: C_21  and  C_22
REMARK   12  A    between atoms: C_22  and  C_24
REMARK   13  A    between atoms: C_23  and  C_25
REMARK   14  A    between atoms: C_24  and  C_26
REMARK   15  A    between atoms: C_31  and  C_32
REMARK                            x       y       z     vdW  Elec       q    Type
REMARK                         _______ _______ _______ _____ _____    ______ ____
ROOT
ATOM      8  C   UNL     1      -5.406 -11.769  17.766  0.00  0.00    +0.000 C 
ATOM      9  C   UNL     1      -6.878 -11.424  17.423  0.00  0.00    +0.032 C 
ATOM     10  C   UNL     1      -4.464 -10.670  17.253  0.00  0.00    +0.012 C 
ATOM     11  C   UNL     1      -4.577 -10.471  15.729  0.00  0.00    +0.023 C 
ATOM     13  C   UNL     1      -6.021 -10.389  15.277  0.00  0.00    -0.073 C 
ATOM     14  C   UNL     1      -7.037 -10.807  16.054  0.00  0.00    -0.022 C 
ATOM     19  C   UNL     1      -6.275  -9.773  13.929  0.00  0.00    +0.039 C 
ENDROOT
BRANCH   8  12
ATOM     12  C   UNL     1      -5.203 -11.965  19.271  0.00  0.00    -0.013 C 
ATOM     17  C   UNL     1      -3.721 -12.123  19.593  0.00  0.00    +0.007 C 
ATOM     18  C   UNL     1      -5.803 -10.795  20.046  0.00  0.00    +0.007 C 
ENDBRANCH   8  12
BRANCH   9  15
ATOM     15  C   UNL     1      -7.777 -12.660  17.535  0.00  0.00    +0.112 C 
BRANCH  15   5
ATOM      2  O   UNL     1      -9.792 -14.422  18.633  0.00  0.00    -0.276 OA
ATOM      5  N   UNL     1      -9.078 -12.300  18.004  0.00  0.00    -0.315 N 
ATOM     21  C   UNL     1      -9.995 -13.216  18.521  0.00  0.00    +0.214 C 
ATOM     33  H   UNL     1      -9.328 -11.315  18.009  0.00  0.00    +0.149 HD
BRANCH  21  22
ATOM     22  C   UNL     1     -11.294 -12.551  18.937  0.00  0.00    +0.107 C 
BRANCH  22  24
ATOM     24  C   UNL     1     -11.253 -11.034  18.771  0.00  0.00    +0.129 C 
BRANCH  24  26
ATOM      4  O   UNL     1     -12.112  -9.825  20.700  0.00  0.00    -0.251 OA
ATOM     26  C   UNL     1     -11.169 -10.323  20.100  0.00  0.00    +0.305 C 
BRANCH  26   3
ATOM      3  O   UNL     1      -9.894 -10.297  20.570  0.00  0.00    -0.481 OA
ATOM     35  H   UNL     1      -9.791 -10.846  21.378  0.00  0.00    +0.295 HD
ENDBRANCH  26   3
ENDBRANCH  24  26
ENDBRANCH  22  24
ENDBRANCH  21  22
ENDBRANCH  15   5
ENDBRANCH   9  15
BRANCH  11  16
ATOM     16  C   UNL     1      -3.826 -11.570  14.971  0.00  0.00    +0.103 C 
BRANCH  16  20
ATOM      1  O   UNL     1      -1.788 -10.430  14.334  0.00  0.00    -0.276 OA
ATOM      6  N   UNL     1      -3.224 -11.217  12.685  0.00  0.00    -0.311 N 
ATOM     20  C   UNL     1      -2.821 -11.002  13.994  0.00  0.00    +0.214 C 
ATOM     34  H   UNL     1      -4.096 -11.705  12.502  0.00  0.00    +0.149 HD
BRANCH   6  23
ATOM     23  C   UNL     1      -2.457 -10.778  11.541  0.00  0.00    +0.139 C 
BRANCH  23  25
ATOM     25  C   UNL     1      -3.329 -10.507  10.350  0.00  0.00    -0.030 A 
ATOM     27  C   UNL     1      -3.924 -11.567   9.665  0.00  0.00    +0.006 A 
ATOM     28  C   UNL     1      -3.547  -9.195   9.930  0.00  0.00    +0.006 A 
ATOM     29  C   UNL     1      -4.735 -11.314   8.558  0.00  0.00    +0.019 A 
ATOM     30  C   UNL     1      -4.359  -8.942   8.823  0.00  0.00    +0.019 A 
ATOM     31  C   UNL     1      -4.953 -10.002   8.138  0.00  0.00    +0.052 A 
BRANCH  31  32
ATOM      7  N   UNL     1      -6.457  -9.534   6.083  0.00  0.00    -0.191 NA
ATOM     32  C   UNL     1      -5.783  -9.744   7.004  0.00  0.00    +0.099 C 
ENDBRANCH  31  32
ENDBRANCH  23  25
ENDBRANCH   6  23
ENDBRANCH  16  20
ENDBRANCH  11  16
TORSDOF 12
ENDMDL
MODEL 10
REMARK VINA RESULT:      -5.9     19.283     21.923
REMARK  Name = 38029432
REMARK  15 active torsions:
REMARK  status: ('A' for Active; 'I' for Inactive)
REMARK    1  A    between atoms: O_3  and  C_26
REMARK    2  A    between atoms: N_5  and  C_15
REMARK    3  A    between atoms: N_6  and  C_23
REMARK    4  A    between atoms: C_8  and  C_12
REMARK    5  A    between atoms: C_9  and  C_15
REMARK    6  A    between atoms: C_11  and  C_16
REMARK    7  A    between atoms: C_12  and  C_17
REMARK    8  A    between atoms: C_12  and  C_18
REMARK    9  A    between atoms: C_13  and  C_19
REMARK   10  A    between atoms: C_16  and  C_20
REMARK   11  A    between atoms: C_21  and  C_22
REMARK   12  A    between atoms: C_22  and  C_24
REMARK   13  A    between atoms: C_23  and  C_25
REMARK   14  A    between atoms: C_24  and  C_26
REMARK   15  A    between atoms: C_31  and  C_32
REMARK                            x       y       z     vdW  Elec       q    Type
REMARK                         _______ _______ _______ _____ _____    ______ ____
ROOT
ATOM      8  C   UNL     1     -10.788  10.424  17.149  0.00  0.00    +0.000 C 
ATOM      9  C   UNL     1     -10.479   8.938  16.835  0.00  0.00    +0.032 C 
ATOM     10  C   UNL     1     -10.358  10.770  18.582  0.00  0.00    +0.012 C 
ATOM     11  C   UNL     1     -11.068   9.891  19.630  0.00  0.00    +0.023 C 
ATOM     13  C   UNL     1     -11.038   8.425  19.250  0.00  0.00    -0.073 C 
ATOM     14  C   UNL     1     -10.759   8.018  17.999  0.00  0.00    -0.022 C 
ATOM     19  C   UNL     1     -11.290   7.435  20.353  0.00  0.00    +0.039 C 
ENDROOT
BRANCH   8  12
ATOM     12  C   UNL     1     -10.100  11.370  16.159  0.00  0.00    -0.013 C 
ATOM     17  C   UNL     1     -11.133  12.053  15.269  0.00  0.00    +0.007 C 
ATOM     18  C   UNL     1      -9.261  12.403  16.905  0.00  0.00    +0.007 C 
ENDBRANCH   8  12
BRANCH   9  15
ATOM     15  C   UNL     1     -11.258   8.459  15.605  0.00  0.00    +0.112 C 
BRANCH  15   5
ATOM      2  O   UNL     1     -13.704   9.595  14.557  0.00  0.00    -0.276 OA
ATOM      5  N   UNL     1     -12.598   8.106  15.959  0.00  0.00    -0.315 N 
ATOM     21  C   UNL     1     -13.728   8.706  15.403  0.00  0.00    +0.214 C 
ATOM     33  H   UNL     1     -12.732   7.339  16.612  0.00  0.00    +0.149 HD
BRANCH  21  22
ATOM     22  C   UNL     1     -15.015   8.134  15.969  0.00  0.00    +0.107 C 
BRANCH  22  24
ATOM     24  C   UNL     1     -15.680   9.071  16.973  0.00  0.00    +0.129 C 
BRANCH  24  26
ATOM      4  O   UNL     1     -16.232   8.872  19.334  0.00  0.00    -0.251 OA
ATOM     26  C   UNL     1     -15.498   8.598  18.395  0.00  0.00    +0.305 C 
BRANCH  26   3
ATOM      3  O   UNL     1     -14.398   7.809  18.519  0.00  0.00    -0.481 OA
ATOM     35  H   UNL     1     -13.573   8.338  18.578  0.00  0.00    +0.295 HD
ENDBRANCH  26   3
ENDBRANCH  24  26
ENDBRANCH  22  24
ENDBRANCH  21  22
ENDBRANCH  15   5
ENDBRANCH   9  15
BRANCH  11  16
ATOM     16  C   UNL     1     -12.505  10.367  19.868  0.00  0.00    +0.103 C 
BRANCH  16  20
ATOM      1  O   UNL     1     -12.317  10.759  22.249  0.00  0.00    -0.276 OA
ATOM      6  N   UNL     1     -14.050   9.439  21.439  0.00  0.00    -0.311 N 
ATOM     20  C   UNL     1     -12.918  10.231  21.317  0.00  0.00    +0.214 C 
ATOM     34  H   UNL     1     -14.480   9.047  20.606  0.00  0.00    +0.149 HD
BRANCH   6  23
ATOM     23  C   UNL     1     -14.666   9.135  22.710  0.00  0.00    +0.139 C 
BRANCH  23  25
ATOM     25  C   UNL     1     -15.073   7.692  22.807  0.00  0.00    -0.030 A 
ATOM     27  C   UNL     1     -14.266   6.701  22.247  0.00  0.00    +0.006 A 
ATOM     28  C   UNL     1     -16.256   7.343  23.458  0.00  0.00    +0.006 A 
ATOM     29  C   UNL     1     -14.643   5.362  22.336  0.00  0.00    +0.019 A 
ATOM     30  C   UNL     1     -16.632   6.003  23.548  0.00  0.00    +0.019 A 
ATOM     31  C   UNL     1     -15.826   5.012  22.988  0.00  0.00    +0.052 A 
BRANCH  31  32
ATOM      7  N   UNL     1     -16.527   2.525  23.154  0.00  0.00    -0.191 NA
ATOM     32  C   UNL     1     -16.212   3.640  23.079  0.00  0.00    +0.099 C 
ENDBRANCH  31  32
ENDBRANCH  23  25
ENDBRANCH   6  23
ENDBRANCH  16  20
ENDBRANCH  11  16
TORSDOF 12
ENDMDL
