MODEL 1
REMARK VINA RESULT:      -6.6      0.000      0.000
REMARK  Name = 44716889
REMARK  16 active torsions:
REMARK  status: ('A' for Active; 'I' for Inactive)
REMARK    1  A    between atoms: O_1  and  C_15
REMARK    2  A    between atoms: O_1  and  C_24
REMARK    3  A    between atoms: O_2  and  C_16
REMARK    4  A    between atoms: O_3  and  C_20
REMARK    5  A    between atoms: O_6  and  C_30
REMARK    6  A    between atoms: O_6  and  C_35
REMARK    7  A    between atoms: N_7  and  C_25
REMARK    8  A    between atoms: N_8  and  C_26
REMARK    9  A    between atoms: C_9  and  C_19
REMARK   10  A    between atoms: C_11  and  C_20
REMARK   11  A    between atoms: C_11  and  C_21
REMARK   12  A    between atoms: C_12  and  C_22
REMARK   13  A    between atoms: C_22  and  C_23
REMARK   14  A    between atoms: C_25  and  C_27
REMARK   15  A    between atoms: C_26  and  C_28
REMARK   16  A    between atoms: C_26  and  C_29
REMARK                            x       y       z     vdW  Elec       q    Type
REMARK                         _______ _______ _______ _____ _____    ______ ____
ROOT
ATOM      9  C   UNL     1      14.222   8.933  19.628  0.00  0.00    -0.023 C 
ATOM     10  C   UNL     1      13.024   8.727  18.623  0.00  0.00    +0.007 C 
ATOM     11  C   UNL     1      13.240   9.239  17.148  0.00  0.00    +0.031 C 
ATOM     12  C   UNL     1      13.661   8.646  21.082  0.00  0.00    +0.032 C 
ATOM     13  C   UNL     1      14.687  10.411  19.542  0.00  0.00    +0.011 C 
ATOM     14  C   UNL     1      12.453   7.295  18.731  0.00  0.00    +0.007 C 
ATOM     15  C   UNL     1      13.782  10.700  17.196  0.00  0.00    +0.186 C 
ATOM     16  C   UNL     1      12.997   7.257  21.223  0.00  0.00    +0.119 C 
ATOM     17  C   UNL     1      14.979  10.884  18.122  0.00  0.00    +0.046 C 
ATOM     18  C   UNL     1      11.948   7.004  20.144  0.00  0.00    +0.032 C 
ATOM     19  C   UNL     1      15.444   8.029  19.329  0.00  0.00    +0.012 C 
ATOM     21  C   UNL     1      11.868   9.275  16.414  0.00  0.00    +0.017 C 
ENDROOT
BRANCH  16   2
ATOM      2  O   UNL     1      13.974   6.221  21.195  0.00  0.00    -0.391 OA
ATOM     36  H   UNL     1      14.849   6.636  21.276  0.00  0.00    +0.210 HD
ENDBRANCH  16   2
BRANCH  15   1
ATOM      1  O   UNL     1      14.176  11.163  15.905  0.00  0.00    -0.446 OA
BRANCH   1  24
ATOM      5  O   UNL     1      15.630  12.866  15.392  0.00  0.00    -0.226 OA
ATOM      8  N   UNL     1      13.537  13.282  16.303  0.00  0.00    -0.279 N 
ATOM     24  C   UNL     1      14.550  12.477  15.826  0.00  0.00    +0.401 C 
ATOM     39  H   UNL     1      12.673  12.832  16.589  0.00  0.00    +0.152 HD
BRANCH   8  26
ATOM     26  C   UNL     1      13.615  14.723  16.356  0.00  0.00    +0.070 C 
ATOM     28  C   UNL     1      12.959  15.340  15.127  0.00  0.00    +0.027 C 
ATOM     29  C   UNL     1      12.980  15.241  17.640  0.00  0.00    +0.027 C 
ENDBRANCH   8  26
ENDBRANCH   1  24
ENDBRANCH  15   1
BRANCH  11  20
ATOM     20  C   UNL     1      14.147   8.331  16.293  0.00  0.00    +0.166 C 
BRANCH  20   3
ATOM      3  O   UNL     1      13.779   8.499  14.942  0.00  0.00    -0.394 OA
ATOM     37  H   UNL     1      14.579   8.362  14.405  0.00  0.00    +0.209 HD
ENDBRANCH  20   3
ENDBRANCH  11  20
BRANCH  12  22
ATOM     22  C   UNL     1      14.674   8.858  22.219  0.00  0.00    +0.102 C 
BRANCH  22  23
ATOM      4  O   UNL     1      15.401  10.968  23.152  0.00  0.00    -0.276 OA
ATOM      7  N   UNL     1      13.147  10.403  23.210  0.00  0.00    -0.311 N 
ATOM     23  C   UNL     1      14.483  10.190  22.904  0.00  0.00    +0.214 C 
ATOM     38  H   UNL     1      12.463   9.683  22.995  0.00  0.00    +0.149 HD
BRANCH   7  25
ATOM     25  C   UNL     1      12.669  11.595  23.871  0.00  0.00    +0.143 C 
BRANCH  25  27
ATOM     27  C   UNL     1      11.947  12.512  22.925  0.00  0.00    +0.011 A 
ATOM     30  C   UNL     1      10.732  13.093  23.284  0.00  0.00    +0.125 A 
ATOM     31  C   UNL     1      12.506  12.778  21.675  0.00  0.00    +0.009 A 
ATOM     32  C   UNL     1      10.074  13.942  22.393  0.00  0.00    +0.046 A 
ATOM     33  C   UNL     1      11.847  13.627  20.784  0.00  0.00    +0.001 A 
ATOM     34  C   UNL     1      10.632  14.209  21.144  0.00  0.00    +0.004 A 
BRANCH  30   6
ATOM      6  O   UNL     1      10.172  12.843  24.501  0.00  0.00    -0.495 OA
ATOM     35  C   UNL     1      10.490  13.745  25.559  0.00  0.00    +0.277 C 
ENDBRANCH  30   6
ENDBRANCH  25  27
ENDBRANCH   7  25
ENDBRANCH  22  23
ENDBRANCH  12  22
TORSDOF 11
ENDMDL
MODEL 2
REMARK VINA RESULT:      -6.3     29.402     31.689
REMARK  Name = 44716889
REMARK  16 active torsions:
REMARK  status: ('A' for Active; 'I' for Inactive)
REMARK    1  A    between atoms: O_1  and  C_15
REMARK    2  A    between atoms: O_1  and  C_24
REMARK    3  A    between atoms: O_2  and  C_16
REMARK    4  A    between atoms: O_3  and  C_20
REMARK    5  A    between atoms: O_6  and  C_30
REMARK    6  A    between atoms: O_6  and  C_35
REMARK    7  A    between atoms: N_7  and  C_25
REMARK    8  A    between atoms: N_8  and  C_26
REMARK    9  A    between atoms: C_9  and  C_19
REMARK   10  A    between atoms: C_11  and  C_20
REMARK   11  A    between atoms: C_11  and  C_21
REMARK   12  A    between atoms: C_12  and  C_22
REMARK   13  A    between atoms: C_22  and  C_23
REMARK   14  A    between atoms: C_25  and  C_27
REMARK   15  A    between atoms: C_26  and  C_28
REMARK   16  A    between atoms: C_26  and  C_29
REMARK                            x       y       z     vdW  Elec       q    Type
REMARK                         _______ _______ _______ _____ _____    ______ ____
ROOT
ATOM      9  C   UNL     1     -16.164   3.287  29.646  0.00  0.00    -0.023 C 
ATOM     10  C   UNL     1     -15.101   2.678  30.639  0.00  0.00    +0.007 C 
ATOM     11  C   UNL     1     -14.934   3.401  32.030  0.00  0.00    +0.031 C 
ATOM     12  C   UNL     1     -15.922   2.608  28.235  0.00  0.00    +0.032 C 
ATOM     13  C   UNL     1     -15.909   4.813  29.529  0.00  0.00    +0.011 C 
ATOM     14  C   UNL     1     -15.243   1.142  30.724  0.00  0.00    +0.007 C 
ATOM     15  C   UNL     1     -14.767   4.932  31.784  0.00  0.00    +0.186 C 
ATOM     16  C   UNL     1     -15.965   1.063  28.279  0.00  0.00    +0.119 C 
ATOM     17  C   UNL     1     -15.832   5.530  30.872  0.00  0.00    +0.046 C 
ATOM     18  C   UNL     1     -15.049   0.489  29.356  0.00  0.00    +0.032 C 
ATOM     19  C   UNL     1     -17.629   3.081  30.104  0.00  0.00    +0.012 C 
ATOM     21  C   UNL     1     -13.632   2.894  32.715  0.00  0.00    +0.017 C 
ENDROOT
BRANCH  16   2
ATOM      2  O   UNL     1     -17.296   0.597  28.482  0.00  0.00    -0.391 OA
ATOM     36  H   UNL     1     -17.409  -0.212  27.956  0.00  0.00    +0.210 HD
ENDBRANCH  16   2
BRANCH  15   1
ATOM      1  O   UNL     1     -14.797   5.672  33.005  0.00  0.00    -0.446 OA
BRANCH   1  24
ATOM      5  O   UNL     1     -12.926   6.834  32.352  0.00  0.00    -0.226 OA
ATOM      8  N   UNL     1     -13.812   7.049  34.485  0.00  0.00    -0.279 N 
ATOM     24  C   UNL     1     -13.764   6.547  33.202  0.00  0.00    +0.401 C 
ATOM     39  H   UNL     1     -14.589   6.763  35.074  0.00  0.00    +0.152 HD
BRANCH   8  26
ATOM     26  C   UNL     1     -12.862   8.000  35.012  0.00  0.00    +0.070 C 
ATOM     28  C   UNL     1     -13.440   9.409  34.977  0.00  0.00    +0.027 C 
ATOM     29  C   UNL     1     -12.446   7.608  36.423  0.00  0.00    +0.027 C 
ENDBRANCH   8  26
ENDBRANCH   1  24
ENDBRANCH  15   1
BRANCH  11  20
ATOM     20  C   UNL     1     -16.072   3.113  33.030  0.00  0.00    +0.166 C 
BRANCH  20   3
ATOM      3  O   UNL     1     -15.588   2.194  33.985  0.00  0.00    -0.394 OA
ATOM     37  H   UNL     1     -16.263   2.117  34.680  0.00  0.00    +0.209 HD
ENDBRANCH  20   3
ENDBRANCH  11  20
BRANCH  12  22
ATOM     22  C   UNL     1     -16.829   3.122  27.105  0.00  0.00    +0.102 C 
BRANCH  22  23
ATOM      4  O   UNL     1     -16.187   1.901  25.118  0.00  0.00    -0.276 OA
ATOM      7  N   UNL     1     -15.614   4.144  25.322  0.00  0.00    -0.311 N 
ATOM     23  C   UNL     1     -16.190   2.956  25.747  0.00  0.00    +0.214 C 
ATOM     38  H   UNL     1     -15.638   4.958  25.930  0.00  0.00    +0.149 HD
BRANCH   7  25
ATOM     25  C   UNL     1     -14.927   4.282  24.059  0.00  0.00    +0.143 C 
BRANCH  25  27
ATOM     27  C   UNL     1     -15.672   5.175  23.108  0.00  0.00    +0.011 A 
ATOM     30  C   UNL     1     -16.673   4.661  22.285  0.00  0.00    +0.125 A 
ATOM     31  C   UNL     1     -15.352   6.531  23.054  0.00  0.00    +0.009 A 
ATOM     32  C   UNL     1     -17.355   5.504  21.407  0.00  0.00    +0.046 A 
ATOM     33  C   UNL     1     -16.034   7.374  22.176  0.00  0.00    +0.001 A 
ATOM     34  C   UNL     1     -17.035   6.860  21.353  0.00  0.00    +0.004 A 
BRANCH  30   6
ATOM      6  O   UNL     1     -16.998   3.338  22.324  0.00  0.00    -0.495 OA
ATOM     35  C   UNL     1     -18.383   3.009  22.238  0.00  0.00    +0.277 C 
ENDBRANCH  30   6
ENDBRANCH  25  27
ENDBRANCH   7  25
ENDBRANCH  22  23
ENDBRANCH  12  22
TORSDOF 11
ENDMDL
MODEL 3
REMARK VINA RESULT:      -6.3      3.382      7.571
REMARK  Name = 44716889
REMARK  16 active torsions:
REMARK  status: ('A' for Active; 'I' for Inactive)
REMARK    1  A    between atoms: O_1  and  C_15
REMARK    2  A    between atoms: O_1  and  C_24
REMARK    3  A    between atoms: O_2  and  C_16
REMARK    4  A    between atoms: O_3  and  C_20
REMARK    5  A    between atoms: O_6  and  C_30
REMARK    6  A    between atoms: O_6  and  C_35
REMARK    7  A    between atoms: N_7  and  C_25
REMARK    8  A    between atoms: N_8  and  C_26
REMARK    9  A    between atoms: C_9  and  C_19
REMARK   10  A    between atoms: C_11  and  C_20
REMARK   11  A    between atoms: C_11  and  C_21
REMARK   12  A    between atoms: C_12  and  C_22
REMARK   13  A    between atoms: C_22  and  C_23
REMARK   14  A    between atoms: C_25  and  C_27
REMARK   15  A    between atoms: C_26  and  C_28
REMARK   16  A    between atoms: C_26  and  C_29
REMARK                            x       y       z     vdW  Elec       q    Type
REMARK                         _______ _______ _______ _____ _____    ______ ____
ROOT
ATOM      9  C   UNL     1      13.429   9.464  20.550  0.00  0.00    -0.023 C 
ATOM     10  C   UNL     1      12.293   9.382  21.642  0.00  0.00    +0.007 C 
ATOM     11  C   UNL     1      12.009  10.694  22.468  0.00  0.00    +0.031 C 
ATOM     12  C   UNL     1      13.743   7.978  20.096  0.00  0.00    +0.032 C 
ATOM     13  C   UNL     1      14.696  10.077  21.204  0.00  0.00    +0.011 C 
ATOM     14  C   UNL     1      11.033   8.690  21.076  0.00  0.00    +0.007 C 
ATOM     15  C   UNL     1      13.361  11.256  23.002  0.00  0.00    +0.186 C 
ATOM     16  C   UNL     1      12.496   7.209  19.603  0.00  0.00    +0.119 C 
ATOM     17  C   UNL     1      14.438  11.392  21.932  0.00  0.00    +0.046 C 
ATOM     18  C   UNL     1      11.345   7.271  20.601  0.00  0.00    +0.032 C 
ATOM     19  C   UNL     1      13.051  10.337  19.328  0.00  0.00    +0.012 C 
ATOM     21  C   UNL     1      11.132  10.338  23.704  0.00  0.00    +0.017 C 
ENDROOT
BRANCH  16   2
ATOM      2  O   UNL     1      12.063   7.700  18.338  0.00  0.00    -0.391 OA
ATOM     36  H   UNL     1      12.649   8.434  18.088  0.00  0.00    +0.210 HD
ENDBRANCH  16   2
BRANCH  15   1
ATOM      1  O   UNL     1      13.202  12.542  23.602  0.00  0.00    -0.446 OA
BRANCH   1  24
ATOM      5  O   UNL     1      13.341  11.986  25.826  0.00  0.00    -0.226 OA
ATOM      8  N   UNL     1      14.621  13.692  24.914  0.00  0.00    -0.279 N 
ATOM     24  C   UNL     1      13.690  12.676  24.873  0.00  0.00    +0.401 C 
ATOM     39  H   UNL     1      14.852  14.154  24.039  0.00  0.00    +0.152 HD
BRANCH   8  26
ATOM     26  C   UNL     1      15.326  14.089  26.110  0.00  0.00    +0.070 C 
ATOM     28  C   UNL     1      16.753  14.503  25.778  0.00  0.00    +0.027 C 
ATOM     29  C   UNL     1      14.576  15.208  26.820  0.00  0.00    +0.027 C 
ENDBRANCH   8  26
ENDBRANCH   1  24
ENDBRANCH  15   1
BRANCH  11  20
ATOM     20  C   UNL     1      11.221  11.768  21.692  0.00  0.00    +0.166 C 
BRANCH  20   3
ATOM      3  O   UNL     1      10.432  12.482  22.619  0.00  0.00    -0.394 OA
ATOM     37  H   UNL     1      10.339  11.924  23.411  0.00  0.00    +0.209 HD
ENDBRANCH  20   3
ENDBRANCH  11  20
BRANCH  12  22
ATOM     22  C   UNL     1      14.880   7.843  19.070  0.00  0.00    +0.102 C 
BRANCH  22  23
ATOM      4  O   UNL     1      16.255   5.865  18.847  0.00  0.00    -0.276 OA
ATOM      7  N   UNL     1      16.438   7.182  20.753  0.00  0.00    -0.311 N 
ATOM     23  C   UNL     1      15.922   6.843  19.511  0.00  0.00    +0.214 C 
ATOM     38  H   UNL     1      16.074   7.995  21.242  0.00  0.00    +0.149 HD
BRANCH   7  25
ATOM     25  C   UNL     1      17.453   6.404  21.426  0.00  0.00    +0.143 C 
BRANCH  25  27
ATOM     27  C   UNL     1      18.827   6.971  21.217  0.00  0.00    +0.011 A 
ATOM     30  C   UNL     1      19.104   8.301  21.528  0.00  0.00    +0.125 A 
ATOM     31  C   UNL     1      19.833   6.151  20.705  0.00  0.00    +0.009 A 
ATOM     32  C   UNL     1      20.386   8.814  21.328  0.00  0.00    +0.046 A 
ATOM     33  C   UNL     1      21.115   6.663  20.504  0.00  0.00    +0.001 A 
ATOM     34  C   UNL     1      21.391   7.994  20.816  0.00  0.00    +0.004 A 
BRANCH  30   6
ATOM      6  O   UNL     1      18.133   9.117  22.029  0.00  0.00    -0.495 OA
ATOM     35  C   UNL     1      18.352  10.523  21.927  0.00  0.00    +0.277 C 
ENDBRANCH  30   6
ENDBRANCH  25  27
ENDBRANCH   7  25
ENDBRANCH  22  23
ENDBRANCH  12  22
TORSDOF 11
ENDMDL
MODEL 4
REMARK VINA RESULT:      -6.2      1.930      2.932
REMARK  Name = 44716889
REMARK  16 active torsions:
REMARK  status: ('A' for Active; 'I' for Inactive)
REMARK    1  A    between atoms: O_1  and  C_15
REMARK    2  A    between atoms: O_1  and  C_24
REMARK    3  A    between atoms: O_2  and  C_16
REMARK    4  A    between atoms: O_3  and  C_20
REMARK    5  A    between atoms: O_6  and  C_30
REMARK    6  A    between atoms: O_6  and  C_35
REMARK    7  A    between atoms: N_7  and  C_25
REMARK    8  A    between atoms: N_8  and  C_26
REMARK    9  A    between atoms: C_9  and  C_19
REMARK   10  A    between atoms: C_11  and  C_20
REMARK   11  A    between atoms: C_11  and  C_21
REMARK   12  A    between atoms: C_12  and  C_22
REMARK   13  A    between atoms: C_22  and  C_23
REMARK   14  A    between atoms: C_25  and  C_27
REMARK   15  A    between atoms: C_26  and  C_28
REMARK   16  A    between atoms: C_26  and  C_29
REMARK                            x       y       z     vdW  Elec       q    Type
REMARK                         _______ _______ _______ _____ _____    ______ ____
ROOT
ATOM      9  C   UNL     1      13.314  10.256  19.192  0.00  0.00    -0.023 C 
ATOM     10  C   UNL     1      12.442   9.654  18.023  0.00  0.00    +0.007 C 
ATOM     11  C   UNL     1      13.091   9.646  16.587  0.00  0.00    +0.031 C 
ATOM     12  C   UNL     1      12.351  10.448  20.436  0.00  0.00    +0.032 C 
ATOM     13  C   UNL     1      13.849  11.641  18.741  0.00  0.00    +0.011 C 
ATOM     14  C   UNL     1      11.801   8.314  18.448  0.00  0.00    +0.007 C 
ATOM     15  C   UNL     1      13.662  11.065  16.284  0.00  0.00    +0.186 C 
ATOM     16  C   UNL     1      11.613   9.154  20.849  0.00  0.00    +0.119 C 
ATOM     17  C   UNL     1      14.553  11.620  17.389  0.00  0.00    +0.046 C 
ATOM     18  C   UNL     1      10.903   8.491  19.672  0.00  0.00    +0.032 C 
ATOM     19  C   UNL     1      14.528   9.376  19.576  0.00  0.00    +0.012 C 
ATOM     21  C   UNL     1      11.987   9.353  15.530  0.00  0.00    +0.017 C 
ENDROOT
BRANCH  16   2
ATOM      2  O   UNL     1      12.510   8.227  21.453  0.00  0.00    -0.391 OA
ATOM     36  H   UNL     1      12.189   8.046  22.352  0.00  0.00    +0.210 HD
ENDBRANCH  16   2
BRANCH  15   1
ATOM      1  O   UNL     1      14.427  11.084  15.079  0.00  0.00    -0.446 OA
BRANCH   1  24
ATOM      5  O   UNL     1      15.276  12.823  13.842  0.00  0.00    -0.226 OA
ATOM      8  N   UNL     1      12.995  12.562  14.173  0.00  0.00    -0.279 N 
ATOM     24  C   UNL     1      14.321  12.217  14.318  0.00  0.00    +0.401 C 
ATOM     39  H   UNL     1      12.299  11.945  14.582  0.00  0.00    +0.152 HD
BRANCH   8  26
ATOM     26  C   UNL     1      12.541  13.711  13.425  0.00  0.00    +0.070 C 
ATOM     28  C   UNL     1      11.201  13.422  12.761  0.00  0.00    +0.027 C 
ATOM     29  C   UNL     1      12.458  14.934  14.328  0.00  0.00    +0.027 C 
ENDBRANCH   8  26
ENDBRANCH   1  24
ENDBRANCH  15   1
BRANCH  11  20
ATOM     20  C   UNL     1      14.162   8.555  16.385  0.00  0.00    +0.166 C 
BRANCH  20   3
ATOM      3  O   UNL     1      14.235   8.268  15.006  0.00  0.00    -0.394 OA
ATOM     37  H   UNL     1      13.347   8.405  14.634  0.00  0.00    +0.209 HD
ENDBRANCH  20   3
ENDBRANCH  11  20
BRANCH  12  22
ATOM     22  C   UNL     1      13.007  11.090  21.669  0.00  0.00    +0.102 C 
BRANCH  22  23
ATOM      4  O   UNL     1      11.160  12.513  22.313  0.00  0.00    -0.276 OA
ATOM      7  N   UNL     1      12.107  11.082  23.880  0.00  0.00    -0.311 N 
ATOM     23  C   UNL     1      11.983  11.656  22.623  0.00  0.00    +0.214 C 
ATOM     38  H   UNL     1      12.843  10.403  24.050  0.00  0.00    +0.149 HD
BRANCH   7  25
ATOM     25  C   UNL     1      11.259  11.433  24.996  0.00  0.00    +0.143 C 
BRANCH  25  27
ATOM     27  C   UNL     1      11.637  12.758  25.593  0.00  0.00    +0.011 A 
ATOM     30  C   UNL     1      12.921  12.974  26.091  0.00  0.00    +0.125 A 
ATOM     31  C   UNL     1      10.686  13.777  25.648  0.00  0.00    +0.009 A 
ATOM     32  C   UNL     1      13.255  14.211  26.644  0.00  0.00    +0.046 A 
ATOM     33  C   UNL     1      11.021  15.014  26.201  0.00  0.00    +0.001 A 
ATOM     34  C   UNL     1      12.306  15.231  26.698  0.00  0.00    +0.004 A 
BRANCH  30   6
ATOM      6  O   UNL     1      13.861  11.989  26.047  0.00  0.00    -0.495 OA
ATOM     35  C   UNL     1      14.984  12.126  26.917  0.00  0.00    +0.277 C 
ENDBRANCH  30   6
ENDBRANCH  25  27
ENDBRANCH   7  25
ENDBRANCH  22  23
ENDBRANCH  12  22
TORSDOF 11
ENDMDL
MODEL 5
REMARK VINA RESULT:      -6.2     27.143     30.053
REMARK  Name = 44716889
REMARK  16 active torsions:
REMARK  status: ('A' for Active; 'I' for Inactive)
REMARK    1  A    between atoms: O_1  and  C_15
REMARK    2  A    between atoms: O_1  and  C_24
REMARK    3  A    between atoms: O_2  and  C_16
REMARK    4  A    between atoms: O_3  and  C_20
REMARK    5  A    between atoms: O_6  and  C_30
REMARK    6  A    between atoms: O_6  and  C_35
REMARK    7  A    between atoms: N_7  and  C_25
REMARK    8  A    between atoms: N_8  and  C_26
REMARK    9  A    between atoms: C_9  and  C_19
REMARK   10  A    between atoms: C_11  and  C_20
REMARK   11  A    between atoms: C_11  and  C_21
REMARK   12  A    between atoms: C_12  and  C_22
REMARK   13  A    between atoms: C_22  and  C_23
REMARK   14  A    between atoms: C_25  and  C_27
REMARK   15  A    between atoms: C_26  and  C_28
REMARK   16  A    between atoms: C_26  and  C_29
REMARK                            x       y       z     vdW  Elec       q    Type
REMARK                         _______ _______ _______ _____ _____    ______ ____
ROOT
ATOM      9  C   UNL     1      -7.113 -10.569  17.319  0.00  0.00    -0.023 C 
ATOM     10  C   UNL     1      -6.513 -12.027  17.353  0.00  0.00    +0.007 C 
ATOM     11  C   UNL     1      -4.968 -12.151  17.641  0.00  0.00    +0.031 C 
ATOM     12  C   UNL     1      -8.571 -10.683  16.707  0.00  0.00    +0.032 C 
ATOM     13  C   UNL     1      -6.233  -9.697  16.384  0.00  0.00    +0.011 C 
ATOM     14  C   UNL     1      -7.402 -12.970  18.194  0.00  0.00    +0.007 C 
ATOM     15  C   UNL     1      -4.201 -11.173  16.699  0.00  0.00    +0.186 C 
ATOM     16  C   UNL     1      -9.478 -11.683  17.459  0.00  0.00    +0.119 C 
ATOM     17  C   UNL     1      -4.745  -9.749  16.714  0.00  0.00    +0.046 C 
ATOM     18  C   UNL     1      -8.819 -13.049  17.628  0.00  0.00    +0.032 C 
ATOM     19  C   UNL     1      -7.159  -9.885  18.708  0.00  0.00    +0.012 C 
ATOM     21  C   UNL     1      -4.499 -13.594  17.294  0.00  0.00    +0.017 C 
ENDROOT
BRANCH  16   2
ATOM      2  O   UNL     1      -9.853 -11.170  18.734  0.00  0.00    -0.391 OA
ATOM     36  H   UNL     1      -9.216 -10.477  18.974  0.00  0.00    +0.210 HD
ENDBRANCH  16   2
BRANCH  15   1
ATOM      1  O   UNL     1      -2.814 -11.095  17.031  0.00  0.00    -0.446 OA
BRANCH   1  24
ATOM      5  O   UNL     1      -1.028 -10.240  15.868  0.00  0.00    -0.226 OA
ATOM      8  N   UNL     1      -2.261 -12.032  15.063  0.00  0.00    -0.279 N 
ATOM     24  C   UNL     1      -1.946 -11.047  15.974  0.00  0.00    +0.401 C 
ATOM     39  H   UNL     1      -3.020 -12.665  15.297  0.00  0.00    +0.152 HD
BRANCH   8  26
ATOM     26  C   UNL     1      -1.535 -12.252  13.834  0.00  0.00    +0.070 C 
ATOM     28  C   UNL     1      -1.457 -13.740  13.517  0.00  0.00    +0.027 C 
ATOM     29  C   UNL     1      -2.179 -11.476  12.692  0.00  0.00    +0.027 C 
ENDBRANCH   8  26
ENDBRANCH   1  24
ENDBRANCH  15   1
BRANCH  11  20
ATOM     20  C   UNL     1      -4.582 -11.929  19.116  0.00  0.00    +0.166 C 
BRANCH  20   3
ATOM      3  O   UNL     1      -3.333 -12.547  19.336  0.00  0.00    -0.394 OA
ATOM     37  H   UNL     1      -3.282 -12.769  20.282  0.00  0.00    +0.209 HD
ENDBRANCH  20   3
ENDBRANCH  11  20
BRANCH  12  22
ATOM     22  C   UNL     1      -9.305  -9.343  16.531  0.00  0.00    +0.102 C 
BRANCH  22  23
ATOM      4  O   UNL     1     -10.407  -8.183  14.717  0.00  0.00    -0.276 OA
ATOM      7  N   UNL     1      -8.970  -9.948  14.246  0.00  0.00    -0.311 N 
ATOM     23  C   UNL     1      -9.640  -9.069  15.084  0.00  0.00    +0.214 C 
ATOM     38  H   UNL     1      -8.381 -10.672  14.647  0.00  0.00    +0.149 HD
BRANCH   7  25
ATOM     25  C   UNL     1      -9.101  -9.922  12.807  0.00  0.00    +0.143 C 
BRANCH  25  27
ATOM     27  C   UNL     1      -7.794  -9.627  12.129  0.00  0.00    +0.011 A 
ATOM     30  C   UNL     1      -7.762  -9.172  10.812  0.00  0.00    +0.125 A 
ATOM     31  C   UNL     1      -6.604  -9.815  12.832  0.00  0.00    +0.009 A 
ATOM     32  C   UNL     1      -6.539  -8.904  10.195  0.00  0.00    +0.046 A 
ATOM     33  C   UNL     1      -5.381  -9.547  12.215  0.00  0.00    +0.001 A 
ATOM     34  C   UNL     1      -5.349  -9.091  10.898  0.00  0.00    +0.004 A 
BRANCH  30   6
ATOM      6  O   UNL     1      -8.916  -8.984  10.110  0.00  0.00    -0.495 OA
ATOM     35  C   UNL     1      -8.955  -7.876   9.214  0.00  0.00    +0.277 C 
ENDBRANCH  30   6
ENDBRANCH  25  27
ENDBRANCH   7  25
ENDBRANCH  22  23
ENDBRANCH  12  22
TORSDOF 11
ENDMDL
MODEL 6
REMARK VINA RESULT:      -6.2     27.672     31.172
REMARK  Name = 44716889
REMARK  16 active torsions:
REMARK  status: ('A' for Active; 'I' for Inactive)
REMARK    1  A    between atoms: O_1  and  C_15
REMARK    2  A    between atoms: O_1  and  C_24
REMARK    3  A    between atoms: O_2  and  C_16
REMARK    4  A    between atoms: O_3  and  C_20
REMARK    5  A    between atoms: O_6  and  C_30
REMARK    6  A    between atoms: O_6  and  C_35
REMARK    7  A    between atoms: N_7  and  C_25
REMARK    8  A    between atoms: N_8  and  C_26
REMARK    9  A    between atoms: C_9  and  C_19
REMARK   10  A    between atoms: C_11  and  C_20
REMARK   11  A    between atoms: C_11  and  C_21
REMARK   12  A    between atoms: C_12  and  C_22
REMARK   13  A    between atoms: C_22  and  C_23
REMARK   14  A    between atoms: C_25  and  C_27
REMARK   15  A    between atoms: C_26  and  C_28
REMARK   16  A    between atoms: C_26  and  C_29
REMARK                            x       y       z     vdW  Elec       q    Type
REMARK                         _______ _______ _______ _____ _____    ______ ____
ROOT
ATOM      9  C   UNL     1     -16.389   3.622  29.499  0.00  0.00    -0.023 C 
ATOM     10  C   UNL     1     -15.276   3.306  30.571  0.00  0.00    +0.007 C 
ATOM     11  C   UNL     1     -15.275   4.194  31.874  0.00  0.00    +0.031 C 
ATOM     12  C   UNL     1     -15.993   2.842  28.178  0.00  0.00    +0.032 C 
ATOM     13  C   UNL     1     -16.379   5.148  29.215  0.00  0.00    +0.011 C 
ATOM     14  C   UNL     1     -15.172   1.786  30.827  0.00  0.00    +0.007 C 
ATOM     15  C   UNL     1     -15.348   5.696  31.460  0.00  0.00    +0.186 C 
ATOM     16  C   UNL     1     -15.789   1.325  28.396  0.00  0.00    +0.119 C 
ATOM     17  C   UNL     1     -16.463   6.009  30.470  0.00  0.00    +0.046 C 
ATOM     18  C   UNL     1     -14.830   1.030  29.545  0.00  0.00    +0.032 C 
ATOM     19  C   UNL     1     -17.817   3.230  29.954  0.00  0.00    +0.012 C 
ATOM     21  C   UNL     1     -13.932   3.985  32.633  0.00  0.00    +0.017 C 
ENDROOT
BRANCH  16   2
ATOM      2  O   UNL     1     -17.034   0.673  28.629  0.00  0.00    -0.391 OA
ATOM     36  H   UNL     1     -17.224   0.729  29.580  0.00  0.00    +0.210 HD
ENDBRANCH  16   2
BRANCH  15   1
ATOM      1  O   UNL     1     -15.537   6.549  32.589  0.00  0.00    -0.446 OA
BRANCH   1  24
ATOM      5  O   UNL     1     -15.528   8.815  32.213  0.00  0.00    -0.226 OA
ATOM      8  N   UNL     1     -13.606   7.675  32.837  0.00  0.00    -0.279 N 
ATOM     24  C   UNL     1     -14.943   7.780  32.518  0.00  0.00    +0.401 C 
ATOM     39  H   UNL     1     -13.259   6.762  33.117  0.00  0.00    +0.152 HD
BRANCH   8  26
ATOM     26  C   UNL     1     -12.695   8.795  32.857  0.00  0.00    +0.070 C 
ATOM     28  C   UNL     1     -12.167   9.030  34.266  0.00  0.00    +0.027 C 
ATOM     29  C   UNL     1     -11.557   8.569  31.871  0.00  0.00    +0.027 C 
ENDBRANCH   8  26
ENDBRANCH   1  24
ENDBRANCH  15   1
BRANCH  11  20
ATOM     20  C   UNL     1     -16.385   3.835  32.882  0.00  0.00    +0.166 C 
BRANCH  20   3
ATOM      3  O   UNL     1     -15.905   4.124  34.177  0.00  0.00    -0.394 OA
ATOM     37  H   UNL     1     -15.028   3.713  34.260  0.00  0.00    +0.209 HD
ENDBRANCH  20   3
ENDBRANCH  11  20
BRANCH  12  22
ATOM     22  C   UNL     1     -16.933   3.075  26.983  0.00  0.00    +0.102 C 
BRANCH  22  23
ATOM      4  O   UNL     1     -16.108   1.886  25.044  0.00  0.00    -0.276 OA
ATOM      7  N   UNL     1     -15.689   4.162  25.259  0.00  0.00    -0.311 N 
ATOM     23  C   UNL     1     -16.211   2.942  25.663  0.00  0.00    +0.214 C 
ATOM     38  H   UNL     1     -15.797   4.976  25.857  0.00  0.00    +0.149 HD
BRANCH   7  25
ATOM     25  C   UNL     1     -14.944   4.335  24.033  0.00  0.00    +0.143 C 
BRANCH  25  27
ATOM     27  C   UNL     1     -15.256   5.644  23.366  0.00  0.00    +0.011 A 
ATOM     30  C   UNL     1     -14.382   6.191  22.428  0.00  0.00    +0.125 A 
ATOM     31  C   UNL     1     -16.435   6.313  23.695  0.00  0.00    +0.009 A 
ATOM     32  C   UNL     1     -14.686   7.409  21.818  0.00  0.00    +0.046 A 
ATOM     33  C   UNL     1     -16.740   7.530  23.085  0.00  0.00    +0.001 A 
ATOM     34  C   UNL     1     -15.865   8.078  22.147  0.00  0.00    +0.004 A 
BRANCH  30   6
ATOM      6  O   UNL     1     -13.225   5.552  22.096  0.00  0.00    -0.495 OA
ATOM     35  C   UNL     1     -12.331   6.242  21.225  0.00  0.00    +0.277 C 
ENDBRANCH  30   6
ENDBRANCH  25  27
ENDBRANCH   7  25
ENDBRANCH  22  23
ENDBRANCH  12  22
TORSDOF 11
ENDMDL
MODEL 7
REMARK VINA RESULT:      -6.1     27.033     30.136
REMARK  Name = 44716889
REMARK  16 active torsions:
REMARK  status: ('A' for Active; 'I' for Inactive)
REMARK    1  A    between atoms: O_1  and  C_15
REMARK    2  A    between atoms: O_1  and  C_24
REMARK    3  A    between atoms: O_2  and  C_16
REMARK    4  A    between atoms: O_3  and  C_20
REMARK    5  A    between atoms: O_6  and  C_30
REMARK    6  A    between atoms: O_6  and  C_35
REMARK    7  A    between atoms: N_7  and  C_25
REMARK    8  A    between atoms: N_8  and  C_26
REMARK    9  A    between atoms: C_9  and  C_19
REMARK   10  A    between atoms: C_11  and  C_20
REMARK   11  A    between atoms: C_11  and  C_21
REMARK   12  A    between atoms: C_12  and  C_22
REMARK   13  A    between atoms: C_22  and  C_23
REMARK   14  A    between atoms: C_25  and  C_27
REMARK   15  A    between atoms: C_26  and  C_28
REMARK   16  A    between atoms: C_26  and  C_29
REMARK                            x       y       z     vdW  Elec       q    Type
REMARK                         _______ _______ _______ _____ _____    ______ ____
ROOT
ATOM      9  C   UNL     1      -4.526 -11.614  14.721  0.00  0.00    -0.023 C 
ATOM     10  C   UNL     1      -4.389 -10.999  16.168  0.00  0.00    +0.007 C 
ATOM     11  C   UNL     1      -5.499 -11.396  17.214  0.00  0.00    +0.031 C 
ATOM     12  C   UNL     1      -3.510 -10.833  13.789  0.00  0.00    +0.032 C 
ATOM     13  C   UNL     1      -5.974 -11.368  14.219  0.00  0.00    +0.011 C 
ATOM     14  C   UNL     1      -2.939 -11.128  16.686  0.00  0.00    +0.007 C 
ATOM     15  C   UNL     1      -6.901 -11.182  16.566  0.00  0.00    +0.186 C 
ATOM     16  C   UNL     1      -2.055 -10.854  14.310  0.00  0.00    +0.119 C 
ATOM     17  C   UNL     1      -7.051 -11.829  15.194  0.00  0.00    +0.046 C 
ATOM     18  C   UNL     1      -1.954 -10.409  15.766  0.00  0.00    +0.032 C 
ATOM     19  C   UNL     1      -4.253 -13.137  14.667  0.00  0.00    +0.012 C 
ATOM     21  C   UNL     1      -5.405 -10.445  18.443  0.00  0.00    +0.017 C 
ENDROOT
BRANCH  16   2
ATOM      2  O   UNL     1      -1.481 -12.150  14.163  0.00  0.00    -0.391 OA
ATOM     36  H   UNL     1      -0.851 -12.113  13.424  0.00  0.00    +0.210 HD
ENDBRANCH  16   2
BRANCH  15   1
ATOM      1  O   UNL     1      -7.950 -11.695  17.388  0.00  0.00    -0.446 OA
BRANCH   1  24
ATOM      5  O   UNL     1      -8.825 -10.745  19.288  0.00  0.00    -0.226 OA
ATOM      8  N   UNL     1      -9.247  -9.870  17.181  0.00  0.00    -0.279 N 
ATOM     24  C   UNL     1      -8.689 -10.766  18.068  0.00  0.00    +0.401 C 
ATOM     39  H   UNL     1      -9.016  -9.974  16.198  0.00  0.00    +0.152 HD
BRANCH   8  26
ATOM     26  C   UNL     1     -10.086  -8.763  17.578  0.00  0.00    +0.070 C 
ATOM     28  C   UNL     1      -9.928  -7.598  16.610  0.00  0.00    +0.027 C 
ATOM     29  C   UNL     1     -11.539  -9.207  17.676  0.00  0.00    +0.027 C 
ENDBRANCH   8  26
ENDBRANCH   1  24
ENDBRANCH  15   1
BRANCH  11  20
ATOM     20  C   UNL     1      -5.352 -12.823  17.778  0.00  0.00    +0.166 C 
BRANCH  20   3
ATOM      3  O   UNL     1      -6.096 -12.896  18.975  0.00  0.00    -0.394 OA
ATOM     37  H   UNL     1      -5.554 -12.495  19.677  0.00  0.00    +0.209 HD
ENDBRANCH  20   3
ENDBRANCH  11  20
BRANCH  12  22
ATOM     22  C   UNL     1      -3.541 -11.249  12.309  0.00  0.00    +0.102 C 
BRANCH  22  23
ATOM      4  O   UNL     1      -2.392  -9.613  10.946  0.00  0.00    -0.276 OA
ATOM      7  N   UNL     1      -4.708  -9.544  11.113  0.00  0.00    -0.311 N 
ATOM     23  C   UNL     1      -3.449 -10.057  11.386  0.00  0.00    +0.214 C 
ATOM     38  H   UNL     1      -5.525  -9.960  11.553  0.00  0.00    +0.149 HD
BRANCH   7  25
ATOM     25  C   UNL     1      -4.927  -8.399  10.259  0.00  0.00    +0.143 C 
BRANCH  25  27
ATOM     27  C   UNL     1      -5.922  -8.690   9.173  0.00  0.00    +0.011 A 
ATOM     30  C   UNL     1      -5.636  -9.623   8.177  0.00  0.00    +0.125 A 
ATOM     31  C   UNL     1      -7.142  -8.015   9.166  0.00  0.00    +0.009 A 
ATOM     32  C   UNL     1      -6.571  -9.882   7.174  0.00  0.00    +0.046 A 
ATOM     33  C   UNL     1      -8.077  -8.273   8.163  0.00  0.00    +0.001 A 
ATOM     34  C   UNL     1      -7.791  -9.207   7.167  0.00  0.00    +0.004 A 
BRANCH  30   6
ATOM      6  O   UNL     1      -4.448 -10.292   8.168  0.00  0.00    -0.495 OA
ATOM     35  C   UNL     1      -4.507 -11.717   8.195  0.00  0.00    +0.277 C 
ENDBRANCH  30   6
ENDBRANCH  25  27
ENDBRANCH   7  25
ENDBRANCH  22  23
ENDBRANCH  12  22
TORSDOF 11
ENDMDL
MODEL 8
REMARK VINA RESULT:      -5.9      1.803      2.512
REMARK  Name = 44716889
REMARK  16 active torsions:
REMARK  status: ('A' for Active; 'I' for Inactive)
REMARK    1  A    between atoms: O_1  and  C_15
REMARK    2  A    between atoms: O_1  and  C_24
REMARK    3  A    between atoms: O_2  and  C_16
REMARK    4  A    between atoms: O_3  and  C_20
REMARK    5  A    between atoms: O_6  and  C_30
REMARK    6  A    between atoms: O_6  and  C_35
REMARK    7  A    between atoms: N_7  and  C_25
REMARK    8  A    between atoms: N_8  and  C_26
REMARK    9  A    between atoms: C_9  and  C_19
REMARK   10  A    between atoms: C_11  and  C_20
REMARK   11  A    between atoms: C_11  and  C_21
REMARK   12  A    between atoms: C_12  and  C_22
REMARK   13  A    between atoms: C_22  and  C_23
REMARK   14  A    between atoms: C_25  and  C_27
REMARK   15  A    between atoms: C_26  and  C_28
REMARK   16  A    between atoms: C_26  and  C_29
REMARK                            x       y       z     vdW  Elec       q    Type
REMARK                         _______ _______ _______ _____ _____    ______ ____
ROOT
ATOM      9  C   UNL     1      13.591  10.013  20.091  0.00  0.00    -0.023 C 
ATOM     10  C   UNL     1      12.564   9.585  18.972  0.00  0.00    +0.007 C 
ATOM     11  C   UNL     1      13.144   9.376  17.521  0.00  0.00    +0.031 C 
ATOM     12  C   UNL     1      12.740  10.466  21.349  0.00  0.00    +0.032 C 
ATOM     13  C   UNL     1      14.412  11.220  19.567  0.00  0.00    +0.011 C 
ATOM     14  C   UNL     1      11.648   8.445  19.471  0.00  0.00    +0.007 C 
ATOM     15  C   UNL     1      14.013  10.614  17.143  0.00  0.00    +0.186 C 
ATOM     16  C   UNL     1      11.741   9.392  21.837  0.00  0.00    +0.119 C 
ATOM     17  C   UNL     1      15.045  10.988  18.200  0.00  0.00    +0.046 C 
ATOM     18  C   UNL     1      10.858   8.868  20.708  0.00  0.00    +0.032 C 
ATOM     19  C   UNL     1      14.584   8.891  20.482  0.00  0.00    +0.012 C 
ATOM     21  C   UNL     1      11.966   9.306  16.506  0.00  0.00    +0.017 C 
ENDROOT
BRANCH  16   2
ATOM      2  O   UNL     1      12.423   8.306  22.457  0.00  0.00    -0.391 OA
ATOM     36  H   UNL     1      12.147   7.488  22.011  0.00  0.00    +0.210 HD
ENDBRANCH  16   2
BRANCH  15   1
ATOM      1  O   UNL     1      14.720  10.413  15.919  0.00  0.00    -0.446 OA
BRANCH   1  24
ATOM      5  O   UNL     1      16.008  11.920  14.759  0.00  0.00    -0.226 OA
ATOM      8  N   UNL     1      13.700  12.124  14.876  0.00  0.00    -0.279 N 
ATOM     24  C   UNL     1      14.912  11.525  15.147  0.00  0.00    +0.401 C 
ATOM     39  H   UNL     1      12.861  11.666  15.220  0.00  0.00    +0.152 HD
BRANCH   8  26
ATOM     26  C   UNL     1      13.555  13.322  14.082  0.00  0.00    +0.070 C 
ATOM     28  C   UNL     1      12.362  13.199  13.142  0.00  0.00    +0.027 C 
ATOM     29  C   UNL     1      13.425  14.542  14.983  0.00  0.00    +0.027 C 
ENDBRANCH   8  26
ENDBRANCH   1  24
ENDBRANCH  15   1
BRANCH  11  20
ATOM     20  C   UNL     1      13.929   8.062  17.340  0.00  0.00    +0.166 C 
BRANCH  20   3
ATOM      3  O   UNL     1      14.008   7.790  15.958  0.00  0.00    -0.394 OA
ATOM     37  H   UNL     1      13.101   7.646  15.639  0.00  0.00    +0.209 HD
ENDBRANCH  20   3
ENDBRANCH  11  20
BRANCH  12  22
ATOM     22  C   UNL     1      13.569  10.984  22.536  0.00  0.00    +0.102 C 
BRANCH  22  23
ATOM      4  O   UNL     1      14.321  13.283  22.470  0.00  0.00    -0.276 OA
ATOM      7  N   UNL     1      12.164  12.801  23.189  0.00  0.00    -0.311 N 
ATOM     23  C   UNL     1      13.427  12.477  22.715  0.00  0.00    +0.214 C 
ATOM     38  H   UNL     1      11.501  12.059  23.395  0.00  0.00    +0.149 HD
BRANCH   7  25
ATOM     25  C   UNL     1      11.745  14.158  23.457  0.00  0.00    +0.143 C 
BRANCH  25  27
ATOM     27  C   UNL     1      10.588  14.569  22.593  0.00  0.00    +0.011 A 
ATOM     30  C   UNL     1      10.789  14.954  21.268  0.00  0.00    +0.125 A 
ATOM     31  C   UNL     1       9.300  14.564  23.130  0.00  0.00    +0.009 A 
ATOM     32  C   UNL     1       9.703  15.334  20.479  0.00  0.00    +0.046 A 
ATOM     33  C   UNL     1       8.214  14.945  22.340  0.00  0.00    +0.001 A 
ATOM     34  C   UNL     1       8.416  15.329  21.015  0.00  0.00    +0.004 A 
BRANCH  30   6
ATOM      6  O   UNL     1      12.041  14.965  20.728  0.00  0.00    -0.495 OA
ATOM     35  C   UNL     1      12.237  14.210  19.534  0.00  0.00    +0.277 C 
ENDBRANCH  30   6
ENDBRANCH  25  27
ENDBRANCH   7  25
ENDBRANCH  22  23
ENDBRANCH  12  22
TORSDOF 11
ENDMDL
MODEL 9
REMARK VINA RESULT:      -5.9     27.653     30.549
REMARK  Name = 44716889
REMARK  16 active torsions:
REMARK  status: ('A' for Active; 'I' for Inactive)
REMARK    1  A    between atoms: O_1  and  C_15
REMARK    2  A    between atoms: O_1  and  C_24
REMARK    3  A    between atoms: O_2  and  C_16
REMARK    4  A    between atoms: O_3  and  C_20
REMARK    5  A    between atoms: O_6  and  C_30
REMARK    6  A    between atoms: O_6  and  C_35
REMARK    7  A    between atoms: N_7  and  C_25
REMARK    8  A    between atoms: N_8  and  C_26
REMARK    9  A    between atoms: C_9  and  C_19
REMARK   10  A    between atoms: C_11  and  C_20
REMARK   11  A    between atoms: C_11  and  C_21
REMARK   12  A    between atoms: C_12  and  C_22
REMARK   13  A    between atoms: C_22  and  C_23
REMARK   14  A    between atoms: C_25  and  C_27
REMARK   15  A    between atoms: C_26  and  C_28
REMARK   16  A    between atoms: C_26  and  C_29
REMARK                            x       y       z     vdW  Elec       q    Type
REMARK                         _______ _______ _______ _____ _____    ______ ____
ROOT
ATOM      9  C   UNL     1      -5.070 -10.930  11.628  0.00  0.00    -0.023 C 
ATOM     10  C   UNL     1      -3.757 -10.462  12.367  0.00  0.00    +0.007 C 
ATOM     11  C   UNL     1      -3.379 -11.229  13.692  0.00  0.00    +0.031 C 
ATOM     12  C   UNL     1      -5.404  -9.828  10.539  0.00  0.00    +0.032 C 
ATOM     13  C   UNL     1      -6.223 -10.989  12.665  0.00  0.00    +0.011 C 
ATOM     14  C   UNL     1      -2.592 -10.291  11.367  0.00  0.00    +0.007 C 
ATOM     15  C   UNL     1      -4.636 -11.292  14.613  0.00  0.00    +0.186 C 
ATOM     16  C   UNL     1      -4.237  -9.552   9.563  0.00  0.00    +0.119 C 
ATOM     17  C   UNL     1      -5.889 -11.802  13.911  0.00  0.00    +0.046 C 
ATOM     18  C   UNL     1      -2.930  -9.258  10.293  0.00  0.00    +0.032 C 
ATOM     19  C   UNL     1      -4.946 -12.325  10.969  0.00  0.00    +0.012 C 
ATOM     21  C   UNL     1      -2.285 -10.424  14.453  0.00  0.00    +0.017 C 
ENDROOT
BRANCH  16   2
ATOM      2  O   UNL     1      -4.052 -10.645   8.669  0.00  0.00    -0.391 OA
ATOM     36  H   UNL     1      -4.630 -10.501   7.901  0.00  0.00    +0.210 HD
ENDBRANCH  16   2
BRANCH  15   1
ATOM      1  O   UNL     1      -4.420 -12.131  15.748  0.00  0.00    -0.446 OA
BRANCH   1  24
ATOM      5  O   UNL     1      -5.967 -13.218  17.052  0.00  0.00    -0.226 OA
ATOM      8  N   UNL     1      -5.774 -10.906  17.061  0.00  0.00    -0.279 N 
ATOM     24  C   UNL     1      -5.440 -12.182  16.660  0.00  0.00    +0.401 C 
ATOM     39  H   UNL     1      -5.224 -10.136  16.691  0.00  0.00    +0.152 HD
BRANCH   8  26
ATOM     26  C   UNL     1      -6.814 -10.612  18.019  0.00  0.00    +0.070 C 
ATOM     28  C   UNL     1      -6.221 -10.412  19.407  0.00  0.00    +0.027 C 
ATOM     29  C   UNL     1      -7.612  -9.393  17.577  0.00  0.00    +0.027 C 
ENDBRANCH   8  26
ENDBRANCH   1  24
ENDBRANCH  15   1
BRANCH  11  20
ATOM     20  C   UNL     1      -2.781 -12.630  13.460  0.00  0.00    +0.166 C 
BRANCH  20   3
ATOM      3  O   UNL     1      -2.081 -13.002  14.628  0.00  0.00    -0.394 OA
ATOM     37  H   UNL     1      -2.738 -13.330  15.266  0.00  0.00    +0.209 HD
ENDBRANCH  20   3
ENDBRANCH  11  20
BRANCH  12  22
ATOM     22  C   UNL     1      -6.699 -10.074   9.746  0.00  0.00    +0.102 C 
BRANCH  22  23
ATOM      4  O   UNL     1      -8.455  -8.519  10.336  0.00  0.00    -0.276 OA
ATOM      7  N   UNL     1      -7.071  -8.055   8.528  0.00  0.00    -0.311 N 
ATOM     23  C   UNL     1      -7.519  -8.815   9.599  0.00  0.00    +0.214 C 
ATOM     38  H   UNL     1      -6.307  -8.401   7.954  0.00  0.00    +0.149 HD
BRANCH   7  25
ATOM     25  C   UNL     1      -7.670  -6.797   8.147  0.00  0.00    +0.143 C 
BRANCH  25  27
ATOM     27  C   UNL     1      -8.767  -6.979   7.138  0.00  0.00    +0.011 A 
ATOM     30  C   UNL     1      -8.501  -7.539   5.890  0.00  0.00    +0.125 A 
ATOM     31  C   UNL     1     -10.064  -6.580   7.462  0.00  0.00    +0.009 A 
ATOM     32  C   UNL     1      -9.532  -7.701   4.963  0.00  0.00    +0.046 A 
ATOM     33  C   UNL     1     -11.095  -6.741   6.535  0.00  0.00    +0.001 A 
ATOM     34  C   UNL     1     -10.828  -7.302   5.287  0.00  0.00    +0.004 A 
BRANCH  30   6
ATOM      6  O   UNL     1      -7.240  -7.934   5.557  0.00  0.00    -0.495 OA
ATOM     35  C   UNL     1      -7.083  -9.270   5.082  0.00  0.00    +0.277 C 
ENDBRANCH  30   6
ENDBRANCH  25  27
ENDBRANCH   7  25
ENDBRANCH  22  23
ENDBRANCH  12  22
TORSDOF 11
ENDMDL
MODEL 10
REMARK VINA RESULT:      -5.8     13.984     18.506
REMARK  Name = 44716889
REMARK  16 active torsions:
REMARK  status: ('A' for Active; 'I' for Inactive)
REMARK    1  A    between atoms: O_1  and  C_15
REMARK    2  A    between atoms: O_1  and  C_24
REMARK    3  A    between atoms: O_2  and  C_16
REMARK    4  A    between atoms: O_3  and  C_20
REMARK    5  A    between atoms: O_6  and  C_30
REMARK    6  A    between atoms: O_6  and  C_35
REMARK    7  A    between atoms: N_7  and  C_25
REMARK    8  A    between atoms: N_8  and  C_26
REMARK    9  A    between atoms: C_9  and  C_19
REMARK   10  A    between atoms: C_11  and  C_20
REMARK   11  A    between atoms: C_11  and  C_21
REMARK   12  A    between atoms: C_12  and  C_22
REMARK   13  A    between atoms: C_22  and  C_23
REMARK   14  A    between atoms: C_25  and  C_27
REMARK   15  A    between atoms: C_26  and  C_28
REMARK   16  A    between atoms: C_26  and  C_29
REMARK                            x       y       z     vdW  Elec       q    Type
REMARK                         _______ _______ _______ _____ _____    ______ ____
ROOT
ATOM      9  C   UNL     1      11.680   7.071   4.097  0.00  0.00    -0.023 C 
ATOM     10  C   UNL     1      12.465   6.912   5.456  0.00  0.00    +0.007 C 
ATOM     11  C   UNL     1      13.647   7.923   5.714  0.00  0.00    +0.031 C 
ATOM     12  C   UNL     1      10.783   5.775   3.927  0.00  0.00    +0.032 C 
ATOM     13  C   UNL     1      12.711   7.134   2.939  0.00  0.00    +0.011 C 
ATOM     14  C   UNL     1      11.488   6.747   6.641  0.00  0.00    +0.007 C 
ATOM     15  C   UNL     1      14.564   7.957   4.454  0.00  0.00    +0.186 C 
ATOM     16  C   UNL     1       9.847   5.512   5.129  0.00  0.00    +0.119 C 
ATOM     17  C   UNL     1      13.808   8.172   3.147  0.00  0.00    +0.046 C 
ATOM     18  C   UNL     1      10.595   5.520   6.458  0.00  0.00    +0.032 C 
ATOM     19  C   UNL     1      10.807   8.348   4.032  0.00  0.00    +0.012 C 
ATOM     21  C   UNL     1      14.509   7.407   6.903  0.00  0.00    +0.017 C 
ENDROOT
BRANCH  16   2
ATOM      2  O   UNL     1       8.789   6.465   5.168  0.00  0.00    -0.391 OA
ATOM     36  H   UNL     1       8.009   6.060   4.753  0.00  0.00    +0.210 HD
ENDBRANCH  16   2
BRANCH  15   1
ATOM      1  O   UNL     1      15.549   8.987   4.542  0.00  0.00    -0.446 OA
BRANCH   1  24
ATOM      5  O   UNL     1      17.203   8.052   3.251  0.00  0.00    -0.226 OA
ATOM      8  N   UNL     1      17.649   8.946   5.345  0.00  0.00    -0.279 N 
ATOM     24  C   UNL     1      16.838   8.608   4.282  0.00  0.00    +0.401 C 
ATOM     39  H   UNL     1      17.226   9.447   6.120  0.00  0.00    +0.152 HD
BRANCH   8  26
ATOM     26  C   UNL     1      19.069   8.684   5.387  0.00  0.00    +0.070 C 
ATOM     28  C   UNL     1      19.841   9.811   4.714  0.00  0.00    +0.027 C 
ATOM     29  C   UNL     1      19.528   8.479   6.824  0.00  0.00    +0.027 C 
ENDBRANCH   8  26
ENDBRANCH   1  24
ENDBRANCH  15   1
BRANCH  11  20
ATOM     20  C   UNL     1      13.188   9.339   6.115  0.00  0.00    +0.166 C 
BRANCH  20   3
ATOM      3  O   UNL     1      14.175   9.892   6.958  0.00  0.00    -0.394 OA
ATOM     37  H   UNL     1      14.398   9.219   7.623  0.00  0.00    +0.209 HD
ENDBRANCH  20   3
ENDBRANCH  11  20
BRANCH  12  22
ATOM     22  C   UNL     1       9.980   5.712   2.617  0.00  0.00    +0.102 C 
BRANCH  22  23
ATOM      4  O   UNL     1       9.865   4.243   0.698  0.00  0.00    -0.276 OA
ATOM      7  N   UNL     1      11.614   4.019   2.212  0.00  0.00    -0.311 N 
ATOM     23  C   UNL     1      10.450   4.591   1.721  0.00  0.00    +0.214 C 
ATOM     38  H   UNL     1      12.006   4.354   3.087  0.00  0.00    +0.149 HD
BRANCH   7  25
ATOM     25  C   UNL     1      12.290   2.921   1.561  0.00  0.00    +0.143 C 
BRANCH  25  27
ATOM     27  C   UNL     1      13.402   3.395   0.669  0.00  0.00    +0.011 A 
ATOM     30  C   UNL     1      13.214   3.500  -0.708  0.00  0.00    +0.125 A 
ATOM     31  C   UNL     1      14.633   3.730   1.234  0.00  0.00    +0.009 A 
ATOM     32  C   UNL     1      14.258   3.941  -1.523  0.00  0.00    +0.046 A 
ATOM     33  C   UNL     1      15.676   4.171   0.419  0.00  0.00    +0.001 A 
ATOM     34  C   UNL     1      15.488   4.276  -0.959  0.00  0.00    +0.004 A 
BRANCH  30   6
ATOM      6  O   UNL     1      12.018   3.176  -1.276  0.00  0.00    -0.495 OA
ATOM     35  C   UNL     1      12.040   2.205  -2.321  0.00  0.00    +0.277 C 
ENDBRANCH  30   6
ENDBRANCH  25  27
ENDBRANCH   7  25
ENDBRANCH  22  23
ENDBRANCH  12  22
TORSDOF 11
ENDMDL
