MODEL 1
REMARK VINA RESULT:      -7.5      0.000      0.000
REMARK  Name = 26742294
REMARK  4 active torsions:
REMARK  status: ('A' for Active; 'I' for Inactive)
REMARK    1  A    between atoms: O_3  and  C_25
REMARK    2  A    between atoms: O_3  and  C_31
REMARK    3  A    between atoms: N_6  and  C_23
REMARK    4  A    between atoms: C_15  and  C_20
REMARK                            x       y       z     vdW  Elec       q    Type
REMARK                         _______ _______ _______ _____ _____    ______ ____
ROOT
ATOM      1  O   UNL     1      12.458   9.731  17.228  0.00  0.00    -0.268 OA
ATOM      2  O   UNL     1      10.630   9.059  21.727  0.00  0.00    -0.252 OA
ATOM      4  N   UNL     1      13.735   8.928  19.019  0.00  0.00    -0.311 N 
ATOM      5  N   UNL     1      12.769   8.199  21.923  0.00  0.00    -0.284 N 
ATOM      6  N   UNL     1      12.328  10.452  22.466  0.00  0.00    -0.266 N 
ATOM      8  C   UNL     1      13.279   6.632  20.062  0.00  0.00    +0.027 C 
ATOM      9  C   UNL     1      15.056   8.066  20.982  0.00  0.00    +0.054 C 
ATOM     10  C   UNL     1      14.755   6.670  20.435  0.00  0.00    +0.018 C 
ATOM     11  C   UNL     1      13.047   7.632  18.929  0.00  0.00    +0.130 C 
ATOM     12  C   UNL     1      12.399   6.932  21.290  0.00  0.00    +0.114 C 
ATOM     13  C   UNL     1      14.201   8.309  22.245  0.00  0.00    +0.119 C 
ATOM     14  C   UNL     1      14.779   9.156  19.939  0.00  0.00    +0.034 A 
ATOM     15  C   UNL     1      15.469  10.326  19.902  0.00  0.00    +0.004 A 
ATOM     16  C   UNL     1      13.351   9.883  18.061  0.00  0.00    +0.252 A 
ATOM     17  C   UNL     1      11.815   9.236  22.018  0.00  0.00    +0.307 C 
ATOM     18  C   UNL     1      15.098  11.336  18.928  0.00  0.00    +0.015 A 
ATOM     19  C   UNL     1      14.100  11.159  18.061  0.00  0.00    +0.071 A 
ATOM     32  H   UNL     1      13.289  10.679  22.240  0.00  0.00    +0.156 HD
ENDROOT
BRANCH  15  20
ATOM      7  N   UNL     1      17.407  11.921  22.701  0.00  0.00    -0.263 NA
ATOM     20  C   UNL     1      16.568  10.615  20.847  0.00  0.00    +0.002 A 
ATOM     21  C   UNL     1      17.762   9.903  20.799  0.00  0.00    +0.011 A 
ATOM     22  C   UNL     1      16.442  11.605  21.808  0.00  0.00    +0.119 A 
ATOM     24  C   UNL     1      18.778  10.198  21.701  0.00  0.00    +0.020 A 
ATOM     27  C   UNL     1      18.553  11.207  22.624  0.00  0.00    +0.111 A 
ENDBRANCH  15  20
BRANCH   6  23
ATOM     23  C   UNL     1      11.642  11.447  23.203  0.00  0.00    +0.077 A 
ATOM     25  C   UNL     1      11.120  12.573  22.565  0.00  0.00    +0.141 A 
ATOM     26  C   UNL     1      11.489  11.294  24.582  0.00  0.00    +0.027 A 
ATOM     28  C   UNL     1      10.447  13.545  23.305  0.00  0.00    +0.047 A 
ATOM     29  C   UNL     1      10.815  12.265  25.321  0.00  0.00    +0.002 A 
ATOM     30  C   UNL     1      10.294  13.391  24.684  0.00  0.00    +0.004 A 
BRANCH  25   3
ATOM      3  O   UNL     1      11.259  12.742  21.220  0.00  0.00    -0.493 OA
ATOM     31  C   UNL     1      11.435  14.078  20.752  0.00  0.00    +0.277 C 
ENDBRANCH  25   3
ENDBRANCH   6  23
TORSDOF 3
ENDMDL
MODEL 2
REMARK VINA RESULT:      -6.8     15.024     18.572
REMARK  Name = 26742294
REMARK  4 active torsions:
REMARK  status: ('A' for Active; 'I' for Inactive)
REMARK    1  A    between atoms: O_3  and  C_25
REMARK    2  A    between atoms: O_3  and  C_31
REMARK    3  A    between atoms: N_6  and  C_23
REMARK    4  A    between atoms: C_15  and  C_20
REMARK                            x       y       z     vdW  Elec       q    Type
REMARK                         _______ _______ _______ _____ _____    ______ ____
ROOT
ATOM      1  O   UNL     1       8.939  10.378   3.210  0.00  0.00    -0.268 OA
ATOM      2  O   UNL     1      13.190   8.149   2.212  0.00  0.00    -0.252 OA
ATOM      4  N   UNL     1      10.246   9.327   4.845  0.00  0.00    -0.311 N 
ATOM      5  N   UNL     1      13.093   8.029   4.521  0.00  0.00    -0.284 N 
ATOM      6  N   UNL     1      12.265   6.264   3.193  0.00  0.00    -0.266 N 
ATOM      8  C   UNL     1      12.545  10.243   5.510  0.00  0.00    +0.027 C 
ATOM      9  C   UNL     1      11.694   8.185   6.559  0.00  0.00    +0.054 C 
ATOM     10  C   UNL     1      12.262   9.575   6.849  0.00  0.00    +0.018 C 
ATOM     11  C   UNL     1      11.214  10.431   4.781  0.00  0.00    +0.130 C 
ATOM     12  C   UNL     1      13.546   9.412   4.687  0.00  0.00    +0.114 C 
ATOM     13  C   UNL     1      12.747   7.360   5.785  0.00  0.00    +0.119 C 
ATOM     14  C   UNL     1      10.390   8.262   5.757  0.00  0.00    +0.034 A 
ATOM     15  C   UNL     1       9.406   7.330   5.868  0.00  0.00    +0.004 A 
ATOM     16  C   UNL     1       9.121   9.462   4.012  0.00  0.00    +0.252 A 
ATOM     17  C   UNL     1      12.869   7.520   3.223  0.00  0.00    +0.307 C 
ATOM     18  C   UNL     1       8.232   7.435   5.021  0.00  0.00    +0.015 A 
ATOM     19  C   UNL     1       8.079   8.419   4.134  0.00  0.00    +0.071 A 
ATOM     32  H   UNL     1      11.625   6.023   3.941  0.00  0.00    +0.156 HD
ENDROOT
BRANCH  15  20
ATOM      7  N   UNL     1       9.926   3.834   7.152  0.00  0.00    -0.263 NA
ATOM     20  C   UNL     1       9.511   6.191   6.805  0.00  0.00    +0.002 A 
ATOM     21  C   UNL     1       9.306   6.364   8.169  0.00  0.00    +0.011 A 
ATOM     22  C   UNL     1       9.815   4.918   6.351  0.00  0.00    +0.119 A 
ATOM     24  C   UNL     1       9.411   5.274   9.026  0.00  0.00    +0.020 A 
ATOM     27  C   UNL     1       9.720   4.042   8.472  0.00  0.00    +0.111 A 
ENDBRANCH  15  20
BRANCH   6  23
ATOM     23  C   UNL     1      12.426   5.263   2.205  0.00  0.00    +0.077 A 
ATOM     25  C   UNL     1      11.385   4.955   1.329  0.00  0.00    +0.141 A 
ATOM     26  C   UNL     1      13.641   4.584   2.112  0.00  0.00    +0.027 A 
ATOM     28  C   UNL     1      11.559   3.966   0.361  0.00  0.00    +0.047 A 
ATOM     29  C   UNL     1      13.815   3.596   1.143  0.00  0.00    +0.002 A 
ATOM     30  C   UNL     1      12.775   3.286   0.267  0.00  0.00    +0.004 A 
BRANCH  25   3
ATOM      3  O   UNL     1      10.191   5.606   1.403  0.00  0.00    -0.493 OA
ATOM     31  C   UNL     1      10.021   6.743   0.558  0.00  0.00    +0.277 C 
ENDBRANCH  25   3
ENDBRANCH   6  23
TORSDOF 3
ENDMDL
MODEL 3
REMARK VINA RESULT:      -6.6     14.696     17.698
REMARK  Name = 26742294
REMARK  4 active torsions:
REMARK  status: ('A' for Active; 'I' for Inactive)
REMARK    1  A    between atoms: O_3  and  C_25
REMARK    2  A    between atoms: O_3  and  C_31
REMARK    3  A    between atoms: N_6  and  C_23
REMARK    4  A    between atoms: C_15  and  C_20
REMARK                            x       y       z     vdW  Elec       q    Type
REMARK                         _______ _______ _______ _____ _____    ______ ____
ROOT
ATOM      1  O   UNL     1       7.154   9.155   4.315  0.00  0.00    -0.268 OA
ATOM      2  O   UNL     1      11.153  10.076   6.999  0.00  0.00    -0.252 OA
ATOM      4  N   UNL     1       8.709   7.505   4.899  0.00  0.00    -0.311 N 
ATOM      5  N   UNL     1      11.218   7.774   6.779  0.00  0.00    -0.284 N 
ATOM      6  N   UNL     1      12.361   9.157   5.248  0.00  0.00    -0.266 N 
ATOM      8  C   UNL     1       9.017   6.759   7.331  0.00  0.00    +0.027 C 
ATOM      9  C   UNL     1      10.413   5.773   5.561  0.00  0.00    +0.054 C 
ATOM     10  C   UNL     1       9.470   5.441   6.717  0.00  0.00    +0.018 C 
ATOM     11  C   UNL     1       8.209   7.521   6.281  0.00  0.00    +0.130 C 
ATOM     12  C   UNL     1      10.225   7.570   7.836  0.00  0.00    +0.114 C 
ATOM     13  C   UNL     1      11.641   6.533   6.111  0.00  0.00    +0.119 C 
ATOM     14  C   UNL     1       9.715   6.610   4.482  0.00  0.00    +0.034 A 
ATOM     15  C   UNL     1      10.058   6.544   3.168  0.00  0.00    +0.004 A 
ATOM     16  C   UNL     1       8.047   8.366   4.007  0.00  0.00    +0.252 A 
ATOM     17  C   UNL     1      11.552   9.087   6.380  0.00  0.00    +0.307 C 
ATOM     18  C   UNL     1       9.398   7.420   2.219  0.00  0.00    +0.015 A 
ATOM     19  C   UNL     1       8.460   8.293   2.588  0.00  0.00    +0.071 A 
ATOM     32  H   UNL     1      12.266   8.432   4.547  0.00  0.00    +0.156 HD
ENDROOT
BRANCH  15  20
ATOM      7  N   UNL     1      13.393   5.302   1.953  0.00  0.00    -0.263 NA
ATOM     20  C   UNL     1      11.109   5.625   2.680  0.00  0.00    +0.002 A 
ATOM     21  C   UNL     1      10.847   4.274   2.485  0.00  0.00    +0.011 A 
ATOM     22  C   UNL     1      12.387   6.085   2.402  0.00  0.00    +0.119 A 
ATOM     24  C   UNL     1      11.857   3.435   2.025  0.00  0.00    +0.020 A 
ATOM     27  C   UNL     1      13.101   3.993   1.776  0.00  0.00    +0.111 A 
ENDBRANCH  15  20
BRANCH   6  23
ATOM     23  C   UNL     1      13.313  10.159   4.941  0.00  0.00    +0.077 A 
ATOM     25  C   UNL     1      14.547  10.190   5.589  0.00  0.00    +0.141 A 
ATOM     26  C   UNL     1      13.007  11.121   3.977  0.00  0.00    +0.027 A 
ATOM     28  C   UNL     1      15.475  11.183   5.276  0.00  0.00    +0.047 A 
ATOM     29  C   UNL     1      13.934  12.113   3.664  0.00  0.00    +0.002 A 
ATOM     30  C   UNL     1      15.169  12.145   4.312  0.00  0.00    +0.004 A 
BRANCH  25   3
ATOM      3  O   UNL     1      14.866   9.260   6.533  0.00  0.00    -0.493 OA
ATOM     31  C   UNL     1      15.711   8.186   6.122  0.00  0.00    +0.277 C 
ENDBRANCH  25   3
ENDBRANCH   6  23
TORSDOF 3
ENDMDL
MODEL 4
REMARK VINA RESULT:      -6.6     28.341     30.399
REMARK  Name = 26742294
REMARK  4 active torsions:
REMARK  status: ('A' for Active; 'I' for Inactive)
REMARK    1  A    between atoms: O_3  and  C_25
REMARK    2  A    between atoms: O_3  and  C_31
REMARK    3  A    between atoms: N_6  and  C_23
REMARK    4  A    between atoms: C_15  and  C_20
REMARK                            x       y       z     vdW  Elec       q    Type
REMARK                         _______ _______ _______ _____ _____    ______ ____
ROOT
ATOM      1  O   UNL     1      -6.788 -14.884  16.609  0.00  0.00    -0.268 OA
ATOM      2  O   UNL     1      -8.035 -10.662  18.766  0.00  0.00    -0.252 OA
ATOM      4  N   UNL     1      -5.693 -12.858  16.182  0.00  0.00    -0.311 N 
ATOM      5  N   UNL     1      -6.138 -10.074  17.579  0.00  0.00    -0.284 N 
ATOM      6  N   UNL     1      -8.280  -9.809  16.626  0.00  0.00    -0.266 N 
ATOM      8  C   UNL     1      -4.293 -11.690  17.982  0.00  0.00    +0.027 C 
ATOM      9  C   UNL     1      -4.552 -10.652  15.766  0.00  0.00    +0.054 C 
ATOM     10  C   UNL     1      -3.526 -11.109  16.803  0.00  0.00    +0.018 C 
ATOM     11  C   UNL     1      -5.043 -12.931  17.498  0.00  0.00    +0.130 C 
ATOM     12  C   UNL     1      -5.240 -10.638  18.588  0.00  0.00    +0.114 C 
ATOM     13  C   UNL     1      -5.446  -9.555  16.388  0.00  0.00    +0.119 C 
ATOM     14  C   UNL     1      -5.416 -11.818  15.271  0.00  0.00    +0.034 A 
ATOM     15  C   UNL     1      -5.943 -11.859  14.019  0.00  0.00    +0.004 A 
ATOM     16  C   UNL     1      -6.524 -13.944  15.858  0.00  0.00    +0.252 A 
ATOM     17  C   UNL     1      -7.535 -10.215  17.731  0.00  0.00    +0.307 C 
ATOM     18  C   UNL     1      -6.808 -12.964  13.650  0.00  0.00    +0.015 A 
ATOM     19  C   UNL     1      -7.107 -13.949  14.498  0.00  0.00    +0.071 A 
ATOM     32  H   UNL     1      -7.866  -9.910  15.706  0.00  0.00    +0.156 HD
ENDROOT
BRANCH  15  20
ATOM      7  N   UNL     1      -6.424  -8.758  11.946  0.00  0.00    -0.263 NA
ATOM     20  C   UNL     1      -5.687 -10.792  13.028  0.00  0.00    +0.002 A 
ATOM     21  C   UNL     1      -4.527 -10.788  12.261  0.00  0.00    +0.011 A 
ATOM     22  C   UNL     1      -6.596  -9.764  12.834  0.00  0.00    +0.119 A 
ATOM     24  C   UNL     1      -4.314  -9.771  11.337  0.00  0.00    +0.020 A 
ATOM     27  C   UNL     1      -5.284  -8.789  11.219  0.00  0.00    +0.111 A 
ENDBRANCH  15  20
BRANCH   6  23
ATOM     23  C   UNL     1      -9.590  -9.274  16.630  0.00  0.00    +0.077 A 
ATOM     25  C   UNL     1     -10.698 -10.106  16.466  0.00  0.00    +0.141 A 
ATOM     26  C   UNL     1      -9.768  -7.901  16.802  0.00  0.00    +0.027 A 
ATOM     28  C   UNL     1     -11.984  -9.564  16.472  0.00  0.00    +0.047 A 
ATOM     29  C   UNL     1     -11.053  -7.360  16.809  0.00  0.00    +0.002 A 
ATOM     30  C   UNL     1     -12.162  -8.191  16.644  0.00  0.00    +0.004 A 
BRANCH  25   3
ATOM      3  O   UNL     1     -10.547 -11.449  16.297  0.00  0.00    -0.493 OA
ATOM     31  C   UNL     1     -10.926 -12.285  17.388  0.00  0.00    +0.277 C 
ENDBRANCH  25   3
ENDBRANCH   6  23
TORSDOF 3
ENDMDL
MODEL 5
REMARK VINA RESULT:      -6.0     14.326     16.983
REMARK  Name = 26742294
REMARK  4 active torsions:
REMARK  status: ('A' for Active; 'I' for Inactive)
REMARK    1  A    between atoms: O_3  and  C_25
REMARK    2  A    between atoms: O_3  and  C_31
REMARK    3  A    between atoms: N_6  and  C_23
REMARK    4  A    between atoms: C_15  and  C_20
REMARK                            x       y       z     vdW  Elec       q    Type
REMARK                         _______ _______ _______ _____ _____    ______ ____
ROOT
ATOM      1  O   UNL     1      19.348  -8.773  25.539  0.00  0.00    -0.268 OA
ATOM      2  O   UNL     1      19.763  -5.741  29.369  0.00  0.00    -0.252 OA
ATOM      4  N   UNL     1      19.840  -6.494  25.317  0.00  0.00    -0.311 N 
ATOM      5  N   UNL     1      20.378  -4.390  27.593  0.00  0.00    -0.284 N 
ATOM      6  N   UNL     1      18.140  -4.449  28.335  0.00  0.00    -0.266 N 
ATOM      8  C   UNL     1      22.058  -5.519  26.149  0.00  0.00    +0.027 C 
ATOM      9  C   UNL     1      20.370  -4.039  25.141  0.00  0.00    +0.054 C 
ATOM     10  C   UNL     1      21.835  -4.470  25.069  0.00  0.00    +0.018 C 
ATOM     11  C   UNL     1      21.202  -6.740  25.813  0.00  0.00    +0.130 C 
ATOM     12  C   UNL     1      21.732  -4.947  27.541  0.00  0.00    +0.114 C 
ATOM     13  C   UNL     1      20.093  -3.416  26.528  0.00  0.00    +0.119 C 
ATOM     14  C   UNL     1      19.420  -5.217  24.893  0.00  0.00    +0.034 A 
ATOM     15  C   UNL     1      18.194  -5.063  24.326  0.00  0.00    +0.004 A 
ATOM     16  C   UNL     1      19.026  -7.635  25.199  0.00  0.00    +0.252 A 
ATOM     17  C   UNL     1      19.439  -4.924  28.503  0.00  0.00    +0.307 C 
ATOM     18  C   UNL     1      17.326  -6.217  24.190  0.00  0.00    +0.015 A 
ATOM     19  C   UNL     1      17.687  -7.433  24.603  0.00  0.00    +0.071 A 
ATOM     32  H   UNL     1      17.840  -4.194  27.402  0.00  0.00    +0.156 HD
ENDROOT
BRANCH  15  20
ATOM      7  N   UNL     1      16.329  -1.798  24.278  0.00  0.00    -0.263 NA
ATOM     20  C   UNL     1      17.705  -3.744  23.869  0.00  0.00    +0.002 A 
ATOM     21  C   UNL     1      18.123  -3.204  22.658  0.00  0.00    +0.011 A 
ATOM     22  C   UNL     1      16.815  -3.008  24.635  0.00  0.00    +0.119 A 
ATOM     24  C   UNL     1      17.645  -1.961  22.256  0.00  0.00    +0.020 A 
ATOM     27  C   UNL     1      16.758  -1.305  23.094  0.00  0.00    +0.111 A 
ENDBRANCH  15  20
BRANCH   6  23
ATOM     23  C   UNL     1      17.153  -4.293  29.338  0.00  0.00    +0.077 A 
ATOM     25  C   UNL     1      17.011  -3.081  30.013  0.00  0.00    +0.141 A 
ATOM     26  C   UNL     1      16.317  -5.366  29.648  0.00  0.00    +0.027 A 
ATOM     28  C   UNL     1      16.034  -2.942  30.999  0.00  0.00    +0.047 A 
ATOM     29  C   UNL     1      15.340  -5.227  30.633  0.00  0.00    +0.002 A 
ATOM     30  C   UNL     1      15.197  -4.016  31.309  0.00  0.00    +0.004 A 
BRANCH  25   3
ATOM      3  O   UNL     1      17.817  -2.020  29.726  0.00  0.00    -0.493 OA
ATOM     31  C   UNL     1      18.135  -1.140  30.803  0.00  0.00    +0.277 C 
ENDBRANCH  25   3
ENDBRANCH   6  23
TORSDOF 3
ENDMDL
MODEL 6
REMARK VINA RESULT:      -5.9     27.447     30.901
REMARK  Name = 26742294
REMARK  4 active torsions:
REMARK  status: ('A' for Active; 'I' for Inactive)
REMARK    1  A    between atoms: O_3  and  C_25
REMARK    2  A    between atoms: O_3  and  C_31
REMARK    3  A    between atoms: N_6  and  C_23
REMARK    4  A    between atoms: C_15  and  C_20
REMARK                            x       y       z     vdW  Elec       q    Type
REMARK                         _______ _______ _______ _____ _____    ______ ____
ROOT
ATOM      1  O   UNL     1      -8.956  -8.451  17.048  0.00  0.00    -0.268 OA
ATOM      2  O   UNL     1      -4.200  -9.547  16.581  0.00  0.00    -0.252 OA
ATOM      4  N   UNL     1      -8.101 -10.604  17.391  0.00  0.00    -0.311 N 
ATOM      5  N   UNL     1      -5.093 -11.527  17.377  0.00  0.00    -0.284 N 
ATOM      6  N   UNL     1      -4.871 -11.159  15.057  0.00  0.00    -0.266 N 
ATOM      8  C   UNL     1      -6.542 -11.125  19.357  0.00  0.00    +0.027 C 
ATOM      9  C   UNL     1      -7.124 -12.896  17.750  0.00  0.00    +0.054 C 
ATOM     10  C   UNL     1      -7.099 -12.537  19.236  0.00  0.00    +0.018 C 
ATOM     11  C   UNL     1      -7.513 -10.168  18.666  0.00  0.00    +0.130 C 
ATOM     12  C   UNL     1      -5.125 -11.045  18.759  0.00  0.00    +0.114 C 
ATOM     13  C   UNL     1      -5.681 -12.865  17.198  0.00  0.00    +0.119 C 
ATOM     14  C   UNL     1      -8.015 -11.940  16.950  0.00  0.00    +0.034 A 
ATOM     15  C   UNL     1      -8.680 -12.324  15.828  0.00  0.00    +0.004 A 
ATOM     16  C   UNL     1      -8.837  -9.626  16.700  0.00  0.00    +0.252 A 
ATOM     17  C   UNL     1      -4.684 -10.656  16.343  0.00  0.00    +0.307 C 
ATOM     18  C   UNL     1      -9.447 -11.340  15.087  0.00  0.00    +0.015 A 
ATOM     19  C   UNL     1      -9.528 -10.065  15.468  0.00  0.00    +0.071 A 
ATOM     32  H   UNL     1      -5.648 -11.790  14.899  0.00  0.00    +0.156 HD
ENDROOT
BRANCH  15  20
ATOM      7  N   UNL     1      -9.481 -15.971  15.378  0.00  0.00    -0.263 NA
ATOM     20  C   UNL     1      -8.619 -13.712  15.321  0.00  0.00    +0.002 A 
ATOM     21  C   UNL     1      -7.692 -14.082  14.352  0.00  0.00    +0.011 A 
ATOM     22  C   UNL     1      -9.483 -14.685  15.797  0.00  0.00    +0.119 A 
ATOM     24  C   UNL     1      -7.659 -15.395  13.895  0.00  0.00    +0.020 A 
ATOM     27  C   UNL     1      -8.566 -16.292  14.435  0.00  0.00    +0.111 A 
ENDBRANCH  15  20
BRANCH   6  23
ATOM     23  C   UNL     1      -4.097 -10.870  13.908  0.00  0.00    +0.077 A 
ATOM     25  C   UNL     1      -2.727 -11.132  13.889  0.00  0.00    +0.141 A 
ATOM     26  C   UNL     1      -4.718 -10.321  12.785  0.00  0.00    +0.027 A 
ATOM     28  C   UNL     1      -1.977 -10.842  12.749  0.00  0.00    +0.047 A 
ATOM     29  C   UNL     1      -3.968 -10.032  11.645  0.00  0.00    +0.002 A 
ATOM     30  C   UNL     1      -2.598 -10.293  11.627  0.00  0.00    +0.004 A 
BRANCH  25   3
ATOM      3  O   UNL     1      -2.102 -11.668  14.975  0.00  0.00    -0.493 OA
ATOM     31  C   UNL     1      -1.082 -10.881  15.588  0.00  0.00    +0.277 C 
ENDBRANCH  25   3
ENDBRANCH   6  23
TORSDOF 3
ENDMDL
MODEL 7
REMARK VINA RESULT:      -5.9     14.360     17.377
REMARK  Name = 26742294
REMARK  4 active torsions:
REMARK  status: ('A' for Active; 'I' for Inactive)
REMARK    1  A    between atoms: O_3  and  C_25
REMARK    2  A    between atoms: O_3  and  C_31
REMARK    3  A    between atoms: N_6  and  C_23
REMARK    4  A    between atoms: C_15  and  C_20
REMARK                            x       y       z     vdW  Elec       q    Type
REMARK                         _______ _______ _______ _____ _____    ______ ____
ROOT
ATOM      1  O   UNL     1       7.694  10.547   3.708  0.00  0.00    -0.268 OA
ATOM      2  O   UNL     1      12.531  10.842   4.452  0.00  0.00    -0.252 OA
ATOM      4  N   UNL     1       8.724   9.877   5.702  0.00  0.00    -0.311 N 
ATOM      5  N   UNL     1      11.748  10.161   6.520  0.00  0.00    -0.284 N 
ATOM      6  N   UNL     1      12.449   8.574   4.923  0.00  0.00    -0.266 N 
ATOM      8  C   UNL     1       9.841  11.572   7.264  0.00  0.00    +0.027 C 
ATOM      9  C   UNL     1       9.886   9.176   7.823  0.00  0.00    +0.054 C 
ATOM     10  C   UNL     1       9.518  10.561   8.356  0.00  0.00    +0.018 C 
ATOM     11  C   UNL     1       8.938  11.285   6.065  0.00  0.00    +0.130 C 
ATOM     12  C   UNL     1      11.335  11.516   6.893  0.00  0.00    +0.114 C 
ATOM     13  C   UNL     1      11.400   9.136   7.517  0.00  0.00    +0.119 C 
ATOM     14  C   UNL     1       9.085   8.821   6.564  0.00  0.00    +0.034 A 
ATOM     15  C   UNL     1       8.754   7.543   6.242  0.00  0.00    +0.004 A 
ATOM     16  C   UNL     1       8.045   9.663   4.490  0.00  0.00    +0.252 A 
ATOM     17  C   UNL     1      12.266   9.921   5.229  0.00  0.00    +0.307 C 
ATOM     18  C   UNL     1       8.056   7.284   4.997  0.00  0.00    +0.015 A 
ATOM     19  C   UNL     1       7.722   8.259   4.151  0.00  0.00    +0.071 A 
ATOM     32  H   UNL     1      11.821   7.898   5.341  0.00  0.00    +0.156 HD
ENDROOT
BRANCH  15  20
ATOM      7  N   UNL     1      10.021   4.169   7.314  0.00  0.00    -0.263 NA
ATOM     20  C   UNL     1       9.114   6.401   7.110  0.00  0.00    +0.002 A 
ATOM     21  C   UNL     1       8.902   6.449   8.483  0.00  0.00    +0.011 A 
ATOM     22  C   UNL     1       9.670   5.248   6.579  0.00  0.00    +0.119 A 
ATOM     24  C   UNL     1       9.251   5.359   9.273  0.00  0.00    +0.020 A 
ATOM     27  C   UNL     1       9.802   4.253   8.646  0.00  0.00    +0.111 A 
ENDBRANCH  15  20
BRANCH   6  23
ATOM     23  C   UNL     1      13.423   8.021   4.057  0.00  0.00    +0.077 A 
ATOM     25  C   UNL     1      13.081   7.623   2.764  0.00  0.00    +0.141 A 
ATOM     26  C   UNL     1      14.736   7.876   4.507  0.00  0.00    +0.027 A 
ATOM     28  C   UNL     1      14.052   7.080   1.922  0.00  0.00    +0.047 A 
ATOM     29  C   UNL     1      15.706   7.333   3.665  0.00  0.00    +0.002 A 
ATOM     30  C   UNL     1      15.365   6.935   2.372  0.00  0.00    +0.004 A 
BRANCH  25   3
ATOM      3  O   UNL     1      11.805   7.756   2.304  0.00  0.00    -0.493 OA
ATOM     31  C   UNL     1      11.591   7.518   0.914  0.00  0.00    +0.277 C 
ENDBRANCH  25   3
ENDBRANCH   6  23
TORSDOF 3
ENDMDL
MODEL 8
REMARK VINA RESULT:      -5.8     28.762     31.189
REMARK  Name = 26742294
REMARK  4 active torsions:
REMARK  status: ('A' for Active; 'I' for Inactive)
REMARK    1  A    between atoms: O_3  and  C_25
REMARK    2  A    between atoms: O_3  and  C_31
REMARK    3  A    between atoms: N_6  and  C_23
REMARK    4  A    between atoms: C_15  and  C_20
REMARK                            x       y       z     vdW  Elec       q    Type
REMARK                         _______ _______ _______ _____ _____    ______ ____
ROOT
ATOM      1  O   UNL     1      14.804 -12.649   4.672  0.00  0.00    -0.268 OA
ATOM      2  O   UNL     1      19.626 -13.123   5.418  0.00  0.00    -0.252 OA
ATOM      4  N   UNL     1      16.110 -14.271   3.600  0.00  0.00    -0.311 N 
ATOM      5  N   UNL     1      19.151 -14.933   4.058  0.00  0.00    -0.284 N 
ATOM      6  N   UNL     1      19.856 -12.885   3.124  0.00  0.00    -0.266 N 
ATOM      8  C   UNL     1      17.184 -16.197   4.904  0.00  0.00    +0.027 C 
ATOM      9  C   UNL     1      17.564 -15.995   2.480  0.00  0.00    +0.054 C 
ATOM     10  C   UNL     1      17.098 -16.948   3.582  0.00  0.00    +0.018 C 
ATOM     11  C   UNL     1      16.198 -15.030   4.855  0.00  0.00    +0.130 C 
ATOM     12  C   UNL     1      18.626 -15.727   5.171  0.00  0.00    +0.114 C 
ATOM     13  C   UNL     1      19.031 -15.592   2.747  0.00  0.00    +0.119 C 
ATOM     14  C   UNL     1      16.679 -14.745   2.401  0.00  0.00    +0.034 A 
ATOM     15  C   UNL     1      16.466 -14.072   1.239  0.00  0.00    +0.004 A 
ATOM     16  C   UNL     1      15.335 -13.099   3.656  0.00  0.00    +0.252 A 
ATOM     17  C   UNL     1      19.553 -13.599   4.282  0.00  0.00    +0.307 C 
ATOM     18  C   UNL     1      15.673 -12.857   1.260  0.00  0.00    +0.015 A 
ATOM     19  C   UNL     1      15.141 -12.372   2.383  0.00  0.00    +0.071 A 
ATOM     32  H   UNL     1      19.358 -13.119   2.274  0.00  0.00    +0.156 HD
ENDROOT
BRANCH  15  20
ATOM      7  N   UNL     1      18.839 -14.394  -1.660  0.00  0.00    -0.263 NA
ATOM     20  C   UNL     1      17.044 -14.525  -0.044  0.00  0.00    +0.002 A 
ATOM     21  C   UNL     1      16.392 -15.466  -0.833  0.00  0.00    +0.011 A 
ATOM     22  C   UNL     1      18.254 -14.024  -0.498  0.00  0.00    +0.119 A 
ATOM     24  C   UNL     1      16.962 -15.872  -2.035  0.00  0.00    +0.020 A 
ATOM     27  C   UNL     1      18.175 -15.311  -2.400  0.00  0.00    +0.111 A 
ENDBRANCH  15  20
BRANCH   6  23
ATOM     23  C   UNL     1      20.790 -11.829   2.993  0.00  0.00    +0.077 A 
ATOM     25  C   UNL     1      20.371 -10.553   2.616  0.00  0.00    +0.141 A 
ATOM     26  C   UNL     1      22.140 -12.074   3.246  0.00  0.00    +0.027 A 
ATOM     28  C   UNL     1      21.303  -9.522   2.490  0.00  0.00    +0.047 A 
ATOM     29  C   UNL     1      23.071 -11.043   3.121  0.00  0.00    +0.002 A 
ATOM     30  C   UNL     1      22.653  -9.767   2.743  0.00  0.00    +0.004 A 
BRANCH  25   3
ATOM      3  O   UNL     1      19.057 -10.293   2.364  0.00  0.00    -0.493 OA
ATOM     31  C   UNL     1      18.662 -10.226   0.994  0.00  0.00    +0.277 C 
ENDBRANCH  25   3
ENDBRANCH   6  23
TORSDOF 3
ENDMDL
MODEL 9
REMARK VINA RESULT:      -5.7     14.118     17.224
REMARK  Name = 26742294
REMARK  4 active torsions:
REMARK  status: ('A' for Active; 'I' for Inactive)
REMARK    1  A    between atoms: O_3  and  C_25
REMARK    2  A    between atoms: O_3  and  C_31
REMARK    3  A    between atoms: N_6  and  C_23
REMARK    4  A    between atoms: C_15  and  C_20
REMARK                            x       y       z     vdW  Elec       q    Type
REMARK                         _______ _______ _______ _____ _____    ______ ____
ROOT
ATOM      1  O   UNL     1      18.370  -0.225  31.016  0.00  0.00    -0.268 OA
ATOM      2  O   UNL     1      20.575  -1.207  26.748  0.00  0.00    -0.252 OA
ATOM      4  N   UNL     1      19.039  -2.380  30.389  0.00  0.00    -0.311 N 
ATOM      5  N   UNL     1      20.657  -3.248  27.834  0.00  0.00    -0.284 N 
ATOM      6  N   UNL     1      18.869  -2.732  26.385  0.00  0.00    -0.266 N 
ATOM      8  C   UNL     1      21.515  -2.996  30.153  0.00  0.00    +0.027 C 
ATOM      9  C   UNL     1      19.782  -4.674  29.661  0.00  0.00    +0.054 C 
ATOM     10  C   UNL     1      21.045  -4.407  30.481  0.00  0.00    +0.018 C 
ATOM     11  C   UNL     1      20.442  -2.015  30.626  0.00  0.00    +0.130 C 
ATOM     12  C   UNL     1      21.808  -2.854  28.648  0.00  0.00    +0.114 C 
ATOM     13  C   UNL     1      20.126  -4.583  28.158  0.00  0.00    +0.119 C 
ATOM     14  C   UNL     1      18.663  -3.685  30.007  0.00  0.00    +0.034 A 
ATOM     15  C   UNL     1      17.346  -4.010  29.921  0.00  0.00    +0.004 A 
ATOM     16  C   UNL     1      18.097  -1.374  30.666  0.00  0.00    +0.252 A 
ATOM     17  C   UNL     1      20.062  -2.308  26.965  0.00  0.00    +0.307 C 
ATOM     18  C   UNL     1      16.346  -2.995  30.198  0.00  0.00    +0.015 A 
ATOM     19  C   UNL     1      16.671  -1.748  30.537  0.00  0.00    +0.071 A 
ATOM     32  H   UNL     1      18.279  -3.365  26.912  0.00  0.00    +0.156 HD
ENDROOT
BRANCH  15  20
ATOM      7  N   UNL     1      16.256  -7.600  30.173  0.00  0.00    -0.263 NA
ATOM     20  C   UNL     1      16.900  -5.362  29.521  0.00  0.00    +0.002 A 
ATOM     21  C   UNL     1      16.705  -5.687  28.184  0.00  0.00    +0.011 A 
ATOM     22  C   UNL     1      16.664  -6.345  30.469  0.00  0.00    +0.119 A 
ATOM     24  C   UNL     1      16.285  -6.967  27.839  0.00  0.00    +0.020 A 
ATOM     27  C   UNL     1      16.077  -7.879  28.862  0.00  0.00    +0.111 A 
ENDBRANCH  15  20
BRANCH   6  23
ATOM     23  C   UNL     1      18.356  -2.359  25.119  0.00  0.00    +0.077 A 
ATOM     25  C   UNL     1      18.689  -3.084  23.975  0.00  0.00    +0.141 A 
ATOM     26  C   UNL     1      17.507  -1.256  25.023  0.00  0.00    +0.027 A 
ATOM     28  C   UNL     1      18.176  -2.704  22.734  0.00  0.00    +0.047 A 
ATOM     29  C   UNL     1      16.993  -0.877  23.783  0.00  0.00    +0.002 A 
ATOM     30  C   UNL     1      17.327  -1.601  22.638  0.00  0.00    +0.004 A 
BRANCH  25   3
ATOM      3  O   UNL     1      19.516  -4.165  24.047  0.00  0.00    -0.493 OA
ATOM     31  C   UNL     1      19.451  -5.101  22.972  0.00  0.00    +0.277 C 
ENDBRANCH  25   3
ENDBRANCH   6  23
TORSDOF 3
ENDMDL
MODEL 10
REMARK VINA RESULT:      -5.5     29.503     32.675
REMARK  Name = 26742294
REMARK  4 active torsions:
REMARK  status: ('A' for Active; 'I' for Inactive)
REMARK    1  A    between atoms: O_3  and  C_25
REMARK    2  A    between atoms: O_3  and  C_31
REMARK    3  A    between atoms: N_6  and  C_23
REMARK    4  A    between atoms: C_15  and  C_20
REMARK                            x       y       z     vdW  Elec       q    Type
REMARK                         _______ _______ _______ _____ _____    ______ ____
ROOT
ATOM      1  O   UNL     1     -13.082 -12.963  19.279  0.00  0.00    -0.268 OA
ATOM      2  O   UNL     1      -8.893 -13.545  16.799  0.00  0.00    -0.252 OA
ATOM      4  N   UNL     1     -12.630 -11.867  17.260  0.00  0.00    -0.311 N 
ATOM      5  N   UNL     1     -10.143 -12.226  15.366  0.00  0.00    -0.284 N 
ATOM      6  N   UNL     1      -8.670 -11.242  16.924  0.00  0.00    -0.266 N 
ATOM      8  C   UNL     1     -12.427 -13.157  15.055  0.00  0.00    +0.027 C 
ATOM      9  C   UNL     1     -12.089 -10.719  15.085  0.00  0.00    +0.054 C 
ATOM     10  C   UNL     1     -12.873 -11.849  14.417  0.00  0.00    +0.018 C 
ATOM     11  C   UNL     1     -12.825 -13.128  16.531  0.00  0.00    +0.130 C 
ATOM     12  C   UNL     1     -10.913 -13.367  14.867  0.00  0.00    +0.114 C 
ATOM     13  C   UNL     1     -10.580 -10.929  14.825  0.00  0.00    +0.119 C 
ATOM     14  C   UNL     1     -12.360 -10.655  16.593  0.00  0.00    +0.034 A 
ATOM     15  C   UNL     1     -12.311  -9.493  17.297  0.00  0.00    +0.004 A 
ATOM     16  C   UNL     1     -12.831 -11.936  18.649  0.00  0.00    +0.252 A 
ATOM     17  C   UNL     1      -9.204 -12.419  16.403  0.00  0.00    +0.307 C 
ATOM     18  C   UNL     1     -12.511  -9.526  18.733  0.00  0.00    +0.015 A 
ATOM     19  C   UNL     1     -12.744 -10.660  19.394  0.00  0.00    +0.071 A 
ATOM     32  H   UNL     1      -9.252 -10.413  16.927  0.00  0.00    +0.156 HD
ENDROOT
BRANCH  15  20
ATOM      7  N   UNL     1     -12.856  -6.256  15.462  0.00  0.00    -0.263 NA
ATOM     20  C   UNL     1     -12.028  -8.196  16.645  0.00  0.00    +0.002 A 
ATOM     21  C   UNL     1     -10.734  -7.691  16.584  0.00  0.00    +0.011 A 
ATOM     22  C   UNL     1     -13.044  -7.447  16.073  0.00  0.00    +0.119 A 
ATOM     24  C   UNL     1     -10.500  -6.469  15.964  0.00  0.00    +0.020 A 
ATOM     27  C   UNL     1     -11.584  -5.797  15.424  0.00  0.00    +0.111 A 
ENDBRANCH  15  20
BRANCH   6  23
ATOM     23  C   UNL     1      -7.382 -11.064  17.484  0.00  0.00    +0.077 A 
ATOM     25  C   UNL     1      -7.174 -11.225  18.854  0.00  0.00    +0.141 A 
ATOM     26  C   UNL     1      -6.315 -10.725  16.652  0.00  0.00    +0.027 A 
ATOM     28  C   UNL     1      -5.899 -11.046  19.391  0.00  0.00    +0.047 A 
ATOM     29  C   UNL     1      -5.040 -10.548  17.189  0.00  0.00    +0.002 A 
ATOM     30  C   UNL     1      -4.831 -10.708  18.559  0.00  0.00    +0.004 A 
BRANCH  25   3
ATOM      3  O   UNL     1      -8.202 -11.556  19.685  0.00  0.00    -0.493 OA
ATOM     31  C   UNL     1      -8.295 -12.921  20.087  0.00  0.00    +0.277 C 
ENDBRANCH  25   3
ENDBRANCH   6  23
TORSDOF 3
ENDMDL
