MODEL 1
REMARK VINA RESULT:      -7.7      0.000      0.000
REMARK  Name = 26743532
REMARK  6 active torsions:
REMARK  status: ('A' for Active; 'I' for Inactive)
REMARK    1  A    between atoms: O_1  and  C_11
REMARK    2  A    between atoms: N_3  and  C_13
REMARK    3  A    between atoms: C_9  and  C_14
REMARK    4  A    between atoms: C_13  and  C_15
REMARK    5  A    between atoms: C_18  and  C_22
REMARK    6  A    between atoms: C_21  and  C_23
REMARK                            x       y       z     vdW  Elec       q    Type
REMARK                         _______ _______ _______ _____ _____    ______ ____
ROOT
ATOM      3  N   UNL     1      12.777   8.511  18.757  0.00  0.00    -0.285 NA
ATOM      9  C   UNL     1      13.754   7.426  18.535  0.00  0.00    +0.149 C 
ATOM     10  C   UNL     1      14.237   7.621  17.085  0.00  0.00    +0.061 C 
ATOM     11  C   UNL     1      13.442   8.810  16.562  0.00  0.00    +0.130 C 
ATOM     12  C   UNL     1      12.211   8.832  17.448  0.00  0.00    +0.116 C 
ENDROOT
BRANCH   9  14
ATOM      2  O   UNL     1      15.093   6.309  20.248  0.00  0.00    -0.336 OA
ATOM      4  N   UNL     1      15.717   8.420  19.831  0.00  0.00    -0.189 NA
ATOM      5  N   UNL     1      16.176   6.570  21.098  0.00  0.00    -0.054 NA
ATOM     14  C   UNL     1      14.889   7.450  19.538  0.00  0.00    +0.245 A 
ATOM     18  C   UNL     1      16.487   7.833  20.793  0.00  0.00    +0.222 A 
BRANCH  18  22
ATOM      6  N   UNL     1      18.631   7.803  21.800  0.00  0.00    -0.249 NA
ATOM      8  N   UNL     1      18.504  10.570  22.243  0.00  0.00    -0.260 NA
ATOM     22  C   UNL     1      17.564   8.538  21.429  0.00  0.00    +0.129 A 
ATOM     24  C   UNL     1      17.501   9.896  21.646  0.00  0.00    +0.142 A 
ATOM     27  C   UNL     1      19.634   8.478  22.397  0.00  0.00    +0.131 A 
ATOM     30  C   UNL     1      19.572   9.836  22.616  0.00  0.00    +0.130 A 
ENDBRANCH  18  22
ENDBRANCH   9  14
BRANCH  11   1
ATOM      1  O   UNL     1      13.104   8.628  15.200  0.00  0.00    -0.390 OA
ATOM     31  H   UNL     1      13.139   9.501  14.772  0.00  0.00    +0.210 HD
ENDBRANCH  11   1
BRANCH   3  13
ATOM     13  C   UNL     1      11.748   8.167  19.730  0.00  0.00    +0.120 C 
BRANCH  13  15
ATOM     15  C   UNL     1      11.540   9.265  20.738  0.00  0.00    -0.033 A 
ATOM     16  C   UNL     1      12.074  10.534  20.508  0.00  0.00    +0.005 A 
ATOM     17  C   UNL     1      10.812   9.015  21.902  0.00  0.00    +0.005 A 
ATOM     19  C   UNL     1      11.880  11.552  21.442  0.00  0.00    +0.010 A 
ATOM     20  C   UNL     1      10.618  10.033  22.835  0.00  0.00    +0.010 A 
ATOM     21  C   UNL     1      11.153  11.301  22.606  0.00  0.00    +0.000 A 
BRANCH  21  23
ATOM      7  N   UNL     1      10.797  11.938  24.851  0.00  0.00    -0.255 NA
ATOM     23  C   UNL     1      10.952  12.357  23.575  0.00  0.00    +0.071 A 
ATOM     25  C   UNL     1      10.925  13.687  23.187  0.00  0.00    +0.028 A 
ATOM     26  C   UNL     1      10.727  14.648  24.171  0.00  0.00    +0.004 A 
ATOM     28  C   UNL     1      10.608  12.901  25.781  0.00  0.00    +0.111 A 
ATOM     29  C   UNL     1      10.565  14.256  25.495  0.00  0.00    +0.020 A 
ENDBRANCH  21  23
ENDBRANCH  13  15
ENDBRANCH   3  13
TORSDOF 6
ENDMDL
MODEL 2
REMARK VINA RESULT:      -7.1     24.746     27.378
REMARK  Name = 26743532
REMARK  6 active torsions:
REMARK  status: ('A' for Active; 'I' for Inactive)
REMARK    1  A    between atoms: O_1  and  C_11
REMARK    2  A    between atoms: N_3  and  C_13
REMARK    3  A    between atoms: C_9  and  C_14
REMARK    4  A    between atoms: C_13  and  C_15
REMARK    5  A    between atoms: C_18  and  C_22
REMARK    6  A    between atoms: C_21  and  C_23
REMARK                            x       y       z     vdW  Elec       q    Type
REMARK                         _______ _______ _______ _____ _____    ______ ____
ROOT
ATOM      3  N   UNL     1     -11.766   9.735  20.433  0.00  0.00    -0.285 NA
ATOM      9  C   UNL     1     -12.351   8.618  19.664  0.00  0.00    +0.149 C 
ATOM     10  C   UNL     1     -11.275   8.250  18.624  0.00  0.00    +0.061 C 
ATOM     11  C   UNL     1     -10.143   9.243  18.860  0.00  0.00    +0.130 C 
ATOM     12  C   UNL     1     -10.833  10.413  19.535  0.00  0.00    +0.116 C 
ENDROOT
BRANCH   9  14
ATOM      2  O   UNL     1     -11.736   6.622  20.932  0.00  0.00    -0.336 OA
ATOM      4  N   UNL     1     -13.923   7.103  20.986  0.00  0.00    -0.189 NA
ATOM      5  N   UNL     1     -12.334   5.629  21.720  0.00  0.00    -0.054 NA
ATOM     14  C   UNL     1     -12.742   7.448  20.541  0.00  0.00    +0.245 A 
ATOM     18  C   UNL     1     -13.623   5.982  21.704  0.00  0.00    +0.222 A 
BRANCH  18  22
ATOM      6  N   UNL     1     -15.784   5.012  21.729  0.00  0.00    -0.249 NA
ATOM      8  N   UNL     1     -15.376   4.076  24.341  0.00  0.00    -0.260 NA
ATOM     22  C   UNL     1     -14.635   5.237  22.396  0.00  0.00    +0.129 A 
ATOM     24  C   UNL     1     -14.434   4.777  23.679  0.00  0.00    +0.142 A 
ATOM     27  C   UNL     1     -16.726   4.311  22.392  0.00  0.00    +0.131 A 
ATOM     30  C   UNL     1     -16.526   3.852  23.674  0.00  0.00    +0.130 A 
ENDBRANCH  18  22
ENDBRANCH   9  14
BRANCH  11   1
ATOM      1  O   UNL     1      -9.546   9.623  17.635  0.00  0.00    -0.390 OA
ATOM     31  H   UNL     1      -8.764  10.162  17.846  0.00  0.00    +0.210 HD
ENDBRANCH  11   1
BRANCH   3  13
ATOM     13  C   UNL     1     -12.767  10.645  20.975  0.00  0.00    +0.120 C 
BRANCH  13  15
ATOM     15  C   UNL     1     -12.797  10.615  22.479  0.00  0.00    -0.033 A 
ATOM     16  C   UNL     1     -11.774  11.218  23.211  0.00  0.00    +0.005 A 
ATOM     17  C   UNL     1     -13.850   9.983  23.143  0.00  0.00    +0.005 A 
ATOM     19  C   UNL     1     -11.804  11.190  24.605  0.00  0.00    +0.010 A 
ATOM     20  C   UNL     1     -13.880   9.955  24.536  0.00  0.00    +0.010 A 
ATOM     21  C   UNL     1     -12.855  10.558  25.268  0.00  0.00    +0.000 A 
BRANCH  21  23
ATOM      7  N   UNL     1     -14.116  10.647  27.262  0.00  0.00    -0.255 NA
ATOM     23  C   UNL     1     -12.886  10.528  26.715  0.00  0.00    +0.071 A 
ATOM     25  C   UNL     1     -11.719  10.388  27.450  0.00  0.00    +0.028 A 
ATOM     26  C   UNL     1     -11.823  10.367  28.835  0.00  0.00    +0.004 A 
ATOM     28  C   UNL     1     -14.177  10.623  28.612  0.00  0.00    +0.111 A 
ATOM     29  C   UNL     1     -13.071  10.487  29.436  0.00  0.00    +0.020 A 
ENDBRANCH  21  23
ENDBRANCH  13  15
ENDBRANCH   3  13
TORSDOF 6
ENDMDL
MODEL 3
REMARK VINA RESULT:      -6.8     14.644     19.384
REMARK  Name = 26743532
REMARK  6 active torsions:
REMARK  status: ('A' for Active; 'I' for Inactive)
REMARK    1  A    between atoms: O_1  and  C_11
REMARK    2  A    between atoms: N_3  and  C_13
REMARK    3  A    between atoms: C_9  and  C_14
REMARK    4  A    between atoms: C_13  and  C_15
REMARK    5  A    between atoms: C_18  and  C_22
REMARK    6  A    between atoms: C_21  and  C_23
REMARK                            x       y       z     vdW  Elec       q    Type
REMARK                         _______ _______ _______ _____ _____    ______ ____
ROOT
ATOM      3  N   UNL     1      10.361   5.811   5.811  0.00  0.00    -0.285 NA
ATOM      9  C   UNL     1      11.086   6.705   6.737  0.00  0.00    +0.149 C 
ATOM     10  C   UNL     1      10.975   6.019   8.112  0.00  0.00    +0.061 C 
ATOM     11  C   UNL     1      10.136   4.772   7.865  0.00  0.00    +0.130 C 
ATOM     12  C   UNL     1       9.356   5.114   6.610  0.00  0.00    +0.116 C 
ENDROOT
BRANCH   9  14
ATOM      2  O   UNL     1      13.463   6.832   7.287  0.00  0.00    -0.336 OA
ATOM      4  N   UNL     1      12.998   7.248   5.136  0.00  0.00    -0.189 NA
ATOM      5  N   UNL     1      14.692   7.095   6.667  0.00  0.00    -0.054 NA
ATOM     14  C   UNL     1      12.520   6.944   6.315  0.00  0.00    +0.245 A 
ATOM     18  C   UNL     1      14.334   7.331   5.401  0.00  0.00    +0.222 A 
BRANCH  18  22
ATOM      6  N   UNL     1      16.497   8.080   4.789  0.00  0.00    -0.249 NA
ATOM      8  N   UNL     1      15.861   7.816   2.070  0.00  0.00    -0.260 NA
ATOM     22  C   UNL     1      15.288   7.650   4.377  0.00  0.00    +0.129 A 
ATOM     24  C   UNL     1      14.975   7.520   3.042  0.00  0.00    +0.142 A 
ATOM     27  C   UNL     1      17.382   8.377   3.817  0.00  0.00    +0.131 A 
ATOM     30  C   UNL     1      17.070   8.248   2.482  0.00  0.00    +0.130 A 
ENDBRANCH  18  22
ENDBRANCH   9  14
BRANCH  11   1
ATOM      1  O   UNL     1       9.278   4.519   8.962  0.00  0.00    -0.390 OA
ATOM     31  H   UNL     1       9.839   4.277   9.720  0.00  0.00    +0.210 HD
ENDBRANCH  11   1
BRANCH   3  13
ATOM     13  C   UNL     1       9.772   6.513   4.678  0.00  0.00    +0.120 C 
BRANCH  13  15
ATOM     15  C   UNL     1      10.155   5.882   3.367  0.00  0.00    -0.033 A 
ATOM     16  C   UNL     1       9.811   6.504   2.166  0.00  0.00    +0.005 A 
ATOM     17  C   UNL     1      10.855   4.675   3.351  0.00  0.00    +0.005 A 
ATOM     19  C   UNL     1      10.166   5.919   0.950  0.00  0.00    +0.010 A 
ATOM     20  C   UNL     1      11.210   4.090   2.136  0.00  0.00    +0.010 A 
ATOM     21  C   UNL     1      10.865   4.713   0.935  0.00  0.00    +0.000 A 
BRANCH  21  23
ATOM      7  N   UNL     1      10.324   4.249  -1.315  0.00  0.00    -0.255 NA
ATOM     23  C   UNL     1      11.233   4.105  -0.326  0.00  0.00    +0.071 A 
ATOM     25  C   UNL     1      12.436   3.432  -0.469  0.00  0.00    +0.028 A 
ATOM     26  C   UNL     1      12.725   2.872  -1.708  0.00  0.00    +0.004 A 
ATOM     28  C   UNL     1      10.639   3.691  -2.506  0.00  0.00    +0.111 A 
ATOM     29  C   UNL     1      11.815   3.000  -2.751  0.00  0.00    +0.020 A 
ENDBRANCH  21  23
ENDBRANCH  13  15
ENDBRANCH   3  13
TORSDOF 6
ENDMDL
MODEL 4
REMARK VINA RESULT:      -6.8     16.720     21.141
REMARK  Name = 26743532
REMARK  6 active torsions:
REMARK  status: ('A' for Active; 'I' for Inactive)
REMARK    1  A    between atoms: O_1  and  C_11
REMARK    2  A    between atoms: N_3  and  C_13
REMARK    3  A    between atoms: C_9  and  C_14
REMARK    4  A    between atoms: C_13  and  C_15
REMARK    5  A    between atoms: C_18  and  C_22
REMARK    6  A    between atoms: C_21  and  C_23
REMARK                            x       y       z     vdW  Elec       q    Type
REMARK                         _______ _______ _______ _____ _____    ______ ____
ROOT
ATOM      3  N   UNL     1      12.531   4.829   1.282  0.00  0.00    -0.285 NA
ATOM      9  C   UNL     1      12.949   4.926  -0.131  0.00  0.00    +0.149 C 
ATOM     10  C   UNL     1      14.137   3.954  -0.257  0.00  0.00    +0.061 C 
ATOM     11  C   UNL     1      14.338   3.392   1.145  0.00  0.00    +0.130 C 
ATOM     12  C   UNL     1      13.720   4.448   2.041  0.00  0.00    +0.116 C 
ENDROOT
BRANCH   9  14
ATOM      2  O   UNL     1      11.614   3.291  -1.363  0.00  0.00    -0.336 OA
ATOM      4  N   UNL     1      11.015   5.420  -1.722  0.00  0.00    -0.189 NA
ATOM      5  N   UNL     1      10.545   3.247  -2.266  0.00  0.00    -0.054 NA
ATOM     14  C   UNL     1      11.826   4.607  -1.094  0.00  0.00    +0.245 A 
ATOM     18  C   UNL     1      10.247   4.540  -2.428  0.00  0.00    +0.222 A 
BRANCH  18  22
ATOM      6  N   UNL     1       9.130   4.432  -4.515  0.00  0.00    -0.249 NA
ATOM      8  N   UNL     1       7.278   6.360  -3.667  0.00  0.00    -0.260 NA
ATOM     22  C   UNL     1       9.187   4.986  -3.287  0.00  0.00    +0.129 A 
ATOM     24  C   UNL     1       8.277   5.932  -2.870  0.00  0.00    +0.142 A 
ATOM     27  C   UNL     1       8.130   4.860  -5.311  0.00  0.00    +0.131 A 
ATOM     30  C   UNL     1       7.221   5.808  -4.895  0.00  0.00    +0.130 A 
ENDBRANCH  18  22
ENDBRANCH   9  14
BRANCH  11   1
ATOM      1  O   UNL     1      15.715   3.211   1.420  0.00  0.00    -0.390 OA
ATOM     31  H   UNL     1      16.061   2.578   0.767  0.00  0.00    +0.210 HD
ENDBRANCH  11   1
BRANCH   3  13
ATOM     13  C   UNL     1      11.926   6.054   1.788  0.00  0.00    +0.120 C 
BRANCH  13  15
ATOM     15  C   UNL     1      11.403   5.885   3.189  0.00  0.00    -0.033 A 
ATOM     16  C   UNL     1      10.478   4.881   3.473  0.00  0.00    +0.005 A 
ATOM     17  C   UNL     1      11.845   6.734   4.206  0.00  0.00    +0.005 A 
ATOM     19  C   UNL     1       9.994   4.724   4.772  0.00  0.00    +0.010 A 
ATOM     20  C   UNL     1      11.361   6.577   5.504  0.00  0.00    +0.010 A 
ATOM     21  C   UNL     1      10.435   5.572   5.787  0.00  0.00    +0.000 A 
BRANCH  21  23
ATOM      7  N   UNL     1      10.028   4.157   7.633  0.00  0.00    -0.255 NA
ATOM     23  C   UNL     1       9.933   5.410   7.135  0.00  0.00    +0.071 A 
ATOM     25  C   UNL     1       9.400   6.484   7.831  0.00  0.00    +0.028 A 
ATOM     26  C   UNL     1       8.936   6.256   9.121  0.00  0.00    +0.004 A 
ATOM     28  C   UNL     1       9.566   3.974   8.890  0.00  0.00    +0.111 A 
ATOM     29  C   UNL     1       9.017   4.981   9.668  0.00  0.00    +0.020 A 
ENDBRANCH  21  23
ENDBRANCH  13  15
ENDBRANCH   3  13
TORSDOF 6
ENDMDL
MODEL 5
REMARK VINA RESULT:      -6.6     27.496     29.305
REMARK  Name = 26743532
REMARK  6 active torsions:
REMARK  status: ('A' for Active; 'I' for Inactive)
REMARK    1  A    between atoms: O_1  and  C_11
REMARK    2  A    between atoms: N_3  and  C_13
REMARK    3  A    between atoms: C_9  and  C_14
REMARK    4  A    between atoms: C_13  and  C_15
REMARK    5  A    between atoms: C_18  and  C_22
REMARK    6  A    between atoms: C_21  and  C_23
REMARK                            x       y       z     vdW  Elec       q    Type
REMARK                         _______ _______ _______ _____ _____    ______ ____
ROOT
ATOM      3  N   UNL     1      -3.375 -11.612  14.514  0.00  0.00    -0.285 NA
ATOM      9  C   UNL     1      -2.332 -11.474  13.478  0.00  0.00    +0.149 C 
ATOM     10  C   UNL     1      -1.904 -12.919  13.156  0.00  0.00    +0.061 C 
ATOM     11  C   UNL     1      -2.729 -13.792  14.092  0.00  0.00    +0.130 C 
ATOM     12  C   UNL     1      -3.087 -12.854  15.229  0.00  0.00    +0.116 C 
ENDROOT
BRANCH   9  14
ATOM      2  O   UNL     1      -1.899  -9.963  11.607  0.00  0.00    -0.336 OA
ATOM      4  N   UNL     1      -4.014 -10.690  11.724  0.00  0.00    -0.189 NA
ATOM      5  N   UNL     1      -2.573  -9.372  10.531  0.00  0.00    -0.054 NA
ATOM     14  C   UNL     1      -2.819 -10.723  12.257  0.00  0.00    +0.245 A 
ATOM     18  C   UNL     1      -3.814  -9.850  10.668  0.00  0.00    +0.222 A 
BRANCH  18  22
ATOM      6  N   UNL     1      -5.908  -8.810  10.283  0.00  0.00    -0.249 NA
ATOM      8  N   UNL     1      -5.827  -9.559   7.582  0.00  0.00    -0.260 NA
ATOM     22  C   UNL     1      -4.876  -9.507   9.766  0.00  0.00    +0.129 A 
ATOM     24  C   UNL     1      -4.836  -9.875   8.439  0.00  0.00    +0.142 A 
ATOM     27  C   UNL     1      -6.898  -8.495   9.425  0.00  0.00    +0.131 A 
ATOM     30  C   UNL     1      -6.859  -8.864   8.099  0.00  0.00    +0.130 A 
ENDBRANCH  18  22
ENDBRANCH   9  14
BRANCH  11   1
ATOM      1  O   UNL     1      -1.971 -14.898  14.545  0.00  0.00    -0.390 OA
ATOM     31  H   UNL     1      -1.082 -14.572  14.764  0.00  0.00    +0.210 HD
ENDBRANCH  11   1
BRANCH   3  13
ATOM     13  C   UNL     1      -3.447 -10.466  15.412  0.00  0.00    +0.120 C 
BRANCH  13  15
ATOM     15  C   UNL     1      -4.779 -10.381  16.107  0.00  0.00    -0.033 A 
ATOM     16  C   UNL     1      -5.932 -10.096  15.374  0.00  0.00    +0.005 A 
ATOM     17  C   UNL     1      -4.862 -10.587  17.485  0.00  0.00    +0.005 A 
ATOM     19  C   UNL     1      -7.167 -10.018  16.018  0.00  0.00    +0.010 A 
ATOM     20  C   UNL     1      -6.096 -10.508  18.129  0.00  0.00    +0.010 A 
ATOM     21  C   UNL     1      -7.249 -10.223  17.395  0.00  0.00    +0.000 A 
BRANCH  21  23
ATOM      7  N   UNL     1      -8.630 -10.872  19.197  0.00  0.00    -0.255 NA
ATOM     23  C   UNL     1      -8.530 -10.141  18.064  0.00  0.00    +0.071 A 
ATOM     25  C   UNL     1      -9.554  -9.362  17.550  0.00  0.00    +0.028 A 
ATOM     26  C   UNL     1     -10.758  -9.330  18.245  0.00  0.00    +0.004 A 
ATOM     28  C   UNL     1      -9.815 -10.815  19.845  0.00  0.00    +0.111 A 
ATOM     29  C   UNL     1     -10.899 -10.068  19.415  0.00  0.00    +0.020 A 
ENDBRANCH  21  23
ENDBRANCH  13  15
ENDBRANCH   3  13
TORSDOF 6
ENDMDL
MODEL 6
REMARK VINA RESULT:      -6.5     26.878     30.109
REMARK  Name = 26743532
REMARK  6 active torsions:
REMARK  status: ('A' for Active; 'I' for Inactive)
REMARK    1  A    between atoms: O_1  and  C_11
REMARK    2  A    between atoms: N_3  and  C_13
REMARK    3  A    between atoms: C_9  and  C_14
REMARK    4  A    between atoms: C_13  and  C_15
REMARK    5  A    between atoms: C_18  and  C_22
REMARK    6  A    between atoms: C_21  and  C_23
REMARK                            x       y       z     vdW  Elec       q    Type
REMARK                         _______ _______ _______ _____ _____    ______ ____
ROOT
ATOM      3  N   UNL     1      -3.253 -11.298  14.575  0.00  0.00    -0.285 NA
ATOM      9  C   UNL     1      -3.528 -11.434  16.019  0.00  0.00    +0.149 C 
ATOM     10  C   UNL     1      -2.373 -10.687  16.712  0.00  0.00    +0.061 C 
ATOM     11  C   UNL     1      -1.479 -10.204  15.577  0.00  0.00    +0.130 C 
ATOM     12  C   UNL     1      -1.805 -11.155  14.440  0.00  0.00    +0.116 C 
ENDROOT
BRANCH   9  14
ATOM      2  O   UNL     1      -5.348  -9.837  15.689  0.00  0.00    -0.336 OA
ATOM      4  N   UNL     1      -5.706 -11.302  17.346  0.00  0.00    -0.189 NA
ATOM      5  N   UNL     1      -6.604  -9.521  16.224  0.00  0.00    -0.054 NA
ATOM     14  C   UNL     1      -4.889 -10.896  16.407  0.00  0.00    +0.245 A 
ATOM     18  C   UNL     1      -6.743 -10.428  17.195  0.00  0.00    +0.222 A 
BRANCH  18  22
ATOM      6  N   UNL     1      -8.991  -9.806  17.613  0.00  0.00    -0.249 NA
ATOM      8  N   UNL     1      -8.996 -11.281  19.999  0.00  0.00    -0.260 NA
ATOM     22  C   UNL     1      -7.907 -10.490  18.032  0.00  0.00    +0.129 A 
ATOM     24  C   UNL     1      -7.910 -11.215  19.204  0.00  0.00    +0.142 A 
ATOM     27  C   UNL     1     -10.077  -9.873  18.409  0.00  0.00    +0.131 A 
ATOM     30  C   UNL     1     -10.079 -10.596  19.581  0.00  0.00    +0.130 A 
ENDBRANCH  18  22
ENDBRANCH   9  14
BRANCH  11   1
ATOM      1  O   UNL     1      -0.115 -10.278  15.947  0.00  0.00    -0.390 OA
ATOM     31  H   UNL     1       0.094 -11.215  16.104  0.00  0.00    +0.210 HD
ENDBRANCH  11   1
BRANCH   3  13
ATOM     13  C   UNL     1      -3.770 -12.408  13.785  0.00  0.00    +0.120 C 
BRANCH  13  15
ATOM     15  C   UNL     1      -4.193 -11.968  12.409  0.00  0.00    -0.033 A 
ATOM     16  C   UNL     1      -5.003 -10.844  12.253  0.00  0.00    +0.005 A 
ATOM     17  C   UNL     1      -3.773 -12.686  11.287  0.00  0.00    +0.005 A 
ATOM     19  C   UNL     1      -5.394 -10.436  10.977  0.00  0.00    +0.010 A 
ATOM     20  C   UNL     1      -4.163 -12.278  10.012  0.00  0.00    +0.010 A 
ATOM     21  C   UNL     1      -4.975 -11.153   9.857  0.00  0.00    +0.000 A 
BRANCH  21  23
ATOM      7  N   UNL     1      -6.330  -9.770   8.508  0.00  0.00    -0.255 NA
ATOM     23  C   UNL     1      -5.381 -10.731   8.534  0.00  0.00    +0.071 A 
ATOM     25  C   UNL     1      -4.816 -11.296   7.401  0.00  0.00    +0.028 A 
ATOM     26  C   UNL     1      -5.254 -10.843   6.162  0.00  0.00    +0.004 A 
ATOM     28  C   UNL     1      -6.731  -9.355   7.285  0.00  0.00    +0.111 A 
ATOM     29  C   UNL     1      -6.229  -9.854   6.094  0.00  0.00    +0.020 A 
ENDBRANCH  21  23
ENDBRANCH  13  15
ENDBRANCH   3  13
TORSDOF 6
ENDMDL
MODEL 7
REMARK VINA RESULT:      -6.5     14.326     18.641
REMARK  Name = 26743532
REMARK  6 active torsions:
REMARK  status: ('A' for Active; 'I' for Inactive)
REMARK    1  A    between atoms: O_1  and  C_11
REMARK    2  A    between atoms: N_3  and  C_13
REMARK    3  A    between atoms: C_9  and  C_14
REMARK    4  A    between atoms: C_13  and  C_15
REMARK    5  A    between atoms: C_18  and  C_22
REMARK    6  A    between atoms: C_21  and  C_23
REMARK                            x       y       z     vdW  Elec       q    Type
REMARK                         _______ _______ _______ _____ _____    ______ ____
ROOT
ATOM      3  N   UNL     1      10.122   5.973   6.110  0.00  0.00    -0.285 NA
ATOM      9  C   UNL     1      10.191   6.963   7.203  0.00  0.00    +0.149 C 
ATOM     10  C   UNL     1      10.226   6.123   8.494  0.00  0.00    +0.061 C 
ATOM     11  C   UNL     1      10.129   4.677   8.025  0.00  0.00    +0.130 C 
ATOM     12  C   UNL     1       9.469   4.789   6.664  0.00  0.00    +0.116 C 
ENDROOT
BRANCH   9  14
ATOM      2  O   UNL     1      11.200   9.169   7.501  0.00  0.00    -0.336 OA
ATOM      4  N   UNL     1      12.578   7.646   6.608  0.00  0.00    -0.189 NA
ATOM      5  N   UNL     1      12.418   9.826   7.285  0.00  0.00    -0.054 NA
ATOM     14  C   UNL     1      11.381   7.891   7.076  0.00  0.00    +0.245 A 
ATOM     18  C   UNL     1      13.179   8.862   6.757  0.00  0.00    +0.222 A 
BRANCH  18  22
ATOM      6  N   UNL     1      15.076  10.279   6.683  0.00  0.00    -0.249 NA
ATOM      8  N   UNL     1      16.546   8.305   5.338  0.00  0.00    -0.260 NA
ATOM     22  C   UNL     1      14.543   9.082   6.369  0.00  0.00    +0.129 A 
ATOM     24  C   UNL     1      15.264   8.112   5.709  0.00  0.00    +0.142 A 
ATOM     27  C   UNL     1      16.358  10.471   6.313  0.00  0.00    +0.131 A 
ATOM     30  C   UNL     1      17.079   9.502   5.651  0.00  0.00    +0.130 A 
ENDBRANCH  18  22
ENDBRANCH   9  14
BRANCH  11   1
ATOM      1  O   UNL     1       9.350   3.910   8.924  0.00  0.00    -0.390 OA
ATOM     31  H   UNL     1       9.222   4.443   9.727  0.00  0.00    +0.210 HD
ENDBRANCH  11   1
BRANCH   3  13
ATOM     13  C   UNL     1       9.438   6.473   4.924  0.00  0.00    +0.120 C 
BRANCH  13  15
ATOM     15  C   UNL     1      10.002   5.882   3.660  0.00  0.00    -0.033 A 
ATOM     16  C   UNL     1       9.815   6.533   2.441  0.00  0.00    +0.005 A 
ATOM     17  C   UNL     1      10.713   4.681   3.708  0.00  0.00    +0.005 A 
ATOM     19  C   UNL     1      10.338   5.985   1.270  0.00  0.00    +0.010 A 
ATOM     20  C   UNL     1      11.236   4.134   2.537  0.00  0.00    +0.010 A 
ATOM     21  C   UNL     1      11.048   4.786   1.317  0.00  0.00    +0.000 A 
BRANCH  21  23
ATOM      7  N   UNL     1      10.673   3.903  -0.840  0.00  0.00    -0.255 NA
ATOM     23  C   UNL     1      11.590   4.216   0.102  0.00  0.00    +0.071 A 
ATOM     25  C   UNL     1      12.954   4.020  -0.047  0.00  0.00    +0.028 A 
ATOM     26  C   UNL     1      13.405   3.468  -1.240  0.00  0.00    +0.004 A 
ATOM     28  C   UNL     1      11.149   3.368  -1.987  0.00  0.00    +0.111 A 
ATOM     29  C   UNL     1      12.492   3.133  -2.233  0.00  0.00    +0.020 A 
ENDBRANCH  21  23
ENDBRANCH  13  15
ENDBRANCH   3  13
TORSDOF 6
ENDMDL
MODEL 8
REMARK VINA RESULT:      -6.5      5.017      8.502
REMARK  Name = 26743532
REMARK  6 active torsions:
REMARK  status: ('A' for Active; 'I' for Inactive)
REMARK    1  A    between atoms: O_1  and  C_11
REMARK    2  A    between atoms: N_3  and  C_13
REMARK    3  A    between atoms: C_9  and  C_14
REMARK    4  A    between atoms: C_13  and  C_15
REMARK    5  A    between atoms: C_18  and  C_22
REMARK    6  A    between atoms: C_21  and  C_23
REMARK                            x       y       z     vdW  Elec       q    Type
REMARK                         _______ _______ _______ _____ _____    ______ ____
ROOT
ATOM      3  N   UNL     1      21.124   6.809  21.360  0.00  0.00    -0.285 NA
ATOM      9  C   UNL     1      22.139   6.544  22.400  0.00  0.00    +0.149 C 
ATOM     10  C   UNL     1      23.259   7.565  22.126  0.00  0.00    +0.061 C 
ATOM     11  C   UNL     1      22.803   8.328  20.889  0.00  0.00    +0.130 C 
ATOM     12  C   UNL     1      21.840   7.369  20.216  0.00  0.00    +0.116 C 
ENDROOT
BRANCH   9  14
ATOM      2  O   UNL     1      20.621   7.593  24.001  0.00  0.00    -0.336 OA
ATOM      4  N   UNL     1      21.886   5.963  24.873  0.00  0.00    -0.189 NA
ATOM      5  N   UNL     1      20.265   7.505  25.354  0.00  0.00    -0.054 NA
ATOM     14  C   UNL     1      21.580   6.651  23.802  0.00  0.00    +0.245 A 
ATOM     18  C   UNL     1      21.054   6.522  25.799  0.00  0.00    +0.222 A 
BRANCH  18  22
ATOM      6  N   UNL     1      20.070   6.586  27.953  0.00  0.00    -0.249 NA
ATOM      8  N   UNL     1      21.951   4.739  28.910  0.00  0.00    -0.260 NA
ATOM     22  C   UNL     1      21.034   6.075  27.162  0.00  0.00    +0.129 A 
ATOM     24  C   UNL     1      21.958   5.167  27.632  0.00  0.00    +0.142 A 
ATOM     27  C   UNL     1      20.064   6.158  29.231  0.00  0.00    +0.131 A 
ATOM     30  C   UNL     1      20.988   5.252  29.701  0.00  0.00    +0.130 A 
ENDBRANCH  18  22
ENDBRANCH   9  14
BRANCH  11   1
ATOM      1  O   UNL     1      23.904   8.636  20.055  0.00  0.00    -0.390 OA
ATOM     31  H   UNL     1      24.713   8.403  20.543  0.00  0.00    +0.210 HD
ENDBRANCH  11   1
BRANCH   3  13
ATOM     13  C   UNL     1      20.349   5.629  21.000  0.00  0.00    +0.120 C 
BRANCH  13  15
ATOM     15  C   UNL     1      18.942   5.982  20.600  0.00  0.00    -0.033 A 
ATOM     16  C   UNL     1      18.419   5.513  19.395  0.00  0.00    +0.005 A 
ATOM     17  C   UNL     1      18.159   6.779  21.437  0.00  0.00    +0.005 A 
ATOM     19  C   UNL     1      17.114   5.840  19.026  0.00  0.00    +0.010 A 
ATOM     20  C   UNL     1      16.855   7.106  21.068  0.00  0.00    +0.010 A 
ATOM     21  C   UNL     1      16.332   6.637  19.861  0.00  0.00    +0.000 A 
BRANCH  21  23
ATOM      7  N   UNL     1      14.050   6.797  20.443  0.00  0.00    -0.255 NA
ATOM     23  C   UNL     1      14.979   6.977  19.478  0.00  0.00    +0.071 A 
ATOM     25  C   UNL     1      14.695   7.448  18.206  0.00  0.00    +0.028 A 
ATOM     26  C   UNL     1      13.373   7.755  17.907  0.00  0.00    +0.004 A 
ATOM     28  C   UNL     1      12.776   7.106  20.116  0.00  0.00    +0.111 A 
ATOM     29  C   UNL     1      12.389   7.583  18.874  0.00  0.00    +0.020 A 
ENDBRANCH  21  23
ENDBRANCH  13  15
ENDBRANCH   3  13
TORSDOF 6
ENDMDL
MODEL 9
REMARK VINA RESULT:      -6.5     22.538     26.722
REMARK  Name = 26743532
REMARK  6 active torsions:
REMARK  status: ('A' for Active; 'I' for Inactive)
REMARK    1  A    between atoms: O_1  and  C_11
REMARK    2  A    between atoms: N_3  and  C_13
REMARK    3  A    between atoms: C_9  and  C_14
REMARK    4  A    between atoms: C_13  and  C_15
REMARK    5  A    between atoms: C_18  and  C_22
REMARK    6  A    between atoms: C_21  and  C_23
REMARK                            x       y       z     vdW  Elec       q    Type
REMARK                         _______ _______ _______ _____ _____    ______ ____
ROOT
ATOM      3  N   UNL     1      -1.893  10.052   4.888  0.00  0.00    -0.285 NA
ATOM      9  C   UNL     1      -2.258   8.961   5.814  0.00  0.00    +0.149 C 
ATOM     10  C   UNL     1      -2.479   9.655   7.172  0.00  0.00    +0.061 C 
ATOM     11  C   UNL     1      -2.172  11.125   6.918  0.00  0.00    +0.130 C 
ATOM     12  C   UNL     1      -1.268  11.094   5.701  0.00  0.00    +0.116 C 
ENDROOT
BRANCH   9  14
ATOM      2  O   UNL     1      -3.388   6.829   5.428  0.00  0.00    -0.336 OA
ATOM      4  N   UNL     1      -4.608   8.624   4.875  0.00  0.00    -0.189 NA
ATOM      5  N   UNL     1      -4.609   6.337   4.949  0.00  0.00    -0.054 NA
ATOM     14  C   UNL     1      -3.471   8.183   5.350  0.00  0.00    +0.245 A 
ATOM     18  C   UNL     1      -5.274   7.456   4.644  0.00  0.00    +0.222 A 
BRANCH  18  22
ATOM      6  N   UNL     1      -7.322   6.316   4.302  0.00  0.00    -0.249 NA
ATOM      8  N   UNL     1      -8.363   8.522   2.917  0.00  0.00    -0.260 NA
ATOM     22  C   UNL     1      -6.604   7.440   4.106  0.00  0.00    +0.129 A 
ATOM     24  C   UNL     1      -7.115   8.524   3.427  0.00  0.00    +0.142 A 
ATOM     27  C   UNL     1      -8.570   6.315   3.792  0.00  0.00    +0.131 A 
ATOM     30  C   UNL     1      -9.081   7.398   3.111  0.00  0.00    +0.130 A 
ENDBRANCH  18  22
ENDBRANCH   9  14
BRANCH  11   1
ATOM      1  O   UNL     1      -1.526  11.703   8.037  0.00  0.00    -0.390 OA
ATOM     31  H   UNL     1      -1.908  11.300   8.835  0.00  0.00    +0.210 HD
ENDBRANCH  11   1
BRANCH   3  13
ATOM     13  C   UNL     1      -1.032   9.616   3.797  0.00  0.00    +0.120 C 
BRANCH  13  15
ATOM     15  C   UNL     1      -1.670   9.842   2.453  0.00  0.00    -0.033 A 
ATOM     16  C   UNL     1      -2.983  10.306   2.373  0.00  0.00    +0.005 A 
ATOM     17  C   UNL     1      -0.948   9.587   1.286  0.00  0.00    +0.005 A 
ATOM     19  C   UNL     1      -3.574  10.516   1.127  0.00  0.00    +0.010 A 
ATOM     20  C   UNL     1      -1.539   9.797   0.041  0.00  0.00    +0.010 A 
ATOM     21  C   UNL     1      -2.853  10.261  -0.039  0.00  0.00    +0.000 A 
BRANCH  21  23
ATOM      7  N   UNL     1      -4.816  10.420  -1.340  0.00  0.00    -0.255 NA
ATOM     23  C   UNL     1      -3.466  10.478  -1.332  0.00  0.00    +0.071 A 
ATOM     25  C   UNL     1      -2.693  10.722  -2.456  0.00  0.00    +0.028 A 
ATOM     26  C   UNL     1      -3.349  10.921  -3.665  0.00  0.00    +0.004 A 
ATOM     28  C   UNL     1      -5.419  10.618  -2.534  0.00  0.00    +0.111 A 
ATOM     29  C   UNL     1      -4.737  10.869  -3.713  0.00  0.00    +0.020 A 
ENDBRANCH  21  23
ENDBRANCH  13  15
ENDBRANCH   3  13
TORSDOF 6
ENDMDL
MODEL 10
REMARK VINA RESULT:      -6.4      4.072     10.023
REMARK  Name = 26743532
REMARK  6 active torsions:
REMARK  status: ('A' for Active; 'I' for Inactive)
REMARK    1  A    between atoms: O_1  and  C_11
REMARK    2  A    between atoms: N_3  and  C_13
REMARK    3  A    between atoms: C_9  and  C_14
REMARK    4  A    between atoms: C_13  and  C_15
REMARK    5  A    between atoms: C_18  and  C_22
REMARK    6  A    between atoms: C_21  and  C_23
REMARK                            x       y       z     vdW  Elec       q    Type
REMARK                         _______ _______ _______ _____ _____    ______ ____
ROOT
ATOM      3  N   UNL     1      17.116   8.099  20.847  0.00  0.00    -0.285 NA
ATOM      9  C   UNL     1      15.852   8.771  21.209  0.00  0.00    +0.149 C 
ATOM     10  C   UNL     1      16.188  10.274  21.200  0.00  0.00    +0.061 C 
ATOM     11  C   UNL     1      17.673  10.344  20.865  0.00  0.00    +0.130 C 
ATOM     12  C   UNL     1      18.195   8.983  21.285  0.00  0.00    +0.116 C 
ENDROOT
BRANCH   9  14
ATOM      2  O   UNL     1      14.001   7.305  20.579  0.00  0.00    -0.336 OA
ATOM      4  N   UNL     1      14.310   9.036  19.191  0.00  0.00    -0.189 NA
ATOM      5  N   UNL     1      13.022   7.186  19.584  0.00  0.00    -0.054 NA
ATOM     14  C   UNL     1      14.715   8.420  20.272  0.00  0.00    +0.245 A 
ATOM     18  C   UNL     1      13.270   8.243  18.804  0.00  0.00    +0.222 A 
BRANCH  18  22
ATOM      6  N   UNL     1      11.159   8.390  17.737  0.00  0.00    -0.249 NA
ATOM      8  N   UNL     1      12.380   9.219  15.352  0.00  0.00    -0.260 NA
ATOM     22  C   UNL     1      12.495   8.534  17.631  0.00  0.00    +0.129 A 
ATOM     24  C   UNL     1      13.095   8.942  16.460  0.00  0.00    +0.142 A 
ATOM     27  C   UNL     1      10.445   8.667  16.628  0.00  0.00    +0.131 A 
ATOM     30  C   UNL     1      11.044   9.073  15.457  0.00  0.00    +0.130 A 
ENDBRANCH  18  22
ENDBRANCH   9  14
BRANCH  11   1
ATOM      1  O   UNL     1      18.300  11.390  21.583  0.00  0.00    -0.390 OA
ATOM     31  H   UNL     1      18.397  12.143  20.975  0.00  0.00    +0.210 HD
ENDBRANCH  11   1
BRANCH   3  13
ATOM     13  C   UNL     1      17.238   6.762  21.413  0.00  0.00    +0.120 C 
BRANCH  13  15
ATOM     15  C   UNL     1      18.640   6.228  21.293  0.00  0.00    -0.033 A 
ATOM     16  C   UNL     1      19.005   5.469  20.181  0.00  0.00    +0.005 A 
ATOM     17  C   UNL     1      19.576   6.493  22.294  0.00  0.00    +0.005 A 
ATOM     19  C   UNL     1      20.305   4.974  20.070  0.00  0.00    +0.010 A 
ATOM     20  C   UNL     1      20.875   5.999  22.183  0.00  0.00    +0.010 A 
ATOM     21  C   UNL     1      21.239   5.238  21.070  0.00  0.00    +0.000 A 
BRANCH  21  23
ATOM      7  N   UNL     1      23.547   5.667  20.816  0.00  0.00    -0.255 NA
ATOM     23  C   UNL     1      22.588   4.725  20.956  0.00  0.00    +0.071 A 
ATOM     25  C   UNL     1      22.837   3.362  20.989  0.00  0.00    +0.028 A 
ATOM     26  C   UNL     1      24.156   2.940  20.873  0.00  0.00    +0.004 A 
ATOM     28  C   UNL     1      24.817   5.218  20.706  0.00  0.00    +0.111 A 
ATOM     29  C   UNL     1      25.171   3.879  20.728  0.00  0.00    +0.020 A 
ENDBRANCH  21  23
ENDBRANCH  13  15
ENDBRANCH   3  13
TORSDOF 6
ENDMDL
