MODEL 1
REMARK VINA RESULT:      -7.0      0.000      0.000
REMARK  Name = 11883367
REMARK  9 active torsions:
REMARK  status: ('A' for Active; 'I' for Inactive)
REMARK    1  A    between atoms: O_3  and  C_13
REMARK    2  A    between atoms: O_3  and  C_17
REMARK    3  A    between atoms: O_6  and  C_27
REMARK    4  A    between atoms: O_6  and  C_30
REMARK    5  A    between atoms: O_7  and  C_28
REMARK    6  A    between atoms: O_7  and  C_31
REMARK    7  A    between atoms: N_8  and  C_12
REMARK    8  A    between atoms: N_9  and  C_21
REMARK    9  A    between atoms: C_16  and  C_18
REMARK                            x       y       z     vdW  Elec       q    Type
REMARK                         _______ _______ _______ _____ _____    ______ ____
ROOT
ATOM      1  O   UNL     1     -16.604   4.816  25.402  0.00  0.00    -0.368 OA
ATOM      2  O   UNL     1     -17.027   2.140  23.965  0.00  0.00    -0.368 OA
ATOM     10  C   UNL     1     -16.288   2.478  25.157  0.00  0.00    +0.173 C 
ATOM     11  C   UNL     1     -15.667   3.840  24.916  0.00  0.00    +0.192 C 
ATOM     12  C   UNL     1     -17.237   2.710  26.309  0.00  0.00    +0.130 C 
ATOM     13  C   UNL     1     -15.545   3.882  23.412  0.00  0.00    +0.235 C 
ATOM     14  C   UNL     1     -17.680   4.145  26.077  0.00  0.00    +0.185 C 
ATOM     15  C   UNL     1     -16.790   3.146  22.970  0.00  0.00    +0.207 C 
ENDROOT
BRANCH  12   8
ATOM      4  O   UNL     1     -17.239   0.390  28.000  0.00  0.00    -0.270 OA
ATOM      8  N   UNL     1     -16.564   2.569  27.577  0.00  0.00    -0.304 N 
ATOM     16  C   UNL     1     -16.623   1.401  28.326  0.00  0.00    +0.244 C 
ATOM     32  H   UNL     1     -16.126   3.398  27.962  0.00  0.00    +0.149 HD
BRANCH  16  18
ATOM     18  C   UNL     1     -15.898   1.423  29.623  0.00  0.00    +0.037 A 
ATOM     19  C   UNL     1     -15.513   2.640  30.186  0.00  0.00    +0.013 A 
ATOM     20  C   UNL     1     -15.604   0.227  30.278  0.00  0.00    +0.013 A 
ATOM     22  C   UNL     1     -14.834   2.661  31.404  0.00  0.00    +0.001 A 
ATOM     23  C   UNL     1     -14.924   0.248  31.495  0.00  0.00    +0.001 A 
ATOM     24  C   UNL     1     -14.538   1.465  32.058  0.00  0.00    +0.000 A 
ENDBRANCH  16  18
ENDBRANCH  12   8
BRANCH  13   3
ATOM      3  O   UNL     1     -15.488   5.190  22.889  0.00  0.00    -0.442 OA
BRANCH   3  17
ATOM      5  O   UNL     1     -13.230   4.984  22.583  0.00  0.00    -0.226 OA
ATOM      9  N   UNL     1     -14.419   6.827  21.764  0.00  0.00    -0.251 N 
ATOM     17  C   UNL     1     -14.264   5.619  22.417  0.00  0.00    +0.405 C 
ATOM     33  H   UNL     1     -15.364   7.201  21.728  0.00  0.00    +0.158 HD
BRANCH   9  21
ATOM     21  C   UNL     1     -13.424   7.610  21.135  0.00  0.00    +0.043 A 
ATOM     25  C   UNL     1     -13.169   8.905  21.584  0.00  0.00    +0.069 A 
ATOM     26  C   UNL     1     -12.697   7.087  20.065  0.00  0.00    +0.069 A 
ATOM     27  C   UNL     1     -11.714   7.859  19.447  0.00  0.00    +0.125 A 
ATOM     28  C   UNL     1     -12.186   9.677  20.966  0.00  0.00    +0.125 A 
ATOM     29  C   UNL     1     -11.459   9.155  19.896  0.00  0.00    +0.091 A 
BRANCH  27   6
ATOM      6  O   UNL     1     -11.004   7.349  18.403  0.00  0.00    -0.495 OA
ATOM     30  C   UNL     1     -10.664   8.248  17.349  0.00  0.00    +0.277 C 
ENDBRANCH  27   6
BRANCH  28   7
ATOM      7  O   UNL     1     -11.937  10.942  21.405  0.00  0.00    -0.495 OA
ATOM     31  C   UNL     1     -12.290  11.241  22.755  0.00  0.00    +0.277 C 
ENDBRANCH  28   7
ENDBRANCH   9  21
ENDBRANCH   3  17
ENDBRANCH  13   3
TORSDOF 7
ENDMDL
MODEL 2
REMARK VINA RESULT:      -6.9      0.480      2.389
REMARK  Name = 11883367
REMARK  9 active torsions:
REMARK  status: ('A' for Active; 'I' for Inactive)
REMARK    1  A    between atoms: O_3  and  C_13
REMARK    2  A    between atoms: O_3  and  C_17
REMARK    3  A    between atoms: O_6  and  C_27
REMARK    4  A    between atoms: O_6  and  C_30
REMARK    5  A    between atoms: O_7  and  C_28
REMARK    6  A    between atoms: O_7  and  C_31
REMARK    7  A    between atoms: N_8  and  C_12
REMARK    8  A    between atoms: N_9  and  C_21
REMARK    9  A    between atoms: C_16  and  C_18
REMARK                            x       y       z     vdW  Elec       q    Type
REMARK                         _______ _______ _______ _____ _____    ______ ____
ROOT
ATOM      1  O   UNL     1     -16.486   4.885  25.377  0.00  0.00    -0.368 OA
ATOM      2  O   UNL     1     -16.884   2.108  24.138  0.00  0.00    -0.368 OA
ATOM     10  C   UNL     1     -16.094   2.549  25.262  0.00  0.00    +0.173 C 
ATOM     11  C   UNL     1     -15.540   3.913  24.900  0.00  0.00    +0.192 C 
ATOM     12  C   UNL     1     -16.987   2.822  26.449  0.00  0.00    +0.130 C 
ATOM     13  C   UNL     1     -15.502   3.861  23.393  0.00  0.00    +0.235 C 
ATOM     14  C   UNL     1     -17.497   4.222  26.153  0.00  0.00    +0.185 C 
ATOM     15  C   UNL     1     -16.740   3.055  23.069  0.00  0.00    +0.207 C 
ENDROOT
BRANCH  12   8
ATOM      4  O   UNL     1     -16.679   0.569  28.201  0.00  0.00    -0.270 OA
ATOM      8  N   UNL     1     -16.241   2.787  27.684  0.00  0.00    -0.304 N 
ATOM     16  C   UNL     1     -16.149   1.644  28.466  0.00  0.00    +0.244 C 
ATOM     32  H   UNL     1     -15.866   3.666  28.021  0.00  0.00    +0.149 HD
BRANCH  16  18
ATOM     18  C   UNL     1     -15.366   1.778  29.722  0.00  0.00    +0.037 A 
ATOM     19  C   UNL     1     -15.387   0.754  30.669  0.00  0.00    +0.013 A 
ATOM     20  C   UNL     1     -14.607   2.926  29.953  0.00  0.00    +0.013 A 
ATOM     22  C   UNL     1     -14.650   0.878  31.847  0.00  0.00    +0.001 A 
ATOM     23  C   UNL     1     -13.871   3.050  31.130  0.00  0.00    +0.001 A 
ATOM     24  C   UNL     1     -13.893   2.027  32.078  0.00  0.00    +0.000 A 
ENDBRANCH  16  18
ENDBRANCH  12   8
BRANCH  13   3
ATOM      3  O   UNL     1     -15.524   5.133  22.785  0.00  0.00    -0.442 OA
BRANCH   3  17
ATOM      5  O   UNL     1     -13.287   4.966  22.341  0.00  0.00    -0.226 OA
ATOM      9  N   UNL     1     -14.500   6.902  21.831  0.00  0.00    -0.251 N 
ATOM     17  C   UNL     1     -14.322   5.619  22.312  0.00  0.00    +0.405 C 
ATOM     33  H   UNL     1     -15.442   7.279  21.893  0.00  0.00    +0.158 HD
BRANCH   9  21
ATOM     21  C   UNL     1     -13.531   7.759  21.260  0.00  0.00    +0.043 A 
ATOM     25  C   UNL     1     -12.790   7.336  20.156  0.00  0.00    +0.069 A 
ATOM     26  C   UNL     1     -13.315   9.026  21.800  0.00  0.00    +0.069 A 
ATOM     27  C   UNL     1     -12.359   9.871  21.236  0.00  0.00    +0.125 A 
ATOM     28  C   UNL     1     -11.836   8.181  19.592  0.00  0.00    +0.125 A 
ATOM     29  C   UNL     1     -11.619   9.448  20.132  0.00  0.00    +0.091 A 
BRANCH  27   6
ATOM      6  O   UNL     1     -12.149  11.108  21.763  0.00  0.00    -0.495 OA
ATOM     30  C   UNL     1     -12.286  11.243  23.177  0.00  0.00    +0.277 C 
ENDBRANCH  27   6
BRANCH  28   7
ATOM      7  O   UNL     1     -11.113   7.768  18.514  0.00  0.00    -0.495 OA
ATOM     31  C   UNL     1     -10.447   8.777  17.754  0.00  0.00    +0.277 C 
ENDBRANCH  28   7
ENDBRANCH   9  21
ENDBRANCH   3  17
ENDBRANCH  13   3
TORSDOF 7
ENDMDL
MODEL 3
REMARK VINA RESULT:      -6.9     16.102     19.085
REMARK  Name = 11883367
REMARK  9 active torsions:
REMARK  status: ('A' for Active; 'I' for Inactive)
REMARK    1  A    between atoms: O_3  and  C_13
REMARK    2  A    between atoms: O_3  and  C_17
REMARK    3  A    between atoms: O_6  and  C_27
REMARK    4  A    between atoms: O_6  and  C_30
REMARK    5  A    between atoms: O_7  and  C_28
REMARK    6  A    between atoms: O_7  and  C_31
REMARK    7  A    between atoms: N_8  and  C_12
REMARK    8  A    between atoms: N_9  and  C_21
REMARK    9  A    between atoms: C_16  and  C_18
REMARK                            x       y       z     vdW  Elec       q    Type
REMARK                         _______ _______ _______ _____ _____    ______ ____
ROOT
ATOM      1  O   UNL     1     -12.364  -7.916  14.576  0.00  0.00    -0.368 OA
ATOM      2  O   UNL     1     -11.175  -5.910  16.567  0.00  0.00    -0.368 OA
ATOM     10  C   UNL     1     -11.164  -5.946  15.125  0.00  0.00    +0.173 C 
ATOM     11  C   UNL     1     -11.030  -7.402  14.724  0.00  0.00    +0.192 C 
ATOM     12  C   UNL     1     -12.516  -5.543  14.584  0.00  0.00    +0.130 C 
ATOM     13  C   UNL     1     -10.326  -8.005  15.915  0.00  0.00    +0.235 C 
ATOM     14  C   UNL     1     -13.304  -6.837  14.693  0.00  0.00    +0.185 C 
ATOM     15  C   UNL     1     -10.927  -7.231  17.067  0.00  0.00    +0.207 C 
ENDROOT
BRANCH  12   8
ATOM      4  O   UNL     1     -14.023  -3.430  13.356  0.00  0.00    -0.270 OA
ATOM      8  N   UNL     1     -12.421  -5.101  13.214  0.00  0.00    -0.304 N 
ATOM     16  C   UNL     1     -13.194  -4.066  12.710  0.00  0.00    +0.244 C 
ATOM     32  H   UNL     1     -11.837  -5.649  12.592  0.00  0.00    +0.149 HD
BRANCH  16  18
ATOM     18  C   UNL     1     -12.997  -3.748  11.271  0.00  0.00    +0.037 A 
ATOM     19  C   UNL     1     -14.087  -3.379  10.483  0.00  0.00    +0.013 A 
ATOM     20  C   UNL     1     -11.722  -3.817  10.710  0.00  0.00    +0.013 A 
ATOM     22  C   UNL     1     -13.902  -3.078   9.133  0.00  0.00    +0.001 A 
ATOM     23  C   UNL     1     -11.537  -3.518   9.361  0.00  0.00    +0.001 A 
ATOM     24  C   UNL     1     -12.627  -3.149   8.572  0.00  0.00    +0.000 A 
ENDBRANCH  16  18
ENDBRANCH  12   8
BRANCH  13   3
ATOM      3  O   UNL     1     -10.530  -9.394  16.045  0.00  0.00    -0.442 OA
BRANCH   3  17
ATOM      5  O   UNL     1      -9.414 -11.325  15.541  0.00  0.00    -0.226 OA
ATOM      9  N   UNL     1      -8.340  -9.519  16.573  0.00  0.00    -0.251 N 
ATOM     17  C   UNL     1      -9.407 -10.195  16.011  0.00  0.00    +0.405 C 
ATOM     33  H   UNL     1      -8.531  -8.579  16.910  0.00  0.00    +0.158 HD
BRANCH   9  21
ATOM     21  C   UNL     1      -7.011  -9.973  16.736  0.00  0.00    +0.043 A 
ATOM     25  C   UNL     1      -6.138  -9.977  15.649  0.00  0.00    +0.069 A 
ATOM     26  C   UNL     1      -6.574 -10.416  17.984  0.00  0.00    +0.069 A 
ATOM     27  C   UNL     1      -5.262 -10.863  18.145  0.00  0.00    +0.125 A 
ATOM     28  C   UNL     1      -4.827 -10.423  15.809  0.00  0.00    +0.125 A 
ATOM     29  C   UNL     1      -4.389 -10.867  17.057  0.00  0.00    +0.091 A 
BRANCH  27   6
ATOM      6  O   UNL     1      -4.835 -11.296  19.362  0.00  0.00    -0.495 OA
ATOM     30  C   UNL     1      -3.701 -12.162  19.383  0.00  0.00    +0.277 C 
ENDBRANCH  27   6
BRANCH  28   7
ATOM      7  O   UNL     1      -3.974 -10.427  14.748  0.00  0.00    -0.495 OA
ATOM     31  C   UNL     1      -3.269 -11.641  14.487  0.00  0.00    +0.277 C 
ENDBRANCH  28   7
ENDBRANCH   9  21
ENDBRANCH   3  17
ENDBRANCH  13   3
TORSDOF 7
ENDMDL
MODEL 4
REMARK VINA RESULT:      -6.9     16.023     18.942
REMARK  Name = 11883367
REMARK  9 active torsions:
REMARK  status: ('A' for Active; 'I' for Inactive)
REMARK    1  A    between atoms: O_3  and  C_13
REMARK    2  A    between atoms: O_3  and  C_17
REMARK    3  A    between atoms: O_6  and  C_27
REMARK    4  A    between atoms: O_6  and  C_30
REMARK    5  A    between atoms: O_7  and  C_28
REMARK    6  A    between atoms: O_7  and  C_31
REMARK    7  A    between atoms: N_8  and  C_12
REMARK    8  A    between atoms: N_9  and  C_21
REMARK    9  A    between atoms: C_16  and  C_18
REMARK                            x       y       z     vdW  Elec       q    Type
REMARK                         _______ _______ _______ _____ _____    ______ ____
ROOT
ATOM      1  O   UNL     1     -12.463  -7.915  14.546  0.00  0.00    -0.368 OA
ATOM      2  O   UNL     1     -11.240  -5.946  16.554  0.00  0.00    -0.368 OA
ATOM     10  C   UNL     1     -11.226  -5.973  15.111  0.00  0.00    +0.173 C 
ATOM     11  C   UNL     1     -11.120  -7.428  14.700  0.00  0.00    +0.192 C 
ATOM     12  C   UNL     1     -12.568  -5.540  14.570  0.00  0.00    +0.130 C 
ATOM     13  C   UNL     1     -10.431  -8.054  15.888  0.00  0.00    +0.235 C 
ATOM     14  C   UNL     1     -13.382  -6.818  14.668  0.00  0.00    +0.185 C 
ATOM     15  C   UNL     1     -11.019  -7.276  17.045  0.00  0.00    +0.207 C 
ENDROOT
BRANCH  12   8
ATOM      4  O   UNL     1     -14.020  -3.380  13.357  0.00  0.00    -0.270 OA
ATOM      8  N   UNL     1     -12.461  -5.090  13.203  0.00  0.00    -0.304 N 
ATOM     16  C   UNL     1     -13.208  -4.031  12.706  0.00  0.00    +0.244 C 
ATOM     32  H   UNL     1     -11.890  -5.648  12.578  0.00  0.00    +0.149 HD
BRANCH  16  18
ATOM     18  C   UNL     1     -13.001  -3.708  11.271  0.00  0.00    +0.037 A 
ATOM     19  C   UNL     1     -11.715  -3.719  10.731  0.00  0.00    +0.013 A 
ATOM     20  C   UNL     1     -14.094  -3.394  10.462  0.00  0.00    +0.013 A 
ATOM     22  C   UNL     1     -11.521  -3.417   9.383  0.00  0.00    +0.001 A 
ATOM     23  C   UNL     1     -13.900  -3.091   9.115  0.00  0.00    +0.001 A 
ATOM     24  C   UNL     1     -12.613  -3.102   8.575  0.00  0.00    +0.000 A 
ENDBRANCH  16  18
ENDBRANCH  12   8
BRANCH  13   3
ATOM      3  O   UNL     1     -10.662  -9.439  16.008  0.00  0.00    -0.442 OA
BRANCH   3  17
ATOM      5  O   UNL     1      -9.609 -11.467  15.927  0.00  0.00    -0.226 OA
ATOM      9  N   UNL     1      -8.430  -9.485  16.326  0.00  0.00    -0.251 N 
ATOM     17  C   UNL     1      -9.550 -10.254  16.076  0.00  0.00    +0.405 C 
ATOM     33  H   UNL     1      -8.582  -8.484  16.418  0.00  0.00    +0.158 HD
BRANCH   9  21
ATOM     21  C   UNL     1      -7.092  -9.919  16.469  0.00  0.00    +0.043 A 
ATOM     25  C   UNL     1      -6.596 -10.245  17.732  0.00  0.00    +0.069 A 
ATOM     26  C   UNL     1      -6.268 -10.021  15.349  0.00  0.00    +0.069 A 
ATOM     27  C   UNL     1      -4.948 -10.451  15.491  0.00  0.00    +0.125 A 
ATOM     28  C   UNL     1      -5.277 -10.675  17.874  0.00  0.00    +0.125 A 
ATOM     29  C   UNL     1      -4.453 -10.777  16.754  0.00  0.00    +0.091 A 
BRANCH  27   6
ATOM      6  O   UNL     1      -4.143 -10.551  14.398  0.00  0.00    -0.495 OA
ATOM     30  C   UNL     1      -4.752 -10.346  13.123  0.00  0.00    +0.277 C 
ENDBRANCH  27   6
BRANCH  28   7
ATOM      7  O   UNL     1      -4.794 -10.994  19.106  0.00  0.00    -0.495 OA
ATOM     31  C   UNL     1      -3.927 -12.125  19.190  0.00  0.00    +0.277 C 
ENDBRANCH  28   7
ENDBRANCH   9  21
ENDBRANCH   3  17
ENDBRANCH  13   3
TORSDOF 7
ENDMDL
MODEL 5
REMARK VINA RESULT:      -6.9     19.938     21.652
REMARK  Name = 11883367
REMARK  9 active torsions:
REMARK  status: ('A' for Active; 'I' for Inactive)
REMARK    1  A    between atoms: O_3  and  C_13
REMARK    2  A    between atoms: O_3  and  C_17
REMARK    3  A    between atoms: O_6  and  C_27
REMARK    4  A    between atoms: O_6  and  C_30
REMARK    5  A    between atoms: O_7  and  C_28
REMARK    6  A    between atoms: O_7  and  C_31
REMARK    7  A    between atoms: N_8  and  C_12
REMARK    8  A    between atoms: N_9  and  C_21
REMARK    9  A    between atoms: C_16  and  C_18
REMARK                            x       y       z     vdW  Elec       q    Type
REMARK                         _______ _______ _______ _____ _____    ______ ____
ROOT
ATOM      1  O   UNL     1      -3.969 -12.096  14.411  0.00  0.00    -0.368 OA
ATOM      2  O   UNL     1      -2.046 -10.907  16.483  0.00  0.00    -0.368 OA
ATOM     10  C   UNL     1      -3.402 -10.563  16.130  0.00  0.00    +0.173 C 
ATOM     11  C   UNL     1      -3.524 -10.747  14.630  0.00  0.00    +0.192 C 
ATOM     12  C   UNL     1      -4.362 -11.581  16.699  0.00  0.00    +0.130 C 
ATOM     13  C   UNL     1      -2.104 -10.542  14.159  0.00  0.00    +0.235 C 
ATOM     14  C   UNL     1      -4.291 -12.699  15.674  0.00  0.00    +0.185 C 
ATOM     15  C   UNL     1      -1.303 -11.162  15.282  0.00  0.00    +0.207 C 
ENDROOT
BRANCH  12   8
ATOM      4  O   UNL     1      -5.638 -10.579  19.068  0.00  0.00    -0.270 OA
ATOM      8  N   UNL     1      -5.697 -11.043  16.797  0.00  0.00    -0.304 N 
ATOM     16  C   UNL     1      -6.229 -10.580  17.992  0.00  0.00    +0.244 C 
ATOM     32  H   UNL     1      -6.283 -11.112  15.972  0.00  0.00    +0.149 HD
BRANCH  16  18
ATOM     18  C   UNL     1      -7.627 -10.081  17.931  0.00  0.00    +0.037 A 
ATOM     19  C   UNL     1      -8.624 -10.706  18.681  0.00  0.00    +0.013 A 
ATOM     20  C   UNL     1      -7.944  -8.988  17.124  0.00  0.00    +0.013 A 
ATOM     22  C   UNL     1      -9.936 -10.236  18.626  0.00  0.00    +0.001 A 
ATOM     23  C   UNL     1      -9.256  -8.520  17.068  0.00  0.00    +0.001 A 
ATOM     24  C   UNL     1     -10.253  -9.144  17.819  0.00  0.00    +0.000 A 
ENDBRANCH  16  18
ENDBRANCH  12   8
BRANCH  13   3
ATOM      3  O   UNL     1      -1.831 -11.149  12.916  0.00  0.00    -0.442 OA
BRANCH   3  17
ATOM      5  O   UNL     1      -1.572  -9.532  11.319  0.00  0.00    -0.226 OA
ATOM      9  N   UNL     1      -3.411 -10.980  11.315  0.00  0.00    -0.251 N 
ATOM     17  C   UNL     1      -2.222 -10.458  11.787  0.00  0.00    +0.405 C 
ATOM     33  H   UNL     1      -3.802 -11.756  11.842  0.00  0.00    +0.158 HD
BRANCH   9  21
ATOM     21  C   UNL     1      -4.154 -10.568  10.184  0.00  0.00    +0.043 A 
ATOM     25  C   UNL     1      -4.921  -9.404  10.242  0.00  0.00    +0.069 A 
ATOM     26  C   UNL     1      -4.119 -11.324   9.013  0.00  0.00    +0.069 A 
ATOM     27  C   UNL     1      -4.851 -10.915   7.898  0.00  0.00    +0.125 A 
ATOM     28  C   UNL     1      -5.653  -8.996   9.127  0.00  0.00    +0.125 A 
ATOM     29  C   UNL     1      -5.619  -9.752   7.955  0.00  0.00    +0.091 A 
BRANCH  27   6
ATOM      6  O   UNL     1      -4.817 -11.653   6.754  0.00  0.00    -0.495 OA
ATOM     30  C   UNL     1      -5.408 -11.075   5.591  0.00  0.00    +0.277 C 
ENDBRANCH  27   6
BRANCH  28   7
ATOM      7  O   UNL     1      -6.402  -7.861   9.182  0.00  0.00    -0.495 OA
ATOM     31  C   UNL     1      -7.602  -7.837   8.410  0.00  0.00    +0.277 C 
ENDBRANCH  28   7
ENDBRANCH   9  21
ENDBRANCH   3  17
ENDBRANCH  13   3
TORSDOF 7
ENDMDL
MODEL 6
REMARK VINA RESULT:      -6.9     18.083     19.774
REMARK  Name = 11883367
REMARK  9 active torsions:
REMARK  status: ('A' for Active; 'I' for Inactive)
REMARK    1  A    between atoms: O_3  and  C_13
REMARK    2  A    between atoms: O_3  and  C_17
REMARK    3  A    between atoms: O_6  and  C_27
REMARK    4  A    between atoms: O_6  and  C_30
REMARK    5  A    between atoms: O_7  and  C_28
REMARK    6  A    between atoms: O_7  and  C_31
REMARK    7  A    between atoms: N_8  and  C_12
REMARK    8  A    between atoms: N_9  and  C_21
REMARK    9  A    between atoms: C_16  and  C_18
REMARK                            x       y       z     vdW  Elec       q    Type
REMARK                         _______ _______ _______ _____ _____    ______ ____
ROOT
ATOM      1  O   UNL     1      -6.947 -11.512  16.996  0.00  0.00    -0.368 OA
ATOM      2  O   UNL     1      -6.499 -11.035  19.992  0.00  0.00    -0.368 OA
ATOM     10  C   UNL     1      -7.067 -10.196  18.965  0.00  0.00    +0.173 C 
ATOM     11  C   UNL     1      -6.274 -10.455  17.699  0.00  0.00    +0.192 C 
ATOM     12  C   UNL     1      -8.461 -10.664  18.622  0.00  0.00    +0.130 C 
ATOM     13  C   UNL     1      -4.937 -10.903  18.237  0.00  0.00    +0.235 C 
ATOM     14  C   UNL     1      -8.189 -11.804  17.655  0.00  0.00    +0.185 C 
ATOM     15  C   UNL     1      -5.335 -11.688  19.467  0.00  0.00    +0.207 C 
ENDROOT
BRANCH  12   8
ATOM      4  O   UNL     1     -11.316 -10.560  18.334  0.00  0.00    -0.270 OA
ATOM      8  N   UNL     1      -9.226  -9.615  17.992  0.00  0.00    -0.304 N 
ATOM     16  C   UNL     1     -10.610  -9.653  17.901  0.00  0.00    +0.244 C 
ATOM     32  H   UNL     1      -8.705  -8.887  17.516  0.00  0.00    +0.149 HD
BRANCH  16  18
ATOM     18  C   UNL     1     -11.247  -8.509  17.200  0.00  0.00    +0.037 A 
ATOM     19  C   UNL     1     -12.584  -8.587  16.809  0.00  0.00    +0.013 A 
ATOM     20  C   UNL     1     -10.509  -7.355  16.933  0.00  0.00    +0.013 A 
ATOM     22  C   UNL     1     -13.183  -7.512  16.152  0.00  0.00    +0.001 A 
ATOM     23  C   UNL     1     -11.108  -6.281  16.275  0.00  0.00    +0.001 A 
ATOM     24  C   UNL     1     -12.445  -6.359  15.885  0.00  0.00    +0.000 A 
ENDBRANCH  16  18
ENDBRANCH  12   8
BRANCH  13   3
ATOM      3  O   UNL     1      -4.197 -11.684  17.326  0.00  0.00    -0.442 OA
BRANCH   3  17
ATOM      5  O   UNL     1      -2.605 -10.342  16.380  0.00  0.00    -0.226 OA
ATOM      9  N   UNL     1      -4.352 -11.255  15.117  0.00  0.00    -0.251 N 
ATOM     17  C   UNL     1      -3.617 -11.021  16.264  0.00  0.00    +0.405 C 
ATOM     33  H   UNL     1      -5.169 -11.851  15.221  0.00  0.00    +0.158 HD
BRANCH   9  21
ATOM     21  C   UNL     1      -4.107 -10.767  13.813  0.00  0.00    +0.043 A 
ATOM     25  C   UNL     1      -5.165 -10.296  13.035  0.00  0.00    +0.069 A 
ATOM     26  C   UNL     1      -2.809 -10.756  13.304  0.00  0.00    +0.069 A 
ATOM     27  C   UNL     1      -2.568 -10.273  12.018  0.00  0.00    +0.125 A 
ATOM     28  C   UNL     1      -4.925  -9.814  11.749  0.00  0.00    +0.125 A 
ATOM     29  C   UNL     1      -3.626  -9.803  11.240  0.00  0.00    +0.091 A 
BRANCH  27   6
ATOM      6  O   UNL     1      -1.301 -10.262  11.521  0.00  0.00    -0.495 OA
ATOM     30  C   UNL     1      -0.763  -8.996  11.143  0.00  0.00    +0.277 C 
ENDBRANCH  27   6
BRANCH  28   7
ATOM      7  O   UNL     1      -5.957  -9.354  10.990  0.00  0.00    -0.495 OA
ATOM     31  C   UNL     1      -5.630  -8.478   9.911  0.00  0.00    +0.277 C 
ENDBRANCH  28   7
ENDBRANCH   9  21
ENDBRANCH   3  17
ENDBRANCH  13   3
TORSDOF 7
ENDMDL
MODEL 7
REMARK VINA RESULT:      -6.8     19.969     21.759
REMARK  Name = 11883367
REMARK  9 active torsions:
REMARK  status: ('A' for Active; 'I' for Inactive)
REMARK    1  A    between atoms: O_3  and  C_13
REMARK    2  A    between atoms: O_3  and  C_17
REMARK    3  A    between atoms: O_6  and  C_27
REMARK    4  A    between atoms: O_6  and  C_30
REMARK    5  A    between atoms: O_7  and  C_28
REMARK    6  A    between atoms: O_7  and  C_31
REMARK    7  A    between atoms: N_8  and  C_12
REMARK    8  A    between atoms: N_9  and  C_21
REMARK    9  A    between atoms: C_16  and  C_18
REMARK                            x       y       z     vdW  Elec       q    Type
REMARK                         _______ _______ _______ _____ _____    ______ ____
ROOT
ATOM      1  O   UNL     1      -3.975 -12.091  14.417  0.00  0.00    -0.368 OA
ATOM      2  O   UNL     1      -2.046 -10.901  16.483  0.00  0.00    -0.368 OA
ATOM     10  C   UNL     1      -3.404 -10.560  16.135  0.00  0.00    +0.173 C 
ATOM     11  C   UNL     1      -3.532 -10.741  14.635  0.00  0.00    +0.192 C 
ATOM     12  C   UNL     1      -4.360 -11.580  16.707  0.00  0.00    +0.130 C 
ATOM     13  C   UNL     1      -2.115 -10.533  14.159  0.00  0.00    +0.235 C 
ATOM     14  C   UNL     1      -4.290 -12.697  15.680  0.00  0.00    +0.185 C 
ATOM     15  C   UNL     1      -1.308 -11.153  15.278  0.00  0.00    +0.207 C 
ENDROOT
BRANCH  12   8
ATOM      4  O   UNL     1      -5.636 -10.604  19.086  0.00  0.00    -0.270 OA
ATOM      8  N   UNL     1      -5.696 -11.046  16.810  0.00  0.00    -0.304 N 
ATOM     16  C   UNL     1      -6.228 -10.596  18.010  0.00  0.00    +0.244 C 
ATOM     32  H   UNL     1      -6.282 -11.108  15.985  0.00  0.00    +0.149 HD
BRANCH  16  18
ATOM     18  C   UNL     1      -7.627 -10.099  17.955  0.00  0.00    +0.037 A 
ATOM     19  C   UNL     1      -7.951  -9.015  17.138  0.00  0.00    +0.013 A 
ATOM     20  C   UNL     1      -8.618 -10.715  18.720  0.00  0.00    +0.013 A 
ATOM     22  C   UNL     1      -9.264  -8.550  17.085  0.00  0.00    +0.001 A 
ATOM     23  C   UNL     1      -9.930 -10.249  18.668  0.00  0.00    +0.001 A 
ATOM     24  C   UNL     1     -10.254  -9.166  17.850  0.00  0.00    +0.000 A 
ENDBRANCH  16  18
ENDBRANCH  12   8
BRANCH  13   3
ATOM      3  O   UNL     1      -1.845 -11.137  12.914  0.00  0.00    -0.442 OA
BRANCH   3  17
ATOM      5  O   UNL     1      -1.575  -9.516  11.324  0.00  0.00    -0.226 OA
ATOM      9  N   UNL     1      -3.423 -10.953  11.312  0.00  0.00    -0.251 N 
ATOM     17  C   UNL     1      -2.231 -10.440  11.787  0.00  0.00    +0.405 C 
ATOM     33  H   UNL     1      -3.819 -11.729  11.836  0.00  0.00    +0.158 HD
BRANCH   9  21
ATOM     21  C   UNL     1      -4.162 -10.532  10.183  0.00  0.00    +0.043 A 
ATOM     25  C   UNL     1      -4.104 -11.267   8.998  0.00  0.00    +0.069 A 
ATOM     26  C   UNL     1      -4.948  -9.382  10.253  0.00  0.00    +0.069 A 
ATOM     27  C   UNL     1      -5.678  -8.968   9.138  0.00  0.00    +0.125 A 
ATOM     28  C   UNL     1      -4.835 -10.853   7.885  0.00  0.00    +0.125 A 
ATOM     29  C   UNL     1      -5.621  -9.703   7.954  0.00  0.00    +0.091 A 
BRANCH  27   6
ATOM      6  O   UNL     1      -6.446  -7.846   9.206  0.00  0.00    -0.495 OA
ATOM     30  C   UNL     1      -7.809  -7.967   8.801  0.00  0.00    +0.277 C 
ENDBRANCH  27   6
BRANCH  28   7
ATOM      7  O   UNL     1      -4.779 -11.571   6.729  0.00  0.00    -0.495 OA
ATOM     31  C   UNL     1      -4.081 -12.815   6.771  0.00  0.00    +0.277 C 
ENDBRANCH  28   7
ENDBRANCH   9  21
ENDBRANCH   3  17
ENDBRANCH  13   3
TORSDOF 7
ENDMDL
MODEL 8
REMARK VINA RESULT:      -6.7     26.342     28.663
REMARK  Name = 11883367
REMARK  9 active torsions:
REMARK  status: ('A' for Active; 'I' for Inactive)
REMARK    1  A    between atoms: O_3  and  C_13
REMARK    2  A    between atoms: O_3  and  C_17
REMARK    3  A    between atoms: O_6  and  C_27
REMARK    4  A    between atoms: O_6  and  C_30
REMARK    5  A    between atoms: O_7  and  C_28
REMARK    6  A    between atoms: O_7  and  C_31
REMARK    7  A    between atoms: N_8  and  C_12
REMARK    8  A    between atoms: N_9  and  C_21
REMARK    9  A    between atoms: C_16  and  C_18
REMARK                            x       y       z     vdW  Elec       q    Type
REMARK                         _______ _______ _______ _____ _____    ______ ____
ROOT
ATOM      1  O   UNL     1      11.031   8.788  20.349  0.00  0.00    -0.368 OA
ATOM      2  O   UNL     1      13.360   7.759  22.058  0.00  0.00    -0.368 OA
ATOM     10  C   UNL     1      12.827   9.086  21.869  0.00  0.00    +0.173 C 
ATOM     11  C   UNL     1      12.410   9.188  20.415  0.00  0.00    +0.192 C 
ATOM     12  C   UNL     1      11.531   9.239  22.630  0.00  0.00    +0.130 C 
ATOM     13  C   UNL     1      13.316   8.185  19.744  0.00  0.00    +0.235 C 
ATOM     14  C   UNL     1      10.525   8.610  21.681  0.00  0.00    +0.185 C 
ATOM     15  C   UNL     1      13.413   7.094  20.787  0.00  0.00    +0.207 C 
ENDROOT
BRANCH  12   8
ATOM      4  O   UNL     1      11.208  10.504  25.187  0.00  0.00    -0.270 OA
ATOM      8  N   UNL     1      11.227  10.628  22.871  0.00  0.00    -0.304 N 
ATOM     16  C   UNL     1      11.090  11.151  24.149  0.00  0.00    +0.244 C 
ATOM     32  H   UNL     1      11.008  11.200  22.062  0.00  0.00    +0.149 HD
BRANCH  16  18
ATOM     18  C   UNL     1      10.749  12.595  24.228  0.00  0.00    +0.037 A 
ATOM     19  C   UNL     1      10.412  13.297  23.071  0.00  0.00    +0.013 A 
ATOM     20  C   UNL     1      10.766  13.250  25.460  0.00  0.00    +0.013 A 
ATOM     22  C   UNL     1      10.091  14.652  23.145  0.00  0.00    +0.001 A 
ATOM     23  C   UNL     1      10.446  14.605  25.534  0.00  0.00    +0.001 A 
ATOM     24  C   UNL     1      10.109  15.306  24.377  0.00  0.00    +0.000 A 
ENDBRANCH  16  18
ENDBRANCH  12   8
BRANCH  13   3
ATOM      3  O   UNL     1      12.813   7.703  18.519  0.00  0.00    -0.442 OA
BRANCH   3  17
ATOM      5  O   UNL     1      11.913   8.594  16.614  0.00  0.00    -0.226 OA
ATOM      9  N   UNL     1      13.904   9.413  17.532  0.00  0.00    -0.251 N 
ATOM     17  C   UNL     1      12.798   8.588  17.459  0.00  0.00    +0.405 C 
ATOM     33  H   UNL     1      14.533   9.255  18.316  0.00  0.00    +0.158 HD
BRANCH   9  21
ATOM     21  C   UNL     1      14.272  10.454  16.649  0.00  0.00    +0.043 A 
ATOM     25  C   UNL     1      14.267  11.777  17.092  0.00  0.00    +0.069 A 
ATOM     26  C   UNL     1      14.639  10.159  15.336  0.00  0.00    +0.069 A 
ATOM     27  C   UNL     1      15.003  11.188  14.467  0.00  0.00    +0.125 A 
ATOM     28  C   UNL     1      14.631  12.805  16.223  0.00  0.00    +0.125 A 
ATOM     29  C   UNL     1      14.998  12.511  14.909  0.00  0.00    +0.091 A 
BRANCH  27   6
ATOM      6  O   UNL     1      15.361  10.900  13.185  0.00  0.00    -0.495 OA
ATOM     30  C   UNL     1      15.880  11.973  12.400  0.00  0.00    +0.277 C 
ENDBRANCH  27   6
BRANCH  28   7
ATOM      7  O   UNL     1      14.627  14.096  16.655  0.00  0.00    -0.495 OA
ATOM     31  C   UNL     1      13.460  14.870  16.375  0.00  0.00    +0.277 C 
ENDBRANCH  28   7
ENDBRANCH   9  21
ENDBRANCH   3  17
ENDBRANCH  13   3
TORSDOF 7
ENDMDL
MODEL 9
REMARK VINA RESULT:      -6.6     19.949     21.790
REMARK  Name = 11883367
REMARK  9 active torsions:
REMARK  status: ('A' for Active; 'I' for Inactive)
REMARK    1  A    between atoms: O_3  and  C_13
REMARK    2  A    between atoms: O_3  and  C_17
REMARK    3  A    between atoms: O_6  and  C_27
REMARK    4  A    between atoms: O_6  and  C_30
REMARK    5  A    between atoms: O_7  and  C_28
REMARK    6  A    between atoms: O_7  and  C_31
REMARK    7  A    between atoms: N_8  and  C_12
REMARK    8  A    between atoms: N_9  and  C_21
REMARK    9  A    between atoms: C_16  and  C_18
REMARK                            x       y       z     vdW  Elec       q    Type
REMARK                         _______ _______ _______ _____ _____    ______ ____
ROOT
ATOM      1  O   UNL     1      -4.555 -12.018  12.310  0.00  0.00    -0.368 OA
ATOM      2  O   UNL     1      -1.910 -10.487  12.566  0.00  0.00    -0.368 OA
ATOM     10  C   UNL     1      -3.081 -10.520  13.408  0.00  0.00    +0.173 C 
ATOM     11  C   UNL     1      -4.281 -10.619  12.487  0.00  0.00    +0.192 C 
ATOM     12  C   UNL     1      -3.120 -11.809  14.195  0.00  0.00    +0.130 C 
ATOM     13  C   UNL     1      -3.772  -9.982  11.217  0.00  0.00    +0.235 C 
ATOM     14  C   UNL     1      -3.714 -12.781  13.189  0.00  0.00    +0.185 C 
ATOM     15  C   UNL     1      -2.327 -10.428  11.194  0.00  0.00    +0.207 C 
ENDROOT
BRANCH  12   8
ATOM      4  O   UNL     1      -2.344 -10.781  16.760  0.00  0.00    -0.270 OA
ATOM      8  N   UNL     1      -3.958 -11.685  15.362  0.00  0.00    -0.304 N 
ATOM     16  C   UNL     1      -3.491 -11.173  16.564  0.00  0.00    +0.244 C 
ATOM     32  H   UNL     1      -4.887 -12.088  15.307  0.00  0.00    +0.149 HD
BRANCH  16  18
ATOM     18  C   UNL     1      -4.472 -11.135  17.680  0.00  0.00    +0.037 A 
ATOM     19  C   UNL     1      -5.679 -10.452  17.525  0.00  0.00    +0.013 A 
ATOM     20  C   UNL     1      -4.187 -11.783  18.882  0.00  0.00    +0.013 A 
ATOM     22  C   UNL     1      -6.600 -10.418  18.571  0.00  0.00    +0.001 A 
ATOM     23  C   UNL     1      -5.108 -11.747  19.928  0.00  0.00    +0.001 A 
ATOM     24  C   UNL     1      -6.315 -11.065  19.773  0.00  0.00    +0.000 A 
ENDBRANCH  16  18
ENDBRANCH  12   8
BRANCH  13   3
ATOM      3  O   UNL     1      -4.471 -10.391  10.063  0.00  0.00    -0.442 OA
BRANCH   3  17
ATOM      5  O   UNL     1      -4.120  -8.591   8.697  0.00  0.00    -0.226 OA
ATOM      9  N   UNL     1      -6.260  -9.477   9.036  0.00  0.00    -0.251 N 
ATOM     17  C   UNL     1      -4.890  -9.396   9.204  0.00  0.00    +0.405 C 
ATOM     33  H   UNL     1      -6.731 -10.221   9.544  0.00  0.00    +0.158 HD
BRANCH   9  21
ATOM     21  C   UNL     1      -7.089  -8.653   8.241  0.00  0.00    +0.043 A 
ATOM     25  C   UNL     1      -7.521  -7.420   8.731  0.00  0.00    +0.069 A 
ATOM     26  C   UNL     1      -7.475  -9.072   6.968  0.00  0.00    +0.069 A 
ATOM     27  C   UNL     1      -8.293  -8.257   6.184  0.00  0.00    +0.125 A 
ATOM     28  C   UNL     1      -8.337  -6.606   7.947  0.00  0.00    +0.125 A 
ATOM     29  C   UNL     1      -8.724  -7.024   6.674  0.00  0.00    +0.091 A 
BRANCH  27   6
ATOM      6  O   UNL     1      -8.670  -8.666   4.942  0.00  0.00    -0.495 OA
ATOM     30  C   UNL     1      -7.761  -8.412   3.872  0.00  0.00    +0.277 C 
ENDBRANCH  27   6
BRANCH  28   7
ATOM      7  O   UNL     1      -8.758  -5.402   8.425  0.00  0.00    -0.495 OA
ATOM     31  C   UNL     1     -10.168  -5.201   8.527  0.00  0.00    +0.277 C 
ENDBRANCH  28   7
ENDBRANCH   9  21
ENDBRANCH   3  17
ENDBRANCH  13   3
TORSDOF 7
ENDMDL
MODEL 10
REMARK VINA RESULT:      -6.6     32.659     36.583
REMARK  Name = 11883367
REMARK  9 active torsions:
REMARK  status: ('A' for Active; 'I' for Inactive)
REMARK    1  A    between atoms: O_3  and  C_13
REMARK    2  A    between atoms: O_3  and  C_17
REMARK    3  A    between atoms: O_6  and  C_27
REMARK    4  A    between atoms: O_6  and  C_30
REMARK    5  A    between atoms: O_7  and  C_28
REMARK    6  A    between atoms: O_7  and  C_31
REMARK    7  A    between atoms: N_8  and  C_12
REMARK    8  A    between atoms: N_9  and  C_21
REMARK    9  A    between atoms: C_16  and  C_18
REMARK                            x       y       z     vdW  Elec       q    Type
REMARK                         _______ _______ _______ _____ _____    ______ ____
ROOT
ATOM      1  O   UNL     1      13.531   8.379   4.372  0.00  0.00    -0.368 OA
ATOM      2  O   UNL     1      12.763   8.831   7.306  0.00  0.00    -0.368 OA
ATOM     10  C   UNL     1      13.896   8.170   6.706  0.00  0.00    +0.173 C 
ATOM     11  C   UNL     1      13.385   7.461   5.468  0.00  0.00    +0.192 C 
ATOM     12  C   UNL     1      14.867   9.193   6.164  0.00  0.00    +0.130 C 
ATOM     13  C   UNL     1      11.934   7.218   5.805  0.00  0.00    +0.235 C 
ATOM     14  C   UNL     1      14.251   9.539   4.819  0.00  0.00    +0.185 C 
ATOM     15  C   UNL     1      11.576   8.463   6.588  0.00  0.00    +0.207 C 
ENDROOT
BRANCH  12   8
ATOM      4  O   UNL     1      17.345  10.639   6.063  0.00  0.00    -0.270 OA
ATOM      8  N   UNL     1      16.186   8.631   6.007  0.00  0.00    -0.304 N 
ATOM     16  C   UNL     1      17.331   9.414   5.970  0.00  0.00    +0.244 C 
ATOM     32  H   UNL     1      16.244   7.637   5.815  0.00  0.00    +0.149 HD
BRANCH  16  18
ATOM     18  C   UNL     1      18.611   8.686   5.777  0.00  0.00    +0.037 A 
ATOM     19  C   UNL     1      18.896   8.090   4.548  0.00  0.00    +0.013 A 
ATOM     20  C   UNL     1      19.530   8.599   6.823  0.00  0.00    +0.013 A 
ATOM     22  C   UNL     1      20.099   7.408   4.366  0.00  0.00    +0.001 A 
ATOM     23  C   UNL     1      20.732   7.916   6.641  0.00  0.00    +0.001 A 
ATOM     24  C   UNL     1      21.017   7.320   5.413  0.00  0.00    +0.000 A 
ENDBRANCH  16  18
ENDBRANCH  12   8
BRANCH  13   3
ATOM      3  O   UNL     1      11.113   7.051   4.672  0.00  0.00    -0.442 OA
BRANCH   3  17
ATOM      5  O   UNL     1      10.870   4.805   4.316  0.00  0.00    -0.226 OA
ATOM      9  N   UNL     1      11.978   6.180   2.780  0.00  0.00    -0.251 N 
ATOM     17  C   UNL     1      11.287   5.893   3.941  0.00  0.00    +0.405 C 
ATOM     33  H   UNL     1      12.242   7.152   2.641  0.00  0.00    +0.158 HD
BRANCH   9  21
ATOM     21  C   UNL     1      12.365   5.286   1.754  0.00  0.00    +0.043 A 
ATOM     25  C   UNL     1      11.418   4.822   0.841  0.00  0.00    +0.069 A 
ATOM     26  C   UNL     1      13.692   4.869   1.656  0.00  0.00    +0.069 A 
ATOM     27  C   UNL     1      14.073   3.988   0.644  0.00  0.00    +0.125 A 
ATOM     28  C   UNL     1      11.799   3.941  -0.171  0.00  0.00    +0.125 A 
ATOM     29  C   UNL     1      13.126   3.523  -0.269  0.00  0.00    +0.091 A 
BRANCH  27   6
ATOM      6  O   UNL     1      15.368   3.580   0.548  0.00  0.00    -0.495 OA
ATOM     30  C   UNL     1      16.146   4.135  -0.512  0.00  0.00    +0.277 C 
ENDBRANCH  27   6
BRANCH  28   7
ATOM      7  O   UNL     1      10.875   3.489  -1.062  0.00  0.00    -0.495 OA
ATOM     31  C   UNL     1      11.358   3.053  -2.333  0.00  0.00    +0.277 C 
ENDBRANCH  28   7
ENDBRANCH   9  21
ENDBRANCH   3  17
ENDBRANCH  13   3
TORSDOF 7
ENDMDL
