MODEL 1
REMARK VINA RESULT:      -6.0      0.000      0.000
REMARK  Name = 28962404
REMARK  10 active torsions:
REMARK  status: ('A' for Active; 'I' for Inactive)
REMARK    1  A    between atoms: O_2  and  C_8
REMARK    2  A    between atoms: O_3  and  C_16
REMARK    3  A    between atoms: N_4  and  C_6
REMARK    4  A    between atoms: N_5  and  C_15
REMARK    5  A    between atoms: N_5  and  C_18
REMARK    6  A    between atoms: C_7  and  C_15
REMARK    7  A    between atoms: C_9  and  C_16
REMARK    8  A    between atoms: C_12  and  C_17
REMARK    9  A    between atoms: C_18  and  C_19
REMARK   10  A    between atoms: C_18  and  C_20
REMARK                            x       y       z     vdW  Elec       q    Type
REMARK                         _______ _______ _______ _____ _____    ______ ____
ROOT
ATOM      1  O   UNL     1     -15.520   0.137  29.175  0.00  0.00    -0.366 OA
ATOM      6  C   UNL     1     -15.161   1.708  30.927  0.00  0.00    +0.118 C 
ATOM      7  C   UNL     1     -15.999   1.404  29.679  0.00  0.00    +0.152 C 
ATOM      8  C   UNL     1     -13.871   0.945  30.668  0.00  0.00    +0.165 C 
ATOM      9  C   UNL     1     -14.415  -0.304  29.987  0.00  0.00    +0.174 C 
ENDROOT
BRANCH   6   4
ATOM      4  N   UNL     1     -14.994   3.111  31.262  0.00  0.00    -0.295 NA
ATOM     10  C   UNL     1     -13.994   3.270  32.327  0.00  0.00    +0.085 C 
ATOM     11  C   UNL     1     -16.282   3.703  31.651  0.00  0.00    +0.085 C 
ATOM     12  C   UNL     1     -15.079   5.441  33.041  0.00  0.00    -0.012 C 
ATOM     13  C   UNL     1     -13.767   4.748  32.655  0.00  0.00    +0.018 C 
ATOM     14  C   UNL     1     -16.133   5.195  31.957  0.00  0.00    +0.018 C 
ATOM     17  C   UNL     1     -14.864   6.934  33.270  0.00  0.00    +0.007 C 
ENDBRANCH   6   4
BRANCH   8   2
ATOM      2  O   UNL     1     -13.013   1.658  29.785  0.00  0.00    -0.388 OA
ATOM     21  H   UNL     1     -13.521   1.855  28.979  0.00  0.00    +0.210 HD
ENDBRANCH   8   2
BRANCH   7  15
ATOM     15  C   UNL     1     -15.909   2.408  28.534  0.00  0.00    +0.114 C 
BRANCH  15   5
ATOM      5  N   UNL     1     -16.411   1.831  27.295  0.00  0.00    -0.311 NA
ATOM     22  H   UNL     1     -15.661   1.294  26.859  0.00  0.00    +0.122 HD
BRANCH   5  18
ATOM     18  C   UNL     1     -16.875   2.871  26.387  0.00  0.00    +0.048 C 
ATOM     19  C   UNL     1     -16.056   2.855  25.100  0.00  0.00    +0.023 C 
ATOM     20  C   UNL     1     -16.782   4.228  27.078  0.00  0.00    +0.023 C 
ENDBRANCH   5  18
ENDBRANCH  15   5
ENDBRANCH   7  15
BRANCH   9  16
ATOM     16  C   UNL     1     -13.425  -1.059  29.117  0.00  0.00    +0.190 C 
BRANCH  16   3
ATOM      3  O   UNL     1     -12.277  -1.366  29.891  0.00  0.00    -0.392 OA
ATOM     23  H   UNL     1     -11.504  -1.044  29.396  0.00  0.00    +0.210 HD
ENDBRANCH  16   3
ENDBRANCH   9  16
TORSDOF 7
ENDMDL
MODEL 2
REMARK VINA RESULT:      -5.7      7.218     10.320
REMARK  Name = 28962404
REMARK  10 active torsions:
REMARK  status: ('A' for Active; 'I' for Inactive)
REMARK    1  A    between atoms: O_2  and  C_8
REMARK    2  A    between atoms: O_3  and  C_16
REMARK    3  A    between atoms: N_4  and  C_6
REMARK    4  A    between atoms: N_5  and  C_15
REMARK    5  A    between atoms: N_5  and  C_18
REMARK    6  A    between atoms: C_7  and  C_15
REMARK    7  A    between atoms: C_9  and  C_16
REMARK    8  A    between atoms: C_12  and  C_17
REMARK    9  A    between atoms: C_18  and  C_19
REMARK   10  A    between atoms: C_18  and  C_20
REMARK                            x       y       z     vdW  Elec       q    Type
REMARK                         _______ _______ _______ _____ _____    ______ ____
ROOT
ATOM      1  O   UNL     1     -16.450   5.468  22.884  0.00  0.00    -0.366 OA
ATOM      6  C   UNL     1     -14.511   6.509  21.978  0.00  0.00    +0.118 C 
ATOM      7  C   UNL     1     -16.017   6.293  21.779  0.00  0.00    +0.152 C 
ATOM      8  C   UNL     1     -14.092   5.289  22.783  0.00  0.00    +0.165 C 
ATOM      9  C   UNL     1     -15.307   5.119  23.687  0.00  0.00    +0.174 C 
ENDROOT
BRANCH   6   4
ATOM      4  N   UNL     1     -13.734   6.754  20.775  0.00  0.00    -0.295 NA
ATOM     10  C   UNL     1     -12.299   6.775  21.086  0.00  0.00    +0.085 C 
ATOM     11  C   UNL     1     -14.157   8.008  20.137  0.00  0.00    +0.085 C 
ATOM     12  C   UNL     1     -11.871   8.257  19.082  0.00  0.00    -0.012 C 
ATOM     13  C   UNL     1     -11.462   6.978  19.820  0.00  0.00    +0.018 C 
ATOM     14  C   UNL     1     -13.384   8.254  18.839  0.00  0.00    +0.018 C 
ATOM     17  C   UNL     1     -11.105   8.404  17.771  0.00  0.00    +0.007 C 
ENDBRANCH   6   4
BRANCH   8   2
ATOM      2  O   UNL     1     -13.930   4.147  21.951  0.00  0.00    -0.388 OA
ATOM     21  H   UNL     1     -14.816   3.866  21.662  0.00  0.00    +0.210 HD
ENDBRANCH   8   2
BRANCH   7  15
ATOM     15  C   UNL     1     -16.444   5.588  20.496  0.00  0.00    +0.114 C 
BRANCH  15   5
ATOM      5  N   UNL     1     -17.049   4.297  20.787  0.00  0.00    -0.311 NA
ATOM     22  H   UNL     1     -16.436   3.563  20.431  0.00  0.00    +0.122 HD
BRANCH   5  18
ATOM     18  C   UNL     1     -18.367   4.190  20.175  0.00  0.00    +0.048 C 
ATOM     19  C   UNL     1     -18.895   2.764  20.301  0.00  0.00    +0.023 C 
ATOM     20  C   UNL     1     -18.283   4.615  18.712  0.00  0.00    +0.023 C 
ENDBRANCH   5  18
ENDBRANCH  15   5
ENDBRANCH   7  15
BRANCH   9  16
ATOM     16  C   UNL     1     -15.505   3.727  24.262  0.00  0.00    +0.190 C 
BRANCH  16   3
ATOM      3  O   UNL     1     -15.956   2.865  23.230  0.00  0.00    -0.392 OA
ATOM     23  H   UNL     1     -15.416   2.057  23.276  0.00  0.00    +0.210 HD
ENDBRANCH  16   3
ENDBRANCH   9  16
TORSDOF 7
ENDMDL
MODEL 3
REMARK VINA RESULT:      -5.3     33.077     35.366
REMARK  Name = 28962404
REMARK  10 active torsions:
REMARK  status: ('A' for Active; 'I' for Inactive)
REMARK    1  A    between atoms: O_2  and  C_8
REMARK    2  A    between atoms: O_3  and  C_16
REMARK    3  A    between atoms: N_4  and  C_6
REMARK    4  A    between atoms: N_5  and  C_15
REMARK    5  A    between atoms: N_5  and  C_18
REMARK    6  A    between atoms: C_7  and  C_15
REMARK    7  A    between atoms: C_9  and  C_16
REMARK    8  A    between atoms: C_12  and  C_17
REMARK    9  A    between atoms: C_18  and  C_19
REMARK   10  A    between atoms: C_18  and  C_20
REMARK                            x       y       z     vdW  Elec       q    Type
REMARK                         _______ _______ _______ _____ _____    ______ ____
ROOT
ATOM      1  O   UNL     1      10.889   4.911   8.428  0.00  0.00    -0.366 OA
ATOM      6  C   UNL     1       9.713   5.631   6.488  0.00  0.00    +0.118 C 
ATOM      7  C   UNL     1      11.106   5.451   7.106  0.00  0.00    +0.152 C 
ATOM      8  C   UNL     1       8.817   5.799   7.706  0.00  0.00    +0.165 C 
ATOM      9  C   UNL     1       9.473   4.821   8.674  0.00  0.00    +0.174 C 
ENDROOT
BRANCH   6   4
ATOM      4  N   UNL     1       9.588   6.669   5.480  0.00  0.00    -0.295 NA
ATOM     10  C   UNL     1       8.174   6.903   5.156  0.00  0.00    +0.085 C 
ATOM     11  C   UNL     1      10.355   6.312   4.278  0.00  0.00    +0.085 C 
ATOM     12  C   UNL     1       8.823   7.742   2.861  0.00  0.00    -0.012 C 
ATOM     13  C   UNL     1       8.021   8.032   4.134  0.00  0.00    +0.018 C 
ATOM     14  C   UNL     1      10.276   7.420   3.225  0.00  0.00    +0.018 C 
ATOM     17  C   UNL     1       8.748   8.914   1.886  0.00  0.00    +0.007 C 
ENDBRANCH   6   4
BRANCH   8   2
ATOM      2  O   UNL     1       8.881   7.123   8.221  0.00  0.00    -0.388 OA
ATOM     21  H   UNL     1       8.511   7.107   9.121  0.00  0.00    +0.210 HD
ENDBRANCH   8   2
BRANCH   7  15
ATOM     15  C   UNL     1      11.952   6.710   7.265  0.00  0.00    +0.114 C 
BRANCH  15   5
ATOM      5  N   UNL     1      13.358   6.429   7.011  0.00  0.00    -0.311 NA
ATOM     22  H   UNL     1      13.803   6.177   7.894  0.00  0.00    +0.122 HD
BRANCH   5  18
ATOM     18  C   UNL     1      14.022   7.585   6.426  0.00  0.00    +0.048 C 
ATOM     19  C   UNL     1      13.342   8.873   6.880  0.00  0.00    +0.023 C 
ATOM     20  C   UNL     1      14.007   7.465   4.905  0.00  0.00    +0.023 C 
ENDBRANCH   5  18
ENDBRANCH  15   5
ENDBRANCH   7  15
BRANCH   9  16
ATOM     16  C   UNL     1       9.202   5.077  10.145  0.00  0.00    +0.190 C 
BRANCH  16   3
ATOM      3  O   UNL     1      10.187   4.408  10.916  0.00  0.00    -0.392 OA
ATOM     23  H   UNL     1      11.048   4.791  10.675  0.00  0.00    +0.210 HD
ENDBRANCH  16   3
ENDBRANCH   9  16
TORSDOF 7
ENDMDL
MODEL 4
REMARK VINA RESULT:      -5.2      1.496      2.173
REMARK  Name = 28962404
REMARK  10 active torsions:
REMARK  status: ('A' for Active; 'I' for Inactive)
REMARK    1  A    between atoms: O_2  and  C_8
REMARK    2  A    between atoms: O_3  and  C_16
REMARK    3  A    between atoms: N_4  and  C_6
REMARK    4  A    between atoms: N_5  and  C_15
REMARK    5  A    between atoms: N_5  and  C_18
REMARK    6  A    between atoms: C_7  and  C_15
REMARK    7  A    between atoms: C_9  and  C_16
REMARK    8  A    between atoms: C_12  and  C_17
REMARK    9  A    between atoms: C_18  and  C_19
REMARK   10  A    between atoms: C_18  and  C_20
REMARK                            x       y       z     vdW  Elec       q    Type
REMARK                         _______ _______ _______ _____ _____    ______ ____
ROOT
ATOM      1  O   UNL     1     -15.645   1.899  30.387  0.00  0.00    -0.366 OA
ATOM      6  C   UNL     1     -15.031   3.782  31.709  0.00  0.00    +0.118 C 
ATOM      7  C   UNL     1     -15.934   3.304  30.564  0.00  0.00    +0.152 C 
ATOM      8  C   UNL     1     -13.863   2.808  31.653  0.00  0.00    +0.165 C 
ATOM      9  C   UNL     1     -14.589   1.519  31.291  0.00  0.00    +0.174 C 
ENDROOT
BRANCH   6   4
ATOM      4  N   UNL     1     -14.667   5.187  31.695  0.00  0.00    -0.295 NA
ATOM     10  C   UNL     1     -13.778   5.500  32.822  0.00  0.00    +0.085 C 
ATOM     11  C   UNL     1     -15.871   6.030  31.719  0.00  0.00    +0.085 C 
ATOM     12  C   UNL     1     -14.551   7.907  32.783  0.00  0.00    -0.012 C 
ATOM     13  C   UNL     1     -13.342   6.966  32.791  0.00  0.00    +0.018 C 
ATOM     14  C   UNL     1     -15.506   7.515  31.651  0.00  0.00    +0.018 C 
ATOM     17  C   UNL     1     -14.113   9.363  32.652  0.00  0.00    +0.007 C 
ENDBRANCH   6   4
BRANCH   8   2
ATOM      2  O   UNL     1     -12.940   3.162  30.631  0.00  0.00    -0.388 OA
ATOM     21  H   UNL     1     -13.198   2.683  29.824  0.00  0.00    +0.210 HD
ENDBRANCH   8   2
BRANCH   7  15
ATOM     15  C   UNL     1     -15.738   3.979  29.211  0.00  0.00    +0.114 C 
BRANCH  15   5
ATOM      5  N   UNL     1     -15.301   3.018  28.208  0.00  0.00    -0.311 NA
ATOM     22  H   UNL     1     -14.483   3.398  27.730  0.00  0.00    +0.122 HD
BRANCH   5  18
ATOM     18  C   UNL     1     -16.363   2.748  27.248  0.00  0.00    +0.048 C 
ATOM     19  C   UNL     1     -16.586   1.245  27.115  0.00  0.00    +0.023 C 
ATOM     20  C   UNL     1     -16.002   3.369  25.903  0.00  0.00    +0.023 C 
ENDBRANCH   5  18
ENDBRANCH  15   5
ENDBRANCH   7  15
BRANCH   9  16
ATOM     16  C   UNL     1     -13.734   0.448  30.639  0.00  0.00    +0.190 C 
BRANCH  16   3
ATOM      3  O   UNL     1     -13.421   0.852  29.316  0.00  0.00    -0.392 OA
ATOM     23  H   UNL     1     -12.886   0.143  28.919  0.00  0.00    +0.210 HD
ENDBRANCH  16   3
ENDBRANCH   9  16
TORSDOF 7
ENDMDL
MODEL 5
REMARK VINA RESULT:      -5.1     21.496     24.738
REMARK  Name = 28962404
REMARK  10 active torsions:
REMARK  status: ('A' for Active; 'I' for Inactive)
REMARK    1  A    between atoms: O_2  and  C_8
REMARK    2  A    between atoms: O_3  and  C_16
REMARK    3  A    between atoms: N_4  and  C_6
REMARK    4  A    between atoms: N_5  and  C_15
REMARK    5  A    between atoms: N_5  and  C_18
REMARK    6  A    between atoms: C_7  and  C_15
REMARK    7  A    between atoms: C_9  and  C_16
REMARK    8  A    between atoms: C_12  and  C_17
REMARK    9  A    between atoms: C_18  and  C_19
REMARK   10  A    between atoms: C_18  and  C_20
REMARK                            x       y       z     vdW  Elec       q    Type
REMARK                         _______ _______ _______ _____ _____    ______ ____
ROOT
ATOM      1  O   UNL     1      -1.931 -11.257  12.180  0.00  0.00    -0.366 OA
ATOM      6  C   UNL     1      -3.295 -10.607  14.019  0.00  0.00    +0.118 C 
ATOM      7  C   UNL     1      -2.013 -11.349  13.619  0.00  0.00    +0.152 C 
ATOM      8  C   UNL     1      -4.159 -10.719  12.772  0.00  0.00    +0.165 C 
ATOM      9  C   UNL     1      -3.101 -10.579  11.684  0.00  0.00    +0.174 C 
ENDROOT
BRANCH   6   4
ATOM      4  N   UNL     1      -3.929 -11.039  15.252  0.00  0.00    -0.295 NA
ATOM     10  C   UNL     1      -5.208 -10.343  15.444  0.00  0.00    +0.085 C 
ATOM     11  C   UNL     1      -3.030 -10.824  16.394  0.00  0.00    +0.085 C 
ATOM     12  C   UNL     1      -5.021 -10.660  17.946  0.00  0.00    -0.012 C 
ATOM     13  C   UNL     1      -5.915 -10.826  16.712  0.00  0.00    +0.018 C 
ATOM     14  C   UNL     1      -3.663 -11.323  17.695  0.00  0.00    +0.018 C 
ATOM     17  C   UNL     1      -5.691 -11.235  19.191  0.00  0.00    +0.007 C 
ENDBRANCH   6   4
BRANCH   8   2
ATOM      2  O   UNL     1      -4.790 -11.991  12.688  0.00  0.00    -0.388 OA
ATOM     21  H   UNL     1      -4.830 -12.358  13.588  0.00  0.00    +0.210 HD
ENDBRANCH   8   2
BRANCH   7  15
ATOM     15  C   UNL     1      -1.937 -12.828  13.983  0.00  0.00    +0.114 C 
BRANCH  15   5
ATOM      5  N   UNL     1      -1.876 -13.656  12.787  0.00  0.00    -0.311 NA
ATOM     22  H   UNL     1      -2.688 -13.445  12.205  0.00  0.00    +0.122 HD
BRANCH   5  18
ATOM     18  C   UNL     1      -1.861 -15.070  13.133  0.00  0.00    +0.048 C 
ATOM     19  C   UNL     1      -2.650 -15.310  14.416  0.00  0.00    +0.023 C 
ATOM     20  C   UNL     1      -0.418 -15.542  13.281  0.00  0.00    +0.023 C 
ENDBRANCH   5  18
ENDBRANCH  15   5
ENDBRANCH   7  15
BRANCH   9  16
ATOM     16  C   UNL     1      -3.476 -11.152  10.329  0.00  0.00    +0.190 C 
BRANCH  16   3
ATOM      3  O   UNL     1      -3.256 -12.552  10.347  0.00  0.00    -0.392 OA
ATOM     23  H   UNL     1      -2.425 -12.718   9.868  0.00  0.00    +0.210 HD
ENDBRANCH  16   3
ENDBRANCH   9  16
TORSDOF 7
ENDMDL
MODEL 6
REMARK VINA RESULT:      -5.0     22.168     25.565
REMARK  Name = 28962404
REMARK  10 active torsions:
REMARK  status: ('A' for Active; 'I' for Inactive)
REMARK    1  A    between atoms: O_2  and  C_8
REMARK    2  A    between atoms: O_3  and  C_16
REMARK    3  A    between atoms: N_4  and  C_6
REMARK    4  A    between atoms: N_5  and  C_15
REMARK    5  A    between atoms: N_5  and  C_18
REMARK    6  A    between atoms: C_7  and  C_15
REMARK    7  A    between atoms: C_9  and  C_16
REMARK    8  A    between atoms: C_12  and  C_17
REMARK    9  A    between atoms: C_18  and  C_19
REMARK   10  A    between atoms: C_18  and  C_20
REMARK                            x       y       z     vdW  Elec       q    Type
REMARK                         _______ _______ _______ _____ _____    ______ ____
ROOT
ATOM      1  O   UNL     1      -1.791 -12.580  14.438  0.00  0.00    -0.366 OA
ATOM      6  C   UNL     1      -2.401 -12.006  12.210  0.00  0.00    +0.118 C 
ATOM      7  C   UNL     1      -2.196 -11.455  13.627  0.00  0.00    +0.152 C 
ATOM      8  C   UNL     1      -2.730 -13.470  12.456  0.00  0.00    +0.165 C 
ATOM      9  C   UNL     1      -1.806 -13.772  13.629  0.00  0.00    +0.174 C 
ENDROOT
BRANCH   6   4
ATOM      4  N   UNL     1      -3.350 -11.290  11.375  0.00  0.00    -0.295 NA
ATOM     10  C   UNL     1      -3.753 -12.118  10.230  0.00  0.00    +0.085 C 
ATOM     11  C   UNL     1      -2.780 -10.011  10.929  0.00  0.00    +0.085 C 
ATOM     12  C   UNL     1      -4.278 -10.037   8.892  0.00  0.00    -0.012 C 
ATOM     13  C   UNL     1      -4.794 -11.399   9.369  0.00  0.00    +0.018 C 
ATOM     14  C   UNL     1      -3.787  -9.220  10.091  0.00  0.00    +0.018 C 
ATOM     17  C   UNL     1      -5.355  -9.282   8.117  0.00  0.00    +0.007 C 
ENDBRANCH   6   4
BRANCH   8   2
ATOM      2  O   UNL     1      -4.089 -13.642  12.838  0.00  0.00    -0.388 OA
ATOM     21  H   UNL     1      -4.220 -14.584  13.042  0.00  0.00    +0.210 HD
ENDBRANCH   8   2
BRANCH   7  15
ATOM     15  C   UNL     1      -3.412 -10.828  14.300  0.00  0.00    +0.114 C 
BRANCH  15   5
ATOM      5  N   UNL     1      -3.797 -11.581  15.485  0.00  0.00    -0.311 NA
ATOM     22  H   UNL     1      -4.633 -12.125  15.268  0.00  0.00    +0.122 HD
BRANCH   5  18
ATOM     18  C   UNL     1      -4.057 -10.690  16.607  0.00  0.00    +0.048 C 
ATOM     19  C   UNL     1      -4.175 -11.489  17.902  0.00  0.00    +0.023 C 
ATOM     20  C   UNL     1      -5.329  -9.892  16.339  0.00  0.00    +0.023 C 
ENDBRANCH   5  18
ENDBRANCH  15   5
ENDBRANCH   7  15
BRANCH   9  16
ATOM     16  C   UNL     1      -2.208 -14.956  14.490  0.00  0.00    +0.190 C 
BRANCH  16   3
ATOM      3  O   UNL     1      -3.272 -14.564  15.341  0.00  0.00    -0.392 OA
ATOM     23  H   UNL     1      -4.010 -15.177  15.177  0.00  0.00    +0.210 HD
ENDBRANCH  16   3
ENDBRANCH   9  16
TORSDOF 7
ENDMDL
MODEL 7
REMARK VINA RESULT:      -4.9     21.494     23.755
REMARK  Name = 28962404
REMARK  10 active torsions:
REMARK  status: ('A' for Active; 'I' for Inactive)
REMARK    1  A    between atoms: O_2  and  C_8
REMARK    2  A    between atoms: O_3  and  C_16
REMARK    3  A    between atoms: N_4  and  C_6
REMARK    4  A    between atoms: N_5  and  C_15
REMARK    5  A    between atoms: N_5  and  C_18
REMARK    6  A    between atoms: C_7  and  C_15
REMARK    7  A    between atoms: C_9  and  C_16
REMARK    8  A    between atoms: C_12  and  C_17
REMARK    9  A    between atoms: C_18  and  C_19
REMARK   10  A    between atoms: C_18  and  C_20
REMARK                            x       y       z     vdW  Elec       q    Type
REMARK                         _______ _______ _______ _____ _____    ______ ____
ROOT
ATOM      1  O   UNL     1      -4.881 -12.873  16.181  0.00  0.00    -0.366 OA
ATOM      6  C   UNL     1      -5.850 -11.517  14.482  0.00  0.00    +0.118 C 
ATOM      7  C   UNL     1      -4.934 -12.719  14.746  0.00  0.00    +0.152 C 
ATOM      8  C   UNL     1      -5.721 -10.701  15.759  0.00  0.00    +0.165 C 
ATOM      9  C   UNL     1      -5.639 -11.814  16.796  0.00  0.00    +0.174 C 
ENDROOT
BRANCH   6   4
ATOM      4  N   UNL     1      -5.608 -10.784  13.252  0.00  0.00    -0.295 NA
ATOM     10  C   UNL     1      -6.525  -9.641  13.146  0.00  0.00    +0.085 C 
ATOM     11  C   UNL     1      -5.734 -11.674  12.090  0.00  0.00    +0.085 C 
ATOM     12  C   UNL     1      -6.332  -9.701  10.625  0.00  0.00    -0.012 C 
ATOM     13  C   UNL     1      -6.248  -8.826  11.881  0.00  0.00    +0.018 C 
ATOM     14  C   UNL     1      -5.430 -10.929  10.788  0.00  0.00    +0.018 C 
ATOM     17  C   UNL     1      -5.957  -8.907   9.377  0.00  0.00    +0.007 C 
ENDBRANCH   6   4
BRANCH   8   2
ATOM      2  O   UNL     1      -4.527  -9.929  15.765  0.00  0.00    -0.388 OA
ATOM     21  H   UNL     1      -4.167  -9.953  16.669  0.00  0.00    +0.210 HD
ENDBRANCH   8   2
BRANCH   7  15
ATOM     15  C   UNL     1      -3.495 -12.604  14.251  0.00  0.00    +0.114 C 
BRANCH  15   5
ATOM      5  N   UNL     1      -2.613 -12.150  15.316  0.00  0.00    -0.311 NA
ATOM     22  H   UNL     1      -3.163 -11.610  15.985  0.00  0.00    +0.122 HD
BRANCH   5  18
ATOM     18  C   UNL     1      -1.530 -11.335  14.784  0.00  0.00    +0.048 C 
ATOM     19  C   UNL     1      -1.082 -10.308  15.819  0.00  0.00    +0.023 C 
ATOM     20  C   UNL     1      -1.992 -10.653  13.500  0.00  0.00    +0.023 C 
ENDBRANCH   5  18
ENDBRANCH  15   5
ENDBRANCH   7  15
BRANCH   9  16
ATOM     16  C   UNL     1      -4.989 -11.434  18.114  0.00  0.00    +0.190 C 
BRANCH  16   3
ATOM      3  O   UNL     1      -3.614 -11.774  18.063  0.00  0.00    -0.392 OA
ATOM     23  H   UNL     1      -3.534 -12.692  18.376  0.00  0.00    +0.210 HD
ENDBRANCH  16   3
ENDBRANCH   9  16
TORSDOF 7
ENDMDL
MODEL 8
REMARK VINA RESULT:      -4.9     19.075     22.150
REMARK  Name = 28962404
REMARK  10 active torsions:
REMARK  status: ('A' for Active; 'I' for Inactive)
REMARK    1  A    between atoms: O_2  and  C_8
REMARK    2  A    between atoms: O_3  and  C_16
REMARK    3  A    between atoms: N_4  and  C_6
REMARK    4  A    between atoms: N_5  and  C_15
REMARK    5  A    between atoms: N_5  and  C_18
REMARK    6  A    between atoms: C_7  and  C_15
REMARK    7  A    between atoms: C_9  and  C_16
REMARK    8  A    between atoms: C_12  and  C_17
REMARK    9  A    between atoms: C_18  and  C_19
REMARK   10  A    between atoms: C_18  and  C_20
REMARK                            x       y       z     vdW  Elec       q    Type
REMARK                         _______ _______ _______ _____ _____    ______ ____
ROOT
ATOM      1  O   UNL     1      -3.279 -11.958  14.590  0.00  0.00    -0.366 OA
ATOM      6  C   UNL     1      -4.615 -11.942  16.559  0.00  0.00    +0.118 C 
ATOM      7  C   UNL     1      -4.636 -12.163  15.041  0.00  0.00    +0.152 C 
ATOM      8  C   UNL     1      -3.427 -11.012  16.754  0.00  0.00    +0.165 C 
ATOM      9  C   UNL     1      -2.464 -11.565  15.710  0.00  0.00    +0.174 C 
ENDROOT
BRANCH   6   4
ATOM      4  N   UNL     1      -5.858 -11.491  17.160  0.00  0.00    -0.295 NA
ATOM     10  C   UNL     1      -5.636 -11.072  18.550  0.00  0.00    +0.085 C 
ATOM     11  C   UNL     1      -6.878 -12.547  17.082  0.00  0.00    +0.085 C 
ATOM     12  C   UNL     1      -8.049 -11.584  19.106  0.00  0.00    -0.012 C 
ATOM     13  C   UNL     1      -6.926 -10.543  19.180  0.00  0.00    +0.018 C 
ATOM     14  C   UNL     1      -8.211 -12.070  17.662  0.00  0.00    +0.018 C 
ATOM     17  C   UNL     1      -9.359 -11.018  19.646  0.00  0.00    +0.007 C 
ENDBRANCH   6   4
BRANCH   8   2
ATOM      2  O   UNL     1      -3.766  -9.665  16.453  0.00  0.00    -0.388 OA
ATOM     21  H   UNL     1      -2.942  -9.199  16.223  0.00  0.00    +0.210 HD
ENDBRANCH   8   2
BRANCH   7  15
ATOM     15  C   UNL     1      -5.528 -11.231  14.227  0.00  0.00    +0.114 C 
BRANCH  15   5
ATOM      5  N   UNL     1      -4.730 -10.292  13.452  0.00  0.00    -0.311 NA
ATOM     22  H   UNL     1      -4.702  -9.402  13.950  0.00  0.00    +0.122 HD
BRANCH   5  18
ATOM     18  C   UNL     1      -5.293 -10.105  12.122  0.00  0.00    +0.048 C 
ATOM     19  C   UNL     1      -4.197  -9.715  11.134  0.00  0.00    +0.023 C 
ATOM     20  C   UNL     1      -6.384  -9.041  12.176  0.00  0.00    +0.023 C 
ENDBRANCH   5  18
ENDBRANCH  15   5
ENDBRANCH   7  15
BRANCH   9  16
ATOM     16  C   UNL     1      -1.391 -10.601  15.236  0.00  0.00    +0.190 C 
BRANCH  16   3
ATOM      3  O   UNL     1      -1.885  -9.877  14.121  0.00  0.00    -0.392 OA
ATOM     23  H   UNL     1      -1.146  -9.772  13.497  0.00  0.00    +0.210 HD
ENDBRANCH  16   3
ENDBRANCH   9  16
TORSDOF 7
ENDMDL
MODEL 9
REMARK VINA RESULT:      -4.9     34.063     36.521
REMARK  Name = 28962404
REMARK  10 active torsions:
REMARK  status: ('A' for Active; 'I' for Inactive)
REMARK    1  A    between atoms: O_2  and  C_8
REMARK    2  A    between atoms: O_3  and  C_16
REMARK    3  A    between atoms: N_4  and  C_6
REMARK    4  A    between atoms: N_5  and  C_15
REMARK    5  A    between atoms: N_5  and  C_18
REMARK    6  A    between atoms: C_7  and  C_15
REMARK    7  A    between atoms: C_9  and  C_16
REMARK    8  A    between atoms: C_12  and  C_17
REMARK    9  A    between atoms: C_18  and  C_19
REMARK   10  A    between atoms: C_18  and  C_20
REMARK                            x       y       z     vdW  Elec       q    Type
REMARK                         _______ _______ _______ _____ _____    ______ ____
ROOT
ATOM      1  O   UNL     1      10.751   7.675   6.830  0.00  0.00    -0.366 OA
ATOM      6  C   UNL     1      11.263   6.161   5.066  0.00  0.00    +0.118 C 
ATOM      7  C   UNL     1      11.200   7.643   5.457  0.00  0.00    +0.152 C 
ATOM      8  C   UNL     1      10.248   5.517   5.999  0.00  0.00    +0.165 C 
ATOM      9  C   UNL     1      10.476   6.330   7.267  0.00  0.00    +0.174 C 
ENDROOT
BRANCH   6   4
ATOM      4  N   UNL     1      11.086   5.861   3.656  0.00  0.00    -0.295 NA
ATOM     10  C   UNL     1      10.830   4.427   3.464  0.00  0.00    +0.085 C 
ATOM     11  C   UNL     1      12.260   6.298   2.887  0.00  0.00    +0.085 C 
ATOM     12  C   UNL     1      11.763   4.560   1.117  0.00  0.00    -0.012 C 
ATOM     13  C   UNL     1      10.588   4.103   1.988  0.00  0.00    +0.018 C 
ATOM     14  C   UNL     1      12.068   6.037   1.392  0.00  0.00    +0.018 C 
ATOM     17  C   UNL     1      11.475   4.325  -0.363  0.00  0.00    +0.007 C 
ENDBRANCH   6   4
BRANCH   8   2
ATOM      2  O   UNL     1       8.919   5.698   5.526  0.00  0.00    -0.388 OA
ATOM     21  H   UNL     1       8.826   6.629   5.262  0.00  0.00    +0.210 HD
ENDBRANCH   8   2
BRANCH   7  15
ATOM     15  C   UNL     1      10.249   8.523   4.652  0.00  0.00    +0.114 C 
BRANCH  15   5
ATOM      5  N   UNL     1       9.011   8.756   5.381  0.00  0.00    -0.311 NA
ATOM     22  H   UNL     1       8.932   8.056   6.119  0.00  0.00    +0.122 HD
BRANCH   5  18
ATOM     18  C   UNL     1       7.860   8.680   4.492  0.00  0.00    +0.048 C 
ATOM     19  C   UNL     1       8.297   8.242   3.097  0.00  0.00    +0.023 C 
ATOM     20  C   UNL     1       7.162  10.035   4.447  0.00  0.00    +0.023 C 
ENDBRANCH   5  18
ENDBRANCH  15   5
ENDBRANCH   7  15
BRANCH   9  16
ATOM     16  C   UNL     1       9.318   6.349   8.248  0.00  0.00    +0.190 C 
BRANCH  16   3
ATOM      3  O   UNL     1       8.452   7.421   7.915  0.00  0.00    -0.392 OA
ATOM     23  H   UNL     1       8.715   7.738   7.034  0.00  0.00    +0.210 HD
ENDBRANCH  16   3
ENDBRANCH   9  16
TORSDOF 7
ENDMDL
MODEL 10
REMARK VINA RESULT:      -4.9     12.996     16.078
REMARK  Name = 28962404
REMARK  10 active torsions:
REMARK  status: ('A' for Active; 'I' for Inactive)
REMARK    1  A    between atoms: O_2  and  C_8
REMARK    2  A    between atoms: O_3  and  C_16
REMARK    3  A    between atoms: N_4  and  C_6
REMARK    4  A    between atoms: N_5  and  C_15
REMARK    5  A    between atoms: N_5  and  C_18
REMARK    6  A    between atoms: C_7  and  C_15
REMARK    7  A    between atoms: C_9  and  C_16
REMARK    8  A    between atoms: C_12  and  C_17
REMARK    9  A    between atoms: C_18  and  C_19
REMARK   10  A    between atoms: C_18  and  C_20
REMARK                            x       y       z     vdW  Elec       q    Type
REMARK                         _______ _______ _______ _____ _____    ______ ____
ROOT
ATOM      1  O   UNL     1      -1.554   9.135  39.002  0.00  0.00    -0.366 OA
ATOM      6  C   UNL     1      -3.806   9.625  38.408  0.00  0.00    +0.118 C 
ATOM      7  C   UNL     1      -2.905   9.044  39.505  0.00  0.00    +0.152 C 
ATOM      8  C   UNL     1      -2.994   9.399  37.142  0.00  0.00    +0.165 C 
ATOM      9  C   UNL     1      -1.586   9.661  37.661  0.00  0.00    +0.174 C 
ENDROOT
BRANCH   6   4
ATOM      4  N   UNL     1      -5.170   9.126  38.366  0.00  0.00    -0.295 NA
ATOM     10  C   UNL     1      -5.810   9.485  37.093  0.00  0.00    +0.085 C 
ATOM     11  C   UNL     1      -5.939   9.637  39.509  0.00  0.00    +0.085 C 
ATOM     12  C   UNL     1      -8.085   9.388  38.193  0.00  0.00    -0.012 C 
ATOM     13  C   UNL     1      -7.230   8.920  37.010  0.00  0.00    +0.018 C 
ATOM     14  C   UNL     1      -7.364   9.078  39.509  0.00  0.00    +0.018 C 
ATOM     17  C   UNL     1      -9.468   8.744  38.160  0.00  0.00    +0.007 C 
ENDBRANCH   6   4
BRANCH   8   2
ATOM      2  O   UNL     1      -3.111   8.059  36.681  0.00  0.00    -0.388 OA
ATOM     21  H   UNL     1      -3.838   8.032  36.035  0.00  0.00    +0.210 HD
ENDBRANCH   8   2
BRANCH   7  15
ATOM     15  C   UNL     1      -3.147   7.588  39.889  0.00  0.00    +0.114 C 
BRANCH  15   5
ATOM      5  N   UNL     1      -2.092   6.731  39.369  0.00  0.00    -0.311 NA
ATOM     22  H   UNL     1      -2.196   6.666  38.356  0.00  0.00    +0.122 HD
BRANCH   5  18
ATOM     18  C   UNL     1      -2.158   5.404  39.965  0.00  0.00    +0.048 C 
ATOM     19  C   UNL     1      -2.758   5.482  41.365  0.00  0.00    +0.023 C 
ATOM     20  C   UNL     1      -0.760   4.793  40.002  0.00  0.00    +0.023 C 
ENDBRANCH   5  18
ENDBRANCH  15   5
ENDBRANCH   7  15
BRANCH   9  16
ATOM     16  C   UNL     1      -0.463   9.037  36.852  0.00  0.00    +0.190 C 
BRANCH  16   3
ATOM      3  O   UNL     1      -0.112   7.795  37.437  0.00  0.00    -0.392 OA
ATOM     23  H   UNL     1      -0.885   7.210  37.354  0.00  0.00    +0.210 HD
ENDBRANCH  16   3
ENDBRANCH   9  16
TORSDOF 7
ENDMDL
