MODEL 1
REMARK VINA RESULT:      -7.3      0.000      0.000
REMARK  Name = 26743302
REMARK  12 active torsions:
REMARK  status: ('A' for Active; 'I' for Inactive)
REMARK    1  A    between atoms: N_4  and  C_18
REMARK    2  A    between atoms: N_4  and  C_20
REMARK    3  A    between atoms: C_6  and  C_12
REMARK    4  A    between atoms: C_7  and  C_11
REMARK    5  A    between atoms: C_11  and  C_13
REMARK    6  A    between atoms: C_12  and  C_14
REMARK    7  A    between atoms: C_16  and  C_19
REMARK    8  A    between atoms: C_17  and  C_21
REMARK    9  A    between atoms: C_17  and  C_26
REMARK   10  A    between atoms: C_17  and  C_27
REMARK   11  A    between atoms: C_17  and  C_28
REMARK   12  A    between atoms: C_18  and  C_29
REMARK                            x       y       z     vdW  Elec       q    Type
REMARK                         _______ _______ _______ _____ _____    ______ ____
ROOT
ATOM     11  C   UNL     1      14.563   7.339  19.182  0.00  0.00    +0.064 C 
ENDROOT
BRANCH  11   7
ATOM      3  N   UNL     1      13.910   8.592  15.629  0.00  0.00    -0.316 NA
ATOM      6  C   UNL     1      13.920   9.686  18.370  0.00  0.00    +0.004 C 
ATOM      7  C   UNL     1      14.555   8.321  18.011  0.00  0.00    +0.012 C 
ATOM      8  C   UNL     1      13.885  10.569  17.110  0.00  0.00    +0.019 C 
ATOM      9  C   UNL     1      13.886   7.689  16.780  0.00  0.00    +0.085 C 
ATOM     10  C   UNL     1      13.242   9.859  15.919  0.00  0.00    +0.081 C 
ATOM     31  H   UNL     1      13.451   8.143  14.837  0.00  0.00    +0.122 HD
BRANCH   6  12
ATOM     12  C   UNL     1      12.527   9.579  19.001  0.00  0.00    +0.100 C 
BRANCH  12  14
ATOM      2  O   UNL     1      13.290  10.922  20.834  0.00  0.00    -0.276 OA
ATOM      4  N   UNL     1      11.562   9.438  21.275  0.00  0.00    -0.293 N 
ATOM     14  C   UNL     1      12.507  10.050  20.445  0.00  0.00    +0.216 C 
ATOM     20  C   UNL     1      11.421   9.781  22.685  0.00  0.00    +0.133 C 
BRANCH   4  18
ATOM     18  C   UNL     1      10.646   8.407  20.792  0.00  0.00    +0.196 C 
BRANCH  18  29
ATOM     29  C   UNL     1      11.065   7.079  21.237  0.00  0.00    -0.086 C 
ATOM     30  C   UNL     1      11.406   5.986  21.599  0.00  0.00    +0.005 C 
ENDBRANCH  18  29
ENDBRANCH   4  18
ENDBRANCH  12  14
ENDBRANCH   6  12
ENDBRANCH  11   7
BRANCH  11  13
ATOM      1  O   UNL     1      17.662   5.517  18.978  0.00  0.00    -0.354 OA
ATOM      5  N   UNL     1      16.406   5.865  18.495  0.00  0.00    -0.083 NA
ATOM     13  C   UNL     1      15.925   6.739  19.384  0.00  0.00    +0.085 A 
ATOM     15  C   UNL     1      16.823   6.977  20.438  0.00  0.00    +0.076 A 
ATOM     16  C   UNL     1      17.899   6.185  20.135  0.00  0.00    +0.167 A 
BRANCH  16  19
ATOM     19  C   UNL     1      19.166   5.925  20.755  0.00  0.00    +0.020 A 
ATOM     21  C   UNL     1      21.631   5.424  21.958  0.00  0.00    -0.042 A 
ATOM     22  C   UNL     1      20.010   4.945  20.233  0.00  0.00    +0.012 A 
ATOM     23  C   UNL     1      19.555   6.655  21.878  0.00  0.00    +0.012 A 
ATOM     24  C   UNL     1      21.243   4.695  20.834  0.00  0.00    +0.005 A 
ATOM     25  C   UNL     1      20.788   6.404  22.480  0.00  0.00    +0.005 A 
BRANCH  21  17
ATOM     17  C   UNL     1      22.950   5.155  22.602  0.00  0.00    -0.013 C 
ATOM     26  C   UNL     1      23.316   6.271  23.629  0.00  0.00    +0.015 C 
ATOM     27  C   UNL     1      24.095   5.098  21.543  0.00  0.00    +0.015 C 
ATOM     28  C   UNL     1      23.049   3.810  23.394  0.00  0.00    +0.015 C 
ENDBRANCH  21  17
ENDBRANCH  16  19
ENDBRANCH  11  13
TORSDOF 8
ENDMDL
MODEL 2
REMARK VINA RESULT:      -7.1     28.642     32.433
REMARK  Name = 26743302
REMARK  12 active torsions:
REMARK  status: ('A' for Active; 'I' for Inactive)
REMARK    1  A    between atoms: N_4  and  C_18
REMARK    2  A    between atoms: N_4  and  C_20
REMARK    3  A    between atoms: C_6  and  C_12
REMARK    4  A    between atoms: C_7  and  C_11
REMARK    5  A    between atoms: C_11  and  C_13
REMARK    6  A    between atoms: C_12  and  C_14
REMARK    7  A    between atoms: C_16  and  C_19
REMARK    8  A    between atoms: C_17  and  C_21
REMARK    9  A    between atoms: C_17  and  C_26
REMARK   10  A    between atoms: C_17  and  C_27
REMARK   11  A    between atoms: C_17  and  C_28
REMARK   12  A    between atoms: C_18  and  C_29
REMARK                            x       y       z     vdW  Elec       q    Type
REMARK                         _______ _______ _______ _____ _____    ______ ____
ROOT
ATOM     11  C   UNL     1     -15.743   3.113  25.276  0.00  0.00    +0.064 C 
ENDROOT
BRANCH  11   7
ATOM      3  N   UNL     1     -19.316   3.821  26.441  0.00  0.00    -0.316 NA
ATOM      6  C   UNL     1     -16.581   3.998  27.535  0.00  0.00    +0.004 C 
ATOM      7  C   UNL     1     -16.869   3.829  26.023  0.00  0.00    +0.012 C 
ATOM      8  C   UNL     1     -17.801   4.650  28.207  0.00  0.00    +0.019 C 
ATOM      9  C   UNL     1     -18.214   3.125  25.776  0.00  0.00    +0.085 C 
ATOM     10  C   UNL     1     -19.105   3.921  27.884  0.00  0.00    +0.081 C 
ATOM     31  H   UNL     1     -20.187   3.322  26.262  0.00  0.00    +0.122 HD
BRANCH   6  12
ATOM     12  C   UNL     1     -16.197   2.695  28.246  0.00  0.00    +0.100 C 
BRANCH  12  14
ATOM      2  O   UNL     1     -14.867   4.067  29.694  0.00  0.00    -0.276 OA
ATOM      4  N   UNL     1     -14.785   1.777  30.059  0.00  0.00    -0.293 N 
ATOM     14  C   UNL     1     -15.226   2.925  29.392  0.00  0.00    +0.216 C 
ATOM     20  C   UNL     1     -13.852   1.833  31.178  0.00  0.00    +0.133 C 
BRANCH   4  18
ATOM     18  C   UNL     1     -15.224   0.435  29.682  0.00  0.00    +0.196 C 
BRANCH  18  29
ATOM     29  C   UNL     1     -14.083  -0.459  29.493  0.00  0.00    -0.086 C 
ATOM     30  C   UNL     1     -13.144  -1.194  29.342  0.00  0.00    +0.005 C 
ENDBRANCH  18  29
ENDBRANCH   4  18
ENDBRANCH  12  14
ENDBRANCH   6  12
ENDBRANCH  11   7
BRANCH  11  13
ATOM      1  O   UNL     1     -15.521   4.380  21.914  0.00  0.00    -0.354 OA
ATOM      5  N   UNL     1     -16.094   3.571  22.887  0.00  0.00    -0.083 NA
ATOM     13  C   UNL     1     -15.397   3.823  23.999  0.00  0.00    +0.085 A 
ATOM     15  C   UNL     1     -14.382   4.772  23.790  0.00  0.00    +0.076 A 
ATOM     16  C   UNL     1     -14.503   5.091  22.463  0.00  0.00    +0.167 A 
BRANCH  16  19
ATOM     19  C   UNL     1     -13.813   5.978  21.572  0.00  0.00    +0.020 A 
ATOM     21  C   UNL     1     -12.471   7.700  19.837  0.00  0.00    -0.042 A 
ATOM     22  C   UNL     1     -12.419   5.967  21.519  0.00  0.00    +0.012 A 
ATOM     23  C   UNL     1     -14.536   6.848  20.757  0.00  0.00    +0.012 A 
ATOM     24  C   UNL     1     -11.748   6.829  20.651  0.00  0.00    +0.005 A 
ATOM     25  C   UNL     1     -13.864   7.710  19.888  0.00  0.00    +0.005 A 
BRANCH  21  17
ATOM     17  C   UNL     1     -11.753   8.622  18.909  0.00  0.00    -0.013 C 
ATOM     26  C   UNL     1     -12.751   9.549  18.149  0.00  0.00    +0.015 C 
ATOM     27  C   UNL     1     -10.941   7.828  17.839  0.00  0.00    +0.015 C 
ATOM     28  C   UNL     1     -10.721   9.584  19.584  0.00  0.00    +0.015 C 
ENDBRANCH  21  17
ENDBRANCH  16  19
ENDBRANCH  11  13
TORSDOF 8
ENDMDL
MODEL 3
REMARK VINA RESULT:      -7.0     29.206     32.981
REMARK  Name = 26743302
REMARK  12 active torsions:
REMARK  status: ('A' for Active; 'I' for Inactive)
REMARK    1  A    between atoms: N_4  and  C_18
REMARK    2  A    between atoms: N_4  and  C_20
REMARK    3  A    between atoms: C_6  and  C_12
REMARK    4  A    between atoms: C_7  and  C_11
REMARK    5  A    between atoms: C_11  and  C_13
REMARK    6  A    between atoms: C_12  and  C_14
REMARK    7  A    between atoms: C_16  and  C_19
REMARK    8  A    between atoms: C_17  and  C_21
REMARK    9  A    between atoms: C_17  and  C_26
REMARK   10  A    between atoms: C_17  and  C_27
REMARK   11  A    between atoms: C_17  and  C_28
REMARK   12  A    between atoms: C_18  and  C_29
REMARK                            x       y       z     vdW  Elec       q    Type
REMARK                         _______ _______ _______ _____ _____    ______ ____
ROOT
ATOM     11  C   UNL     1     -16.992   2.986  26.155  0.00  0.00    +0.064 C 
ENDROOT
BRANCH  11   7
ATOM      3  N   UNL     1     -18.178   5.788  28.471  0.00  0.00    -0.316 NA
ATOM      6  C   UNL     1     -16.182   3.615  28.507  0.00  0.00    +0.004 C 
ATOM      7  C   UNL     1     -16.882   4.087  27.210  0.00  0.00    +0.012 C 
ATOM      8  C   UNL     1     -16.196   4.764  29.530  0.00  0.00    +0.019 C 
ATOM      9  C   UNL     1     -18.264   4.697  27.499  0.00  0.00    +0.085 C 
ATOM     10  C   UNL     1     -17.594   5.346  29.735  0.00  0.00    +0.081 C 
ATOM     31  H   UNL     1     -19.112   6.161  28.643  0.00  0.00    +0.122 HD
BRANCH   6  12
ATOM     12  C   UNL     1     -16.781   2.340  29.111  0.00  0.00    +0.100 C 
BRANCH  12  14
ATOM      2  O   UNL     1     -15.691   0.448  28.119  0.00  0.00    -0.276 OA
ATOM      4  N   UNL     1     -15.047   1.012  30.276  0.00  0.00    -0.293 N 
ATOM     14  C   UNL     1     -15.799   1.180  29.107  0.00  0.00    +0.216 C 
ATOM     20  C   UNL     1     -14.065  -0.054  30.427  0.00  0.00    +0.133 C 
BRANCH   4  18
ATOM     18  C   UNL     1     -15.193   1.892  31.433  0.00  0.00    +0.196 C 
BRANCH  18  29
ATOM     29  C   UNL     1     -13.995   2.707  31.630  0.00  0.00    -0.086 C 
ATOM     30  C   UNL     1     -13.013   3.380  31.792  0.00  0.00    +0.005 C 
ENDBRANCH  18  29
ENDBRANCH   4  18
ENDBRANCH  12  14
ENDBRANCH   6  12
ENDBRANCH  11   7
BRANCH  11  13
ATOM      1  O   UNL     1     -15.760   3.281  22.785  0.00  0.00    -0.354 OA
ATOM      5  N   UNL     1     -16.404   2.587  23.802  0.00  0.00    -0.083 NA
ATOM     13  C   UNL     1     -16.376   3.412  24.853  0.00  0.00    +0.085 A 
ATOM     15  C   UNL     1     -15.734   4.627  24.562  0.00  0.00    +0.076 A 
ATOM     16  C   UNL     1     -15.366   4.494  23.249  0.00  0.00    +0.167 A 
BRANCH  16  19
ATOM     19  C   UNL     1     -14.683   5.329  22.304  0.00  0.00    +0.020 A 
ATOM     21  C   UNL     1     -13.355   6.956  20.469  0.00  0.00    -0.042 A 
ATOM     22  C   UNL     1     -15.413   6.119  21.416  0.00  0.00    +0.012 A 
ATOM     23  C   UNL     1     -13.289   5.353  22.274  0.00  0.00    +0.012 A 
ATOM     24  C   UNL     1     -14.749   6.933  20.499  0.00  0.00    +0.005 A 
ATOM     25  C   UNL     1     -12.624   6.167  21.356  0.00  0.00    +0.005 A 
BRANCH  21  17
ATOM     17  C   UNL     1     -12.644   7.827  19.487  0.00  0.00    -0.013 C 
ATOM     26  C   UNL     1     -13.567   8.190  18.283  0.00  0.00    +0.015 C 
ATOM     27  C   UNL     1     -11.381   7.115  18.912  0.00  0.00    +0.015 C 
ATOM     28  C   UNL     1     -12.133   9.194  20.049  0.00  0.00    +0.015 C 
ENDBRANCH  21  17
ENDBRANCH  16  19
ENDBRANCH  11  13
TORSDOF 8
ENDMDL
MODEL 4
REMARK VINA RESULT:      -6.8      1.735      2.435
REMARK  Name = 26743302
REMARK  12 active torsions:
REMARK  status: ('A' for Active; 'I' for Inactive)
REMARK    1  A    between atoms: N_4  and  C_18
REMARK    2  A    between atoms: N_4  and  C_20
REMARK    3  A    between atoms: C_6  and  C_12
REMARK    4  A    between atoms: C_7  and  C_11
REMARK    5  A    between atoms: C_11  and  C_13
REMARK    6  A    between atoms: C_12  and  C_14
REMARK    7  A    between atoms: C_16  and  C_19
REMARK    8  A    between atoms: C_17  and  C_21
REMARK    9  A    between atoms: C_17  and  C_26
REMARK   10  A    between atoms: C_17  and  C_27
REMARK   11  A    between atoms: C_17  and  C_28
REMARK   12  A    between atoms: C_18  and  C_29
REMARK                            x       y       z     vdW  Elec       q    Type
REMARK                         _______ _______ _______ _____ _____    ______ ____
ROOT
ATOM     11  C   UNL     1      14.659   7.152  20.236  0.00  0.00    +0.064 C 
ENDROOT
BRANCH  11   7
ATOM      3  N   UNL     1      11.954   7.179  17.532  0.00  0.00    -0.316 NA
ATOM      6  C   UNL     1      13.894   9.066  18.707  0.00  0.00    +0.004 C 
ATOM      7  C   UNL     1      13.982   7.536  18.919  0.00  0.00    +0.012 C 
ATOM      8  C   UNL     1      13.128   9.348  17.403  0.00  0.00    +0.019 C 
ATOM      9  C   UNL     1      12.602   6.866  18.806  0.00  0.00    +0.085 C 
ATOM     10  C   UNL     1      11.787   8.618  17.346  0.00  0.00    +0.081 C 
ATOM     31  H   UNL     1      11.041   6.726  17.498  0.00  0.00    +0.122 HD
BRANCH   6  12
ATOM     12  C   UNL     1      13.268   9.825  19.883  0.00  0.00    +0.100 C 
BRANCH  12  14
ATOM      2  O   UNL     1      15.398  10.898  20.132  0.00  0.00    -0.276 OA
ATOM      4  N   UNL     1      13.840  11.266  21.812  0.00  0.00    -0.293 N 
ATOM     14  C   UNL     1      14.274  10.706  20.605  0.00  0.00    +0.216 C 
ATOM     20  C   UNL     1      14.689  12.132  22.621  0.00  0.00    +0.133 C 
BRANCH   4  18
ATOM     18  C   UNL     1      12.504  11.023  22.352  0.00  0.00    +0.196 C 
BRANCH  18  29
ATOM     29  C   UNL     1      11.613  12.149  22.078  0.00  0.00    -0.086 C 
ATOM     30  C   UNL     1      10.878  13.070  21.849  0.00  0.00    +0.005 C 
ENDBRANCH  18  29
ENDBRANCH   4  18
ENDBRANCH  12  14
ENDBRANCH   6  12
ENDBRANCH  11   7
BRANCH  11  13
ATOM      1  O   UNL     1      17.698   5.657  19.015  0.00  0.00    -0.354 OA
ATOM      5  N   UNL     1      16.343   5.947  18.912  0.00  0.00    -0.083 NA
ATOM     13  C   UNL     1      16.058   6.658  20.008  0.00  0.00    +0.085 A 
ATOM     15  C   UNL     1      17.182   6.844  20.830  0.00  0.00    +0.076 A 
ATOM     16  C   UNL     1      18.186   6.196  20.161  0.00  0.00    +0.167 A 
BRANCH  16  19
ATOM     19  C   UNL     1      19.583   5.977  20.405  0.00  0.00    +0.020 A 
ATOM     21  C   UNL     1      22.299   5.554  20.875  0.00  0.00    -0.042 A 
ATOM     22  C   UNL     1      20.099   4.681  20.394  0.00  0.00    +0.012 A 
ATOM     23  C   UNL     1      20.425   7.062  20.649  0.00  0.00    +0.012 A 
ATOM     24  C   UNL     1      21.457   4.470  20.629  0.00  0.00    +0.005 A 
ATOM     25  C   UNL     1      21.784   6.850  20.885  0.00  0.00    +0.005 A 
BRANCH  21  17
ATOM     17  C   UNL     1      23.752   5.328  21.127  0.00  0.00    -0.013 C 
ATOM     26  C   UNL     1      24.551   6.666  21.069  0.00  0.00    +0.015 C 
ATOM     27  C   UNL     1      24.367   4.367  20.064  0.00  0.00    +0.015 C 
ATOM     28  C   UNL     1      24.102   4.693  22.513  0.00  0.00    +0.015 C 
ENDBRANCH  21  17
ENDBRANCH  16  19
ENDBRANCH  11  13
TORSDOF 8
ENDMDL
MODEL 5
REMARK VINA RESULT:      -6.8      3.685     10.980
REMARK  Name = 26743302
REMARK  12 active torsions:
REMARK  status: ('A' for Active; 'I' for Inactive)
REMARK    1  A    between atoms: N_4  and  C_18
REMARK    2  A    between atoms: N_4  and  C_20
REMARK    3  A    between atoms: C_6  and  C_12
REMARK    4  A    between atoms: C_7  and  C_11
REMARK    5  A    between atoms: C_11  and  C_13
REMARK    6  A    between atoms: C_12  and  C_14
REMARK    7  A    between atoms: C_16  and  C_19
REMARK    8  A    between atoms: C_17  and  C_21
REMARK    9  A    between atoms: C_17  and  C_26
REMARK   10  A    between atoms: C_17  and  C_27
REMARK   11  A    between atoms: C_17  and  C_28
REMARK   12  A    between atoms: C_18  and  C_29
REMARK                            x       y       z     vdW  Elec       q    Type
REMARK                         _______ _______ _______ _____ _____    ______ ____
ROOT
ATOM     11  C   UNL     1      21.849   5.163  21.595  0.00  0.00    +0.064 C 
ENDROOT
BRANCH  11   7
ATOM      3  N   UNL     1      24.581   3.670  19.374  0.00  0.00    -0.316 NA
ATOM      6  C   UNL     1      22.941   2.843  21.683  0.00  0.00    +0.004 C 
ATOM      7  C   UNL     1      22.606   4.084  20.821  0.00  0.00    +0.012 C 
ATOM      8  C   UNL     1      23.770   1.857  20.842  0.00  0.00    +0.019 C 
ATOM      9  C   UNL     1      23.865   4.674  20.162  0.00  0.00    +0.085 C 
ATOM     10  C   UNL     1      24.980   2.524  20.187  0.00  0.00    +0.081 C 
ATOM     31  H   UNL     1      25.411   4.096  18.961  0.00  0.00    +0.122 HD
BRANCH   6  12
ATOM     12  C   UNL     1      23.654   3.172  23.000  0.00  0.00    +0.100 C 
BRANCH  12  14
ATOM      2  O   UNL     1      22.190   2.106  24.571  0.00  0.00    -0.276 OA
ATOM      4  N   UNL     1      24.389   1.366  24.525  0.00  0.00    -0.293 N 
ATOM     14  C   UNL     1      23.329   2.175  24.100  0.00  0.00    +0.216 C 
ATOM     20  C   UNL     1      24.235   0.363  25.572  0.00  0.00    +0.133 C 
BRANCH   4  18
ATOM     18  C   UNL     1      25.729   1.467  23.952  0.00  0.00    +0.196 C 
BRANCH  18  29
ATOM     29  C   UNL     1      26.054   0.283  23.159  0.00  0.00    -0.086 C 
ATOM     30  C   UNL     1      26.316  -0.689  22.505  0.00  0.00    +0.005 C 
ENDBRANCH  18  29
ENDBRANCH   4  18
ENDBRANCH  12  14
ENDBRANCH   6  12
ENDBRANCH  11   7
BRANCH  11  13
ATOM      1  O   UNL     1      18.766   5.119  19.737  0.00  0.00    -0.354 OA
ATOM      5  N   UNL     1      19.995   4.577  20.092  0.00  0.00    -0.083 NA
ATOM     13  C   UNL     1      20.504   5.433  20.983  0.00  0.00    +0.085 A 
ATOM     15  C   UNL     1      19.651   6.522  21.226  0.00  0.00    +0.076 A 
ATOM     16  C   UNL     1      18.572   6.277  20.418  0.00  0.00    +0.167 A 
BRANCH  16  19
ATOM     19  C   UNL     1      17.336   6.955  20.154  0.00  0.00    +0.020 A 
ATOM     21  C   UNL     1      14.934   8.274  19.636  0.00  0.00    -0.042 A 
ATOM     22  C   UNL     1      17.089   8.203  20.725  0.00  0.00    +0.012 A 
ATOM     23  C   UNL     1      16.382   6.366  19.323  0.00  0.00    +0.012 A 
ATOM     24  C   UNL     1      15.888   8.863  20.466  0.00  0.00    +0.005 A 
ATOM     25  C   UNL     1      15.180   7.026  19.064  0.00  0.00    +0.005 A 
BRANCH  21  17
ATOM     17  C   UNL     1      13.649   8.980  19.360  0.00  0.00    -0.013 C 
ATOM     26  C   UNL     1      12.534   7.977  18.929  0.00  0.00    +0.015 C 
ATOM     27  C   UNL     1      13.812  10.022  18.210  0.00  0.00    +0.015 C 
ATOM     28  C   UNL     1      13.049   9.778  20.563  0.00  0.00    +0.015 C 
ENDBRANCH  21  17
ENDBRANCH  16  19
ENDBRANCH  11  13
TORSDOF 8
ENDMDL
MODEL 6
REMARK VINA RESULT:      -6.7      1.650      4.081
REMARK  Name = 26743302
REMARK  12 active torsions:
REMARK  status: ('A' for Active; 'I' for Inactive)
REMARK    1  A    between atoms: N_4  and  C_18
REMARK    2  A    between atoms: N_4  and  C_20
REMARK    3  A    between atoms: C_6  and  C_12
REMARK    4  A    between atoms: C_7  and  C_11
REMARK    5  A    between atoms: C_11  and  C_13
REMARK    6  A    between atoms: C_12  and  C_14
REMARK    7  A    between atoms: C_16  and  C_19
REMARK    8  A    between atoms: C_17  and  C_21
REMARK    9  A    between atoms: C_17  and  C_26
REMARK   10  A    between atoms: C_17  and  C_27
REMARK   11  A    between atoms: C_17  and  C_28
REMARK   12  A    between atoms: C_18  and  C_29
REMARK                            x       y       z     vdW  Elec       q    Type
REMARK                         _______ _______ _______ _____ _____    ______ ____
ROOT
ATOM     11  C   UNL     1      14.453   8.844  20.507  0.00  0.00    +0.064 C 
ENDROOT
BRANCH  11   7
ATOM      3  N   UNL     1      11.578   9.256  22.996  0.00  0.00    -0.316 NA
ATOM      6  C   UNL     1      12.071   7.891  20.427  0.00  0.00    +0.004 C 
ATOM      7  C   UNL     1      13.213   8.449  21.310  0.00  0.00    +0.012 C 
ATOM      8  C   UNL     1      10.847   7.602  21.313  0.00  0.00    +0.019 C 
ATOM      9  C   UNL     1      12.735   9.625  22.180  0.00  0.00    +0.085 C 
ATOM     10  C   UNL     1      10.457   8.802  22.176  0.00  0.00    +0.081 C 
ATOM     31  H   UNL     1      11.286  10.060  23.550  0.00  0.00    +0.122 HD
BRANCH   6  12
ATOM     12  C   UNL     1      11.693   8.798  19.250  0.00  0.00    +0.100 C 
BRANCH  12  14
ATOM      2  O   UNL     1      12.187   7.148  17.583  0.00  0.00    -0.276 OA
ATOM      4  N   UNL     1      12.961   9.299  17.185  0.00  0.00    -0.293 N 
ATOM     14  C   UNL     1      12.295   8.325  17.937  0.00  0.00    +0.216 C 
ATOM     20  C   UNL     1      13.591   9.000  15.904  0.00  0.00    +0.133 C 
BRANCH   4  18
ATOM     18  C   UNL     1      13.076  10.687  17.626  0.00  0.00    +0.196 C 
BRANCH  18  29
ATOM     29  C   UNL     1      14.466  11.137  17.591  0.00  0.00    -0.086 C 
ATOM     30  C   UNL     1      15.608  11.510  17.567  0.00  0.00    +0.005 C 
ENDBRANCH  18  29
ENDBRANCH   4  18
ENDBRANCH  12  14
ENDBRANCH   6  12
ENDBRANCH  11   7
BRANCH  11  13
ATOM      1  O   UNL     1      16.508   5.904  20.810  0.00  0.00    -0.354 OA
ATOM      5  N   UNL     1      15.286   6.535  20.614  0.00  0.00    -0.083 NA
ATOM     13  C   UNL     1      15.557   7.842  20.678  0.00  0.00    +0.085 A 
ATOM     15  C   UNL     1      16.920   8.093  20.910  0.00  0.00    +0.076 A 
ATOM     16  C   UNL     1      17.474   6.842  20.985  0.00  0.00    +0.167 A 
BRANCH  16  19
ATOM     19  C   UNL     1      18.799   6.338  21.198  0.00  0.00    +0.020 A 
ATOM     21  C   UNL     1      21.376   5.354  21.615  0.00  0.00    -0.042 A 
ATOM     22  C   UNL     1      19.499   6.683  22.354  0.00  0.00    +0.012 A 
ATOM     23  C   UNL     1      19.387   5.500  20.251  0.00  0.00    +0.012 A 
ATOM     24  C   UNL     1      20.788   6.191  22.563  0.00  0.00    +0.005 A 
ATOM     25  C   UNL     1      20.676   5.008  20.459  0.00  0.00    +0.005 A 
BRANCH  21  17
ATOM     17  C   UNL     1      22.754   4.828  21.837  0.00  0.00    -0.013 C 
ATOM     26  C   UNL     1      22.737   3.570  22.759  0.00  0.00    +0.015 C 
ATOM     27  C   UNL     1      23.664   5.897  22.519  0.00  0.00    +0.015 C 
ATOM     28  C   UNL     1      23.522   4.390  20.547  0.00  0.00    +0.015 C 
ENDBRANCH  21  17
ENDBRANCH  16  19
ENDBRANCH  11  13
TORSDOF 8
ENDMDL
MODEL 7
REMARK VINA RESULT:      -6.4      2.229      3.902
REMARK  Name = 26743302
REMARK  12 active torsions:
REMARK  status: ('A' for Active; 'I' for Inactive)
REMARK    1  A    between atoms: N_4  and  C_18
REMARK    2  A    between atoms: N_4  and  C_20
REMARK    3  A    between atoms: C_6  and  C_12
REMARK    4  A    between atoms: C_7  and  C_11
REMARK    5  A    between atoms: C_11  and  C_13
REMARK    6  A    between atoms: C_12  and  C_14
REMARK    7  A    between atoms: C_16  and  C_19
REMARK    8  A    between atoms: C_17  and  C_21
REMARK    9  A    between atoms: C_17  and  C_26
REMARK   10  A    between atoms: C_17  and  C_27
REMARK   11  A    between atoms: C_17  and  C_28
REMARK   12  A    between atoms: C_18  and  C_29
REMARK                            x       y       z     vdW  Elec       q    Type
REMARK                         _______ _______ _______ _____ _____    ______ ____
ROOT
ATOM     11  C   UNL     1      16.545   7.731  20.680  0.00  0.00    +0.064 C 
ENDROOT
BRANCH  11   7
ATOM      3  N   UNL     1      13.025   6.514  19.814  0.00  0.00    -0.316 NA
ATOM      6  C   UNL     1      14.880   8.639  18.950  0.00  0.00    +0.004 C 
ATOM      7  C   UNL     1      15.334   7.426  19.798  0.00  0.00    +0.012 C 
ATOM      8  C   UNL     1      13.614   8.257  18.166  0.00  0.00    +0.019 C 
ATOM      9  C   UNL     1      14.180   6.860  20.643  0.00  0.00    +0.085 C 
ATOM     10  C   UNL     1      12.528   7.665  19.065  0.00  0.00    +0.081 C 
ATOM     31  H   UNL     1      12.280   6.151  20.409  0.00  0.00    +0.122 HD
BRANCH   6  12
ATOM     12  C   UNL     1      14.654   9.919  19.763  0.00  0.00    +0.100 C 
BRANCH  12  14
ATOM      2  O   UNL     1      16.775  11.001  20.045  0.00  0.00    -0.276 OA
ATOM      4  N   UNL     1      15.325  11.933  18.491  0.00  0.00    -0.293 N 
ATOM     14  C   UNL     1      15.689  10.989  19.459  0.00  0.00    +0.216 C 
ATOM     20  C   UNL     1      16.209  13.021  18.090  0.00  0.00    +0.133 C 
BRANCH   4  18
ATOM     18  C   UNL     1      14.033  11.899  17.811  0.00  0.00    +0.196 C 
BRANCH  18  29
ATOM     29  C   UNL     1      14.180  11.470  16.421  0.00  0.00    -0.086 C 
ATOM     30  C   UNL     1      14.304  11.122  15.278  0.00  0.00    +0.005 C 
ENDBRANCH  18  29
ENDBRANCH   4  18
ENDBRANCH  12  14
ENDBRANCH   6  12
ENDBRANCH  11   7
BRANCH  11  13
ATOM      1  O   UNL     1      18.755   5.165  19.460  0.00  0.00    -0.354 OA
ATOM      5  N   UNL     1      17.560   5.873  19.432  0.00  0.00    -0.083 NA
ATOM     13  C   UNL     1      17.671   6.775  20.413  0.00  0.00    +0.085 A 
ATOM     15  C   UNL     1      18.901   6.683  21.086  0.00  0.00    +0.076 A 
ATOM     16  C   UNL     1      19.545   5.656  20.448  0.00  0.00    +0.167 A 
BRANCH  16  19
ATOM     19  C   UNL     1      20.822   5.020  20.598  0.00  0.00    +0.020 A 
ATOM     21  C   UNL     1      23.305   3.783  20.884  0.00  0.00    -0.042 A 
ATOM     22  C   UNL     1      20.893   3.674  20.956  0.00  0.00    +0.012 A 
ATOM     23  C   UNL     1      21.992   5.748  20.382  0.00  0.00    +0.012 A 
ATOM     24  C   UNL     1      22.135   3.055  21.099  0.00  0.00    +0.005 A 
ATOM     25  C   UNL     1      23.235   5.129  20.525  0.00  0.00    +0.005 A 
BRANCH  21  17
ATOM     17  C   UNL     1      24.634   3.121  21.038  0.00  0.00    -0.013 C 
ATOM     26  C   UNL     1      25.487   3.257  19.739  0.00  0.00    +0.015 C 
ATOM     27  C   UNL     1      24.475   1.599  21.340  0.00  0.00    +0.015 C 
ATOM     28  C   UNL     1      25.534   3.682  22.188  0.00  0.00    +0.015 C 
ENDBRANCH  21  17
ENDBRANCH  16  19
ENDBRANCH  11  13
TORSDOF 8
ENDMDL
MODEL 8
REMARK VINA RESULT:      -6.4      3.296     10.125
REMARK  Name = 26743302
REMARK  12 active torsions:
REMARK  status: ('A' for Active; 'I' for Inactive)
REMARK    1  A    between atoms: N_4  and  C_18
REMARK    2  A    between atoms: N_4  and  C_20
REMARK    3  A    between atoms: C_6  and  C_12
REMARK    4  A    between atoms: C_7  and  C_11
REMARK    5  A    between atoms: C_11  and  C_13
REMARK    6  A    between atoms: C_12  and  C_14
REMARK    7  A    between atoms: C_16  and  C_19
REMARK    8  A    between atoms: C_17  and  C_21
REMARK    9  A    between atoms: C_17  and  C_26
REMARK   10  A    between atoms: C_17  and  C_27
REMARK   11  A    between atoms: C_17  and  C_28
REMARK   12  A    between atoms: C_18  and  C_29
REMARK                            x       y       z     vdW  Elec       q    Type
REMARK                         _______ _______ _______ _____ _____    ______ ____
ROOT
ATOM     11  C   UNL     1      21.810   5.166  21.651  0.00  0.00    +0.064 C 
ENDROOT
BRANCH  11   7
ATOM      3  N   UNL     1      24.422   3.578  19.353  0.00  0.00    -0.316 NA
ATOM      6  C   UNL     1      23.065   2.940  21.894  0.00  0.00    +0.004 C 
ATOM      7  C   UNL     1      22.566   4.047  20.934  0.00  0.00    +0.012 C 
ATOM      8  C   UNL     1      23.880   1.911  21.092  0.00  0.00    +0.019 C 
ATOM      9  C   UNL     1      23.714   4.626  20.089  0.00  0.00    +0.085 C 
ATOM     10  C   UNL     1      24.973   2.563  20.247  0.00  0.00    +0.081 C 
ATOM     31  H   UNL     1      25.178   3.998  18.812  0.00  0.00    +0.122 HD
BRANCH   6  12
ATOM     12  C   UNL     1      23.873   3.467  23.086  0.00  0.00    +0.100 C 
BRANCH  12  14
ATOM      2  O   UNL     1      22.992   1.859  24.631  0.00  0.00    -0.276 OA
ATOM      4  N   UNL     1      23.099   4.059  25.361  0.00  0.00    -0.293 N 
ATOM     14  C   UNL     1      23.282   3.040  24.420  0.00  0.00    +0.216 C 
ATOM     20  C   UNL     1      22.543   3.809  26.685  0.00  0.00    +0.133 C 
BRANCH   4  18
ATOM     18  C   UNL     1      23.451   5.451  25.087  0.00  0.00    +0.196 C 
BRANCH  18  29
ATOM     29  C   UNL     1      22.256   6.287  24.989  0.00  0.00    -0.086 C 
ATOM     30  C   UNL     1      21.272   6.971  24.905  0.00  0.00    +0.005 C 
ENDBRANCH  18  29
ENDBRANCH   4  18
ENDBRANCH  12  14
ENDBRANCH   6  12
ENDBRANCH  11   7
BRANCH  11  13
ATOM      1  O   UNL     1      18.777   5.103  19.714  0.00  0.00    -0.354 OA
ATOM      5  N   UNL     1      20.007   4.577  20.089  0.00  0.00    -0.083 NA
ATOM     13  C   UNL     1      20.476   5.422  21.012  0.00  0.00    +0.085 A 
ATOM     15  C   UNL     1      19.595   6.488  21.257  0.00  0.00    +0.076 A 
ATOM     16  C   UNL     1      18.542   6.240  20.417  0.00  0.00    +0.167 A 
BRANCH  16  19
ATOM     19  C   UNL     1      17.299   6.899  20.136  0.00  0.00    +0.020 A 
ATOM     21  C   UNL     1      14.882   8.180  19.594  0.00  0.00    -0.042 A 
ATOM     22  C   UNL     1      16.357   6.289  19.307  0.00  0.00    +0.012 A 
ATOM     23  C   UNL     1      17.032   8.149  20.695  0.00  0.00    +0.012 A 
ATOM     24  C   UNL     1      15.149   6.929  19.037  0.00  0.00    +0.005 A 
ATOM     25  C   UNL     1      15.822   8.790  20.424  0.00  0.00    +0.005 A 
BRANCH  21  17
ATOM     17  C   UNL     1      13.588   8.865  19.304  0.00  0.00    -0.013 C 
ATOM     26  C   UNL     1      12.873   9.303  20.619  0.00  0.00    +0.015 C 
ATOM     27  C   UNL     1      12.613   7.926  18.530  0.00  0.00    +0.015 C 
ATOM     28  C   UNL     1      13.696  10.161  18.435  0.00  0.00    +0.015 C 
ENDBRANCH  21  17
ENDBRANCH  16  19
ENDBRANCH  11  13
TORSDOF 8
ENDMDL
MODEL 9
REMARK VINA RESULT:      -6.3      1.790      3.936
REMARK  Name = 26743302
REMARK  12 active torsions:
REMARK  status: ('A' for Active; 'I' for Inactive)
REMARK    1  A    between atoms: N_4  and  C_18
REMARK    2  A    between atoms: N_4  and  C_20
REMARK    3  A    between atoms: C_6  and  C_12
REMARK    4  A    between atoms: C_7  and  C_11
REMARK    5  A    between atoms: C_11  and  C_13
REMARK    6  A    between atoms: C_12  and  C_14
REMARK    7  A    between atoms: C_16  and  C_19
REMARK    8  A    between atoms: C_17  and  C_21
REMARK    9  A    between atoms: C_17  and  C_26
REMARK   10  A    between atoms: C_17  and  C_27
REMARK   11  A    between atoms: C_17  and  C_28
REMARK   12  A    between atoms: C_18  and  C_29
REMARK                            x       y       z     vdW  Elec       q    Type
REMARK                         _______ _______ _______ _____ _____    ______ ____
ROOT
ATOM     11  C   UNL     1      15.996   8.136  20.130  0.00  0.00    +0.064 C 
ENDROOT
BRANCH  11   7
ATOM      3  N   UNL     1      12.747   7.078  21.847  0.00  0.00    -0.316 NA
ATOM      6  C   UNL     1      13.731   7.511  19.099  0.00  0.00    +0.004 C 
ATOM      7  C   UNL     1      14.677   7.385  20.317  0.00  0.00    +0.012 C 
ATOM      8  C   UNL     1      12.407   6.795  19.417  0.00  0.00    +0.019 C 
ATOM      9  C   UNL     1      13.987   7.819  21.621  0.00  0.00    +0.085 C 
ATOM     10  C   UNL     1      11.802   7.249  20.745  0.00  0.00    +0.081 C 
ATOM     31  H   UNL     1      12.315   7.399  22.713  0.00  0.00    +0.122 HD
BRANCH   6  12
ATOM     12  C   UNL     1      13.477   8.956  18.654  0.00  0.00    +0.100 C 
BRANCH  12  14
ATOM      2  O   UNL     1      13.328   8.397  16.328  0.00  0.00    -0.276 OA
ATOM      4  N   UNL     1      14.575  10.276  16.872  0.00  0.00    -0.293 N 
ATOM     14  C   UNL     1      13.776   9.169  17.180  0.00  0.00    +0.216 C 
ATOM     20  C   UNL     1      14.949  10.613  15.504  0.00  0.00    +0.133 C 
BRANCH   4  18
ATOM     18  C   UNL     1      15.095  11.177  17.898  0.00  0.00    +0.196 C 
BRANCH  18  29
ATOM     29  C   UNL     1      14.329  12.421  17.944  0.00  0.00    -0.086 C 
ATOM     30  C   UNL     1      13.704  13.446  17.983  0.00  0.00    +0.005 C 
ENDBRANCH  18  29
ENDBRANCH   4  18
ENDBRANCH  12  14
ENDBRANCH   6  12
ENDBRANCH  11   7
BRANCH  11  13
ATOM      1  O   UNL     1      18.486   5.580  19.653  0.00  0.00    -0.354 OA
ATOM      5  N   UNL     1      17.319   6.242  19.291  0.00  0.00    -0.083 NA
ATOM     13  C   UNL     1      17.172   7.205  20.207  0.00  0.00    +0.085 A 
ATOM     15  C   UNL     1      18.203   7.197  21.160  0.00  0.00    +0.076 A 
ATOM     16  C   UNL     1      19.003   6.157  20.767  0.00  0.00    +0.167 A 
BRANCH  16  19
ATOM     19  C   UNL     1      20.218   5.577  21.261  0.00  0.00    +0.020 A 
ATOM     21  C   UNL     1      22.582   4.452  22.221  0.00  0.00    -0.042 A 
ATOM     22  C   UNL     1      20.822   4.526  20.570  0.00  0.00    +0.012 A 
ATOM     23  C   UNL     1      20.797   6.065  22.432  0.00  0.00    +0.012 A 
ATOM     24  C   UNL     1      22.004   3.964  21.050  0.00  0.00    +0.005 A 
ATOM     25  C   UNL     1      21.980   5.502  22.913  0.00  0.00    +0.005 A 
BRANCH  21  17
ATOM     17  C   UNL     1      23.847   3.849  22.735  0.00  0.00    -0.013 C 
ATOM     26  C   UNL     1      23.843   3.769  24.293  0.00  0.00    +0.015 C 
ATOM     27  C   UNL     1      25.088   4.693  22.312  0.00  0.00    +0.015 C 
ATOM     28  C   UNL     1      24.146   2.395  22.243  0.00  0.00    +0.015 C 
ENDBRANCH  21  17
ENDBRANCH  16  19
ENDBRANCH  11  13
TORSDOF 8
ENDMDL
MODEL 10
REMARK VINA RESULT:      -6.1     28.168     33.039
REMARK  Name = 26743302
REMARK  12 active torsions:
REMARK  status: ('A' for Active; 'I' for Inactive)
REMARK    1  A    between atoms: N_4  and  C_18
REMARK    2  A    between atoms: N_4  and  C_20
REMARK    3  A    between atoms: C_6  and  C_12
REMARK    4  A    between atoms: C_7  and  C_11
REMARK    5  A    between atoms: C_11  and  C_13
REMARK    6  A    between atoms: C_12  and  C_14
REMARK    7  A    between atoms: C_16  and  C_19
REMARK    8  A    between atoms: C_17  and  C_21
REMARK    9  A    between atoms: C_17  and  C_26
REMARK   10  A    between atoms: C_17  and  C_27
REMARK   11  A    between atoms: C_17  and  C_28
REMARK   12  A    between atoms: C_18  and  C_29
REMARK                            x       y       z     vdW  Elec       q    Type
REMARK                         _______ _______ _______ _____ _____    ______ ____
ROOT
ATOM     11  C   UNL     1      -7.349 -12.860  18.601  0.00  0.00    +0.064 C 
ENDROOT
BRANCH  11   7
ATOM      3  N   UNL     1      -3.659 -11.918  18.245  0.00  0.00    -0.316 NA
ATOM      6  C   UNL     1      -6.258 -11.041  17.157  0.00  0.00    +0.004 C 
ATOM      7  C   UNL     1      -6.137 -11.949  18.404  0.00  0.00    +0.012 C 
ATOM      8  C   UNL     1      -4.961 -10.228  17.001  0.00  0.00    +0.019 C 
ATOM      9  C   UNL     1      -4.838 -12.774  18.383  0.00  0.00    +0.085 C 
ATOM     10  C   UNL     1      -3.713 -11.110  17.029  0.00  0.00    +0.081 C 
ATOM     31  H   UNL     1      -2.821 -12.500  18.226  0.00  0.00    +0.122 HD
BRANCH   6  12
ATOM     12  C   UNL     1      -6.587 -11.797  15.864  0.00  0.00    +0.100 C 
BRANCH  12  14
ATOM      2  O   UNL     1      -6.170 -10.558  13.855  0.00  0.00    -0.276 OA
ATOM      4  N   UNL     1      -8.300 -10.394  14.760  0.00  0.00    -0.293 N 
ATOM     14  C   UNL     1      -6.983 -10.864  14.732  0.00  0.00    +0.216 C 
ATOM     20  C   UNL     1      -8.829  -9.491  13.744  0.00  0.00    +0.133 C 
BRANCH   4  18
ATOM     18  C   UNL     1      -9.244 -10.770  15.809  0.00  0.00    +0.196 C 
BRANCH  18  29
ATOM     29  C   UNL     1      -9.546  -9.635  16.679  0.00  0.00    -0.086 C 
ATOM     30  C   UNL     1      -9.798  -8.703  17.394  0.00  0.00    +0.005 C 
ENDBRANCH  18  29
ENDBRANCH   4  18
ENDBRANCH  12  14
ENDBRANCH   6  12
ENDBRANCH  11   7
BRANCH  11  13
ATOM      1  O   UNL     1      -9.516 -10.593  20.367  0.00  0.00    -0.354 OA
ATOM      5  N   UNL     1      -8.262 -11.017  19.945  0.00  0.00    -0.083 NA
ATOM     13  C   UNL     1      -8.495 -12.119  19.225  0.00  0.00    +0.085 A 
ATOM     15  C   UNL     1      -9.862 -12.434  19.159  0.00  0.00    +0.076 A 
ATOM     16  C   UNL     1     -10.461 -11.444  19.893  0.00  0.00    +0.167 A 
BRANCH  16  19
ATOM     19  C   UNL     1     -11.815 -11.131  20.249  0.00  0.00    +0.020 A 
ATOM     21  C   UNL     1     -14.449 -10.525  20.937  0.00  0.00    -0.042 A 
ATOM     22  C   UNL     1     -12.362  -9.897  19.895  0.00  0.00    +0.012 A 
ATOM     23  C   UNL     1     -12.585 -12.062  20.945  0.00  0.00    +0.012 A 
ATOM     24  C   UNL     1     -13.679  -9.594  20.239  0.00  0.00    +0.005 A 
ATOM     25  C   UNL     1     -13.903 -11.759  21.290  0.00  0.00    +0.005 A 
BRANCH  21  17
ATOM     17  C   UNL     1     -15.857 -10.200  21.305  0.00  0.00    -0.013 C 
ATOM     26  C   UNL     1     -16.857 -10.707  20.220  0.00  0.00    +0.015 C 
ATOM     27  C   UNL     1     -16.063  -8.661  21.451  0.00  0.00    +0.015 C 
ATOM     28  C   UNL     1     -16.358 -10.817  22.653  0.00  0.00    +0.015 C 
ENDBRANCH  21  17
ENDBRANCH  16  19
ENDBRANCH  11  13
TORSDOF 8
ENDMDL
