MODEL 1
REMARK VINA RESULT:      -6.6      0.000      0.000
REMARK  Name = 40776839
REMARK  12 active torsions:
REMARK  status: ('A' for Active; 'I' for Inactive)
REMARK    1  A    between atoms: S_1  and  N_6
REMARK    2  A    between atoms: S_1  and  C_23
REMARK    3  A    between atoms: N_6  and  C_18
REMARK    4  A    between atoms: N_9  and  C_35
REMARK    5  A    between atoms: N_9  and  C_36
REMARK    6  A    between atoms: N_9  and  C_37
REMARK    7  A    between atoms: N_10  and  C_34
REMARK    8  A    between atoms: C_12  and  C_19
REMARK    9  A    between atoms: C_13  and  C_18
REMARK   10  A    between atoms: C_21  and  C_24
REMARK   11  A    between atoms: C_22  and  C_25
REMARK   12  A    between atoms: C_38  and  C_39
REMARK                            x       y       z     vdW  Elec       q    Type
REMARK                         _______ _______ _______ _____ _____    ______ ____
ROOT
ATOM      5  N   UNL     1      11.857  13.050  25.587  0.00  0.00    -0.297 NA
ATOM     11  C   UNL     1      10.664  13.350  23.290  0.00  0.00    +0.002 C 
ATOM     12  C   UNL     1      10.737  11.846  23.673  0.00  0.00    +0.055 C 
ATOM     13  C   UNL     1      12.674  13.919  24.699  0.00  0.00    +0.072 C 
ATOM     14  C   UNL     1      12.090  13.941  23.270  0.00  0.00    +0.024 C 
ATOM     15  C   UNL     1       9.895  14.061  24.425  0.00  0.00    +0.019 C 
ATOM     16  C   UNL     1      11.631  11.733  24.941  0.00  0.00    +0.094 C 
ATOM     17  C   UNL     1      10.539  13.704  25.775  0.00  0.00    +0.085 C 
ENDROOT
BRANCH  12  19
ATOM      7  N   UNL     1      10.682   9.585  22.741  0.00  0.00    -0.237 NA
ATOM      8  N   UNL     1      11.819   9.012  20.695  0.00  0.00    -0.232 NA
ATOM     19  C   UNL     1      11.136  10.848  22.595  0.00  0.00    +0.050 A 
ATOM     20  C   UNL     1      11.925  11.263  21.542  0.00  0.00    +0.052 A 
ATOM     21  C   UNL     1      12.238  10.292  20.613  0.00  0.00    +0.075 A 
ATOM     22  C   UNL     1      11.056   8.732  21.769  0.00  0.00    +0.127 A 
ATOM     25  C   UNL     1      10.575   7.326  21.896  0.00  0.00    +0.088 C 
BRANCH  21  24
ATOM     24  C   UNL     1      13.057  10.596  19.464  0.00  0.00    +0.001 A 
ATOM     28  C   UNL     1      13.331   9.605  18.520  0.00  0.00    +0.012 A 
ATOM     29  C   UNL     1      13.576  11.880  19.297  0.00  0.00    +0.012 A 
ATOM     32  C   UNL     1      14.123   9.899  17.411  0.00  0.00    +0.024 A 
ATOM     33  C   UNL     1      14.368  12.173  18.187  0.00  0.00    +0.024 A 
ATOM     35  C   UNL     1      14.641  11.183  17.244  0.00  0.00    +0.029 A 
BRANCH  35   9
ATOM      9  N   UNL     1      15.442  11.480  16.122  0.00  0.00    -0.336 N 
ATOM     36  C   UNL     1      15.204  10.819  14.854  0.00  0.00    +0.129 C 
ATOM     37  C   UNL     1      16.510  12.456  16.219  0.00  0.00    +0.129 C 
ENDBRANCH  35   9
ENDBRANCH  21  24
ENDBRANCH  12  19
BRANCH  13  18
ATOM     18  C   UNL     1      14.154  13.529  24.705  0.00  0.00    +0.124 C 
BRANCH  18   6
ATOM      6  N   UNL     1      14.666  13.452  23.372  0.00  0.00    -0.188 NA
ATOM     40  H   UNL     1      14.026  13.113  22.642  0.00  0.00    +0.148 HD
BRANCH   6   1
ATOM      1  S   UNL     1      16.345  13.200  23.068  0.00  0.00    +0.058 S 
ATOM      2  O   UNL     1      17.009  12.946  24.332  0.00  0.00    -0.153 OA
ATOM      3  O   UNL     1      16.851  14.219  22.169  0.00  0.00    -0.153 OA
BRANCH   1  23
ATOM     23  C   UNL     1      16.306  11.684  22.159  0.00  0.00    +0.105 A 
ATOM     26  C   UNL     1      17.030  11.563  20.973  0.00  0.00    +0.030 A 
ATOM     27  C   UNL     1      15.550  10.609  22.629  0.00  0.00    +0.030 A 
ATOM     30  C   UNL     1      16.999  10.367  20.257  0.00  0.00    +0.025 A 
ATOM     31  C   UNL     1      15.519   9.413  21.912  0.00  0.00    +0.025 A 
ATOM     34  C   UNL     1      16.243   9.291  20.726  0.00  0.00    +0.033 A 
BRANCH  34  10
ATOM      4  O   UNL     1      18.154   6.964  20.727  0.00  0.00    -0.276 OA
ATOM     10  N   UNL     1      16.214   8.094  20.010  0.00  0.00    -0.286 N 
ATOM     38  C   UNL     1      17.135   7.040  20.049  0.00  0.00    +0.214 C 
ATOM     39  C   UNL     1      16.741   5.918  19.119  0.00  0.00    +0.109 C 
ATOM     41  H   UNL     1      15.419   7.983  19.385  0.00  0.00    +0.155 HD
ENDBRANCH  34  10
ENDBRANCH   1  23
ENDBRANCH   6   1
ENDBRANCH  18   6
ENDBRANCH  13  18
TORSDOF 8
ENDMDL
MODEL 2
REMARK VINA RESULT:      -6.5     27.908     31.822
REMARK  Name = 40776839
REMARK  12 active torsions:
REMARK  status: ('A' for Active; 'I' for Inactive)
REMARK    1  A    between atoms: S_1  and  N_6
REMARK    2  A    between atoms: S_1  and  C_23
REMARK    3  A    between atoms: N_6  and  C_18
REMARK    4  A    between atoms: N_9  and  C_35
REMARK    5  A    between atoms: N_9  and  C_36
REMARK    6  A    between atoms: N_9  and  C_37
REMARK    7  A    between atoms: N_10  and  C_34
REMARK    8  A    between atoms: C_12  and  C_19
REMARK    9  A    between atoms: C_13  and  C_18
REMARK   10  A    between atoms: C_21  and  C_24
REMARK   11  A    between atoms: C_22  and  C_25
REMARK   12  A    between atoms: C_38  and  C_39
REMARK                            x       y       z     vdW  Elec       q    Type
REMARK                         _______ _______ _______ _____ _____    ______ ____
ROOT
ATOM      5  N   UNL     1      -7.241 -10.871   8.907  0.00  0.00    -0.297 NA
ATOM     11  C   UNL     1      -4.741 -10.483   8.289  0.00  0.00    +0.002 C 
ATOM     12  C   UNL     1      -4.856 -11.238   9.642  0.00  0.00    +0.055 C 
ATOM     13  C   UNL     1      -7.021  -9.445   8.548  0.00  0.00    +0.072 C 
ATOM     14  C   UNL     1      -5.515  -9.152   8.380  0.00  0.00    +0.024 C 
ATOM     15  C   UNL     1      -5.457 -11.353   7.233  0.00  0.00    +0.019 C 
ATOM     16  C   UNL     1      -6.360 -11.252  10.038  0.00  0.00    +0.094 C 
ATOM     17  C   UNL     1      -6.870 -11.697   7.733  0.00  0.00    +0.085 C 
ENDROOT
BRANCH  12  19
ATOM      7  N   UNL     1      -2.797 -10.199  10.457  0.00  0.00    -0.237 NA
ATOM      8  N   UNL     1      -2.311  -9.983  12.807  0.00  0.00    -0.232 NA
ATOM     19  C   UNL     1      -3.961 -10.796  10.791  0.00  0.00    +0.050 A 
ATOM     20  C   UNL     1      -4.363 -11.018  12.092  0.00  0.00    +0.052 A 
ATOM     21  C   UNL     1      -3.489 -10.587  13.069  0.00  0.00    +0.075 A 
ATOM     22  C   UNL     1      -2.032  -9.824  11.499  0.00  0.00    +0.127 A 
ATOM     25  C   UNL     1      -0.736  -9.162  11.170  0.00  0.00    +0.088 C 
BRANCH  21  24
ATOM     24  C   UNL     1      -3.791 -10.761  14.469  0.00  0.00    +0.001 A 
ATOM     28  C   UNL     1      -2.755 -10.868  15.398  0.00  0.00    +0.012 A 
ATOM     29  C   UNL     1      -5.118 -10.821  14.895  0.00  0.00    +0.012 A 
ATOM     32  C   UNL     1      -3.047 -11.037  16.751  0.00  0.00    +0.024 A 
ATOM     33  C   UNL     1      -5.409 -10.990  16.248  0.00  0.00    +0.024 A 
ATOM     35  C   UNL     1      -4.374 -11.097  17.176  0.00  0.00    +0.029 A 
BRANCH  35   9
ATOM      9  N   UNL     1      -4.669 -11.268  18.545  0.00  0.00    -0.336 N 
ATOM     36  C   UNL     1      -5.853 -10.660  19.121  0.00  0.00    +0.129 C 
ATOM     37  C   UNL     1      -3.800 -12.059  19.392  0.00  0.00    +0.129 C 
ENDBRANCH  35   9
ENDBRANCH  21  24
ENDBRANCH  12  19
BRANCH  13  18
ATOM     18  C   UNL     1      -7.682  -8.486   9.540  0.00  0.00    +0.124 C 
BRANCH  18   6
ATOM      6  N   UNL     1      -8.834  -7.865   8.960  0.00  0.00    -0.188 NA
ATOM     40  H   UNL     1      -9.651  -8.463   8.786  0.00  0.00    +0.148 HD
BRANCH   6   1
ATOM      1  S   UNL     1      -8.691  -6.480   7.943  0.00  0.00    +0.058 S 
ATOM      2  O   UNL     1      -8.838  -6.904   6.564  0.00  0.00    -0.153 OA
ATOM      3  O   UNL     1      -7.549  -5.679   8.342  0.00  0.00    -0.153 OA
BRANCH   1  23
ATOM     23  C   UNL     1     -10.140  -5.573   8.392  0.00  0.00    +0.105 A 
ATOM     26  C   UNL     1     -11.396  -6.171   8.292  0.00  0.00    +0.030 A 
ATOM     27  C   UNL     1     -10.028  -4.259   8.848  0.00  0.00    +0.030 A 
ATOM     30  C   UNL     1     -12.539  -5.456   8.647  0.00  0.00    +0.025 A 
ATOM     31  C   UNL     1     -11.171  -3.543   9.202  0.00  0.00    +0.025 A 
ATOM     34  C   UNL     1     -12.427  -4.141   9.101  0.00  0.00    +0.033 A 
BRANCH  34  10
ATOM      4  O   UNL     1     -13.614  -3.572  11.809  0.00  0.00    -0.276 OA
ATOM     10  N   UNL     1     -13.571  -3.426   9.457  0.00  0.00    -0.286 N 
ATOM     38  C   UNL     1     -14.081  -3.191  10.741  0.00  0.00    +0.214 C 
ATOM     39  C   UNL     1     -15.344  -2.368  10.699  0.00  0.00    +0.109 C 
ATOM     41  H   UNL     1     -14.093  -3.028   8.679  0.00  0.00    +0.155 HD
ENDBRANCH  34  10
ENDBRANCH   1  23
ENDBRANCH   6   1
ENDBRANCH  18   6
ENDBRANCH  13  18
TORSDOF 8
ENDMDL
MODEL 3
REMARK VINA RESULT:      -6.4     28.706     30.856
REMARK  Name = 40776839
REMARK  12 active torsions:
REMARK  status: ('A' for Active; 'I' for Inactive)
REMARK    1  A    between atoms: S_1  and  N_6
REMARK    2  A    between atoms: S_1  and  C_23
REMARK    3  A    between atoms: N_6  and  C_18
REMARK    4  A    between atoms: N_9  and  C_35
REMARK    5  A    between atoms: N_9  and  C_36
REMARK    6  A    between atoms: N_9  and  C_37
REMARK    7  A    between atoms: N_10  and  C_34
REMARK    8  A    between atoms: C_12  and  C_19
REMARK    9  A    between atoms: C_13  and  C_18
REMARK   10  A    between atoms: C_21  and  C_24
REMARK   11  A    between atoms: C_22  and  C_25
REMARK   12  A    between atoms: C_38  and  C_39
REMARK                            x       y       z     vdW  Elec       q    Type
REMARK                         _______ _______ _______ _____ _____    ______ ____
ROOT
ATOM      5  N   UNL     1      -4.923 -12.900  16.996  0.00  0.00    -0.297 NA
ATOM     11  C   UNL     1      -5.352 -10.474  17.840  0.00  0.00    +0.002 C 
ATOM     12  C   UNL     1      -6.680 -11.130  17.373  0.00  0.00    +0.055 C 
ATOM     13  C   UNL     1      -3.965 -11.962  16.353  0.00  0.00    +0.072 C 
ATOM     14  C   UNL     1      -4.335 -10.498  16.680  0.00  0.00    +0.024 C 
ATOM     15  C   UNL     1      -4.783 -11.371  18.961  0.00  0.00    +0.019 C 
ATOM     16  C   UNL     1      -6.316 -12.485  16.702  0.00  0.00    +0.094 C 
ATOM     17  C   UNL     1      -4.717 -12.825  18.462  0.00  0.00    +0.085 C 
ENDROOT
BRANCH  12  19
ATOM      7  N   UNL     1      -8.554  -9.570  17.182  0.00  0.00    -0.237 NA
ATOM      8  N   UNL     1      -9.367  -8.796  15.049  0.00  0.00    -0.232 NA
ATOM     19  C   UNL     1      -7.631 -10.301  16.522  0.00  0.00    +0.050 A 
ATOM     20  C   UNL     1      -7.516 -10.331  15.147  0.00  0.00    +0.052 A 
ATOM     21  C   UNL     1      -8.419  -9.550  14.455  0.00  0.00    +0.075 A 
ATOM     22  C   UNL     1      -9.378  -8.852  16.395  0.00  0.00    +0.127 A 
ATOM     25  C   UNL     1     -10.413  -8.032  17.088  0.00  0.00    +0.088 C 
BRANCH  21  24
ATOM     24  C   UNL     1      -8.406  -9.494  13.013  0.00  0.00    +0.001 A 
ATOM     28  C   UNL     1      -7.209  -9.257  12.336  0.00  0.00    +0.012 A 
ATOM     29  C   UNL     1      -9.588  -9.677  12.296  0.00  0.00    +0.012 A 
ATOM     32  C   UNL     1      -7.195  -9.202  10.942  0.00  0.00    +0.024 A 
ATOM     33  C   UNL     1      -9.574  -9.621  10.903  0.00  0.00    +0.024 A 
ATOM     35  C   UNL     1      -8.378  -9.385  10.226  0.00  0.00    +0.029 A 
BRANCH  35   9
ATOM      9  N   UNL     1      -8.365  -9.329   8.817  0.00  0.00    -0.336 N 
ATOM     36  C   UNL     1      -7.915  -8.132   8.133  0.00  0.00    +0.129 C 
ATOM     37  C   UNL     1      -8.794 -10.470   8.032  0.00  0.00    +0.129 C 
ENDBRANCH  35   9
ENDBRANCH  21  24
ENDBRANCH  12  19
BRANCH  13  18
ATOM     18  C   UNL     1      -3.843 -12.196  14.846  0.00  0.00    +0.124 C 
BRANCH  18   6
ATOM      6  N   UNL     1      -3.515 -10.981  14.165  0.00  0.00    -0.188 NA
ATOM     40  H   UNL     1      -4.279 -10.313  14.004  0.00  0.00    +0.148 HD
BRANCH   6   1
ATOM      1  S   UNL     1      -2.208 -10.904  13.044  0.00  0.00    +0.058 S 
ATOM      2  O   UNL     1      -1.524 -12.184  13.043  0.00  0.00    -0.153 OA
ATOM      3  O   UNL     1      -1.457  -9.677  13.230  0.00  0.00    -0.153 OA
BRANCH   1  23
ATOM     23  C   UNL     1      -3.077 -10.750  11.513  0.00  0.00    +0.105 A 
ATOM     26  C   UNL     1      -3.818 -11.825  11.020  0.00  0.00    +0.030 A 
ATOM     27  C   UNL     1      -3.022  -9.554  10.796  0.00  0.00    +0.030 A 
ATOM     30  C   UNL     1      -4.505 -11.703   9.813  0.00  0.00    +0.025 A 
ATOM     31  C   UNL     1      -3.708  -9.433   9.588  0.00  0.00    +0.025 A 
ATOM     34  C   UNL     1      -4.449 -10.507   9.095  0.00  0.00    +0.033 A 
BRANCH  34  10
ATOM      4  O   UNL     1      -4.104 -11.983   6.494  0.00  0.00    -0.276 OA
ATOM     10  N   UNL     1      -5.136 -10.386   7.887  0.00  0.00    -0.286 N 
ATOM     38  C   UNL     1      -4.932 -11.102   6.700  0.00  0.00    +0.214 C 
ATOM     39  C   UNL     1      -5.889 -10.671   5.616  0.00  0.00    +0.109 C 
ATOM     41  H   UNL     1      -5.876  -9.688   7.878  0.00  0.00    +0.155 HD
ENDBRANCH  34  10
ENDBRANCH   1  23
ENDBRANCH   6   1
ENDBRANCH  18   6
ENDBRANCH  13  18
TORSDOF 8
ENDMDL
MODEL 4
REMARK VINA RESULT:      -6.3     29.584     31.352
REMARK  Name = 40776839
REMARK  12 active torsions:
REMARK  status: ('A' for Active; 'I' for Inactive)
REMARK    1  A    between atoms: S_1  and  N_6
REMARK    2  A    between atoms: S_1  and  C_23
REMARK    3  A    between atoms: N_6  and  C_18
REMARK    4  A    between atoms: N_9  and  C_35
REMARK    5  A    between atoms: N_9  and  C_36
REMARK    6  A    between atoms: N_9  and  C_37
REMARK    7  A    between atoms: N_10  and  C_34
REMARK    8  A    between atoms: C_12  and  C_19
REMARK    9  A    between atoms: C_13  and  C_18
REMARK   10  A    between atoms: C_21  and  C_24
REMARK   11  A    between atoms: C_22  and  C_25
REMARK   12  A    between atoms: C_38  and  C_39
REMARK                            x       y       z     vdW  Elec       q    Type
REMARK                         _______ _______ _______ _____ _____    ______ ____
ROOT
ATOM      5  N   UNL     1      -6.947 -10.040  18.527  0.00  0.00    -0.297 NA
ATOM     11  C   UNL     1      -5.335 -11.978  17.870  0.00  0.00    +0.002 C 
ATOM     12  C   UNL     1      -4.938 -10.667  17.137  0.00  0.00    +0.055 C 
ATOM     13  C   UNL     1      -7.730 -11.239  18.125  0.00  0.00    +0.072 C 
ATOM     14  C   UNL     1      -6.802 -12.323  17.537  0.00  0.00    +0.024 C 
ATOM     15  C   UNL     1      -5.272 -11.678  19.383  0.00  0.00    +0.019 C 
ATOM     16  C   UNL     1      -6.054  -9.621  17.419  0.00  0.00    +0.094 C 
ATOM     17  C   UNL     1      -6.102 -10.418  19.685  0.00  0.00    +0.085 C 
ENDROOT
BRANCH  12  19
ATOM      7  N   UNL     1      -3.412 -11.343  15.348  0.00  0.00    -0.237 NA
ATOM      8  N   UNL     1      -3.892 -10.922  13.025  0.00  0.00    -0.232 NA
ATOM     19  C   UNL     1      -4.584 -10.748  15.659  0.00  0.00    +0.050 A 
ATOM     20  C   UNL     1      -5.449 -10.224  14.721  0.00  0.00    +0.052 A 
ATOM     21  C   UNL     1      -5.048 -10.341  13.406  0.00  0.00    +0.075 A 
ATOM     22  C   UNL     1      -3.133 -11.395  14.032  0.00  0.00    +0.127 A 
ATOM     25  C   UNL     1      -1.846 -12.043  13.649  0.00  0.00    +0.088 C 
BRANCH  21  24
ATOM     24  C   UNL     1      -5.863  -9.832  12.330  0.00  0.00    +0.001 A 
ATOM     28  C   UNL     1      -5.262  -9.219  11.229  0.00  0.00    +0.012 A 
ATOM     29  C   UNL     1      -7.251  -9.953  12.388  0.00  0.00    +0.012 A 
ATOM     32  C   UNL     1      -6.049  -8.726  10.189  0.00  0.00    +0.024 A 
ATOM     33  C   UNL     1      -8.039  -9.460  11.347  0.00  0.00    +0.024 A 
ATOM     35  C   UNL     1      -7.438  -8.847  10.248  0.00  0.00    +0.029 A 
BRANCH  35   9
ATOM      9  N   UNL     1      -8.235  -8.350   9.196  0.00  0.00    -0.336 N 
ATOM     36  C   UNL     1      -7.831  -7.163   8.467  0.00  0.00    +0.129 C 
ATOM     37  C   UNL     1      -9.464  -9.021   8.824  0.00  0.00    +0.129 C 
ENDBRANCH  35   9
ENDBRANCH  21  24
ENDBRANCH  12  19
BRANCH  13  18
ATOM     18  C   UNL     1      -8.877 -10.892  17.173  0.00  0.00    +0.124 C 
BRANCH  18   6
ATOM      6  N   UNL     1      -9.607  -9.756  17.646  0.00  0.00    -0.188 NA
ATOM     40  H   UNL     1      -9.194  -9.222  18.421  0.00  0.00    +0.148 HD
BRANCH   6   1
ATOM      1  S   UNL     1     -11.324  -9.674  17.515  0.00  0.00    +0.058 S 
ATOM      2  O   UNL     1     -11.873  -9.371  18.823  0.00  0.00    -0.153 OA
ATOM      3  O   UNL     1     -11.826 -10.804  16.758  0.00  0.00    -0.153 OA
BRANCH   1  23
ATOM     23  C   UNL     1     -11.523  -8.242  16.498  0.00  0.00    +0.105 A 
ATOM     26  C   UNL     1     -10.425  -7.429  16.215  0.00  0.00    +0.030 A 
ATOM     27  C   UNL     1     -12.778  -7.924  15.977  0.00  0.00    +0.030 A 
ATOM     30  C   UNL     1     -10.581  -6.300  15.412  0.00  0.00    +0.025 A 
ATOM     31  C   UNL     1     -12.935  -6.794  15.175  0.00  0.00    +0.025 A 
ATOM     34  C   UNL     1     -11.836  -5.982  14.892  0.00  0.00    +0.033 A 
BRANCH  34  10
ATOM      4  O   UNL     1     -12.339  -5.742  11.933  0.00  0.00    -0.276 OA
ATOM     10  N   UNL     1     -11.993  -4.852  14.089  0.00  0.00    -0.286 N 
ATOM     38  C   UNL     1     -12.225  -4.798  12.708  0.00  0.00    +0.214 C 
ATOM     39  C   UNL     1     -12.335  -3.377  12.215  0.00  0.00    +0.109 C 
ATOM     41  H   UNL     1     -11.929  -3.961  14.576  0.00  0.00    +0.155 HD
ENDBRANCH  34  10
ENDBRANCH   1  23
ENDBRANCH   6   1
ENDBRANCH  18   6
ENDBRANCH  13  18
TORSDOF 8
ENDMDL
MODEL 5
REMARK VINA RESULT:      -6.2     15.196     19.479
REMARK  Name = 40776839
REMARK  12 active torsions:
REMARK  status: ('A' for Active; 'I' for Inactive)
REMARK    1  A    between atoms: S_1  and  N_6
REMARK    2  A    between atoms: S_1  and  C_23
REMARK    3  A    between atoms: N_6  and  C_18
REMARK    4  A    between atoms: N_9  and  C_35
REMARK    5  A    between atoms: N_9  and  C_36
REMARK    6  A    between atoms: N_9  and  C_37
REMARK    7  A    between atoms: N_10  and  C_34
REMARK    8  A    between atoms: C_12  and  C_19
REMARK    9  A    between atoms: C_13  and  C_18
REMARK   10  A    between atoms: C_21  and  C_24
REMARK   11  A    between atoms: C_22  and  C_25
REMARK   12  A    between atoms: C_38  and  C_39
REMARK                            x       y       z     vdW  Elec       q    Type
REMARK                         _______ _______ _______ _____ _____    ______ ____
ROOT
ATOM      5  N   UNL     1      13.677   5.659  -0.189  0.00  0.00    -0.297 NA
ATOM     11  C   UNL     1      13.005   3.821   1.529  0.00  0.00    +0.002 C 
ATOM     12  C   UNL     1      11.788   4.730   1.201  0.00  0.00    +0.055 C 
ATOM     13  C   UNL     1      14.656   5.627   0.930  0.00  0.00    +0.072 C 
ATOM     14  C   UNL     1      14.164   4.692   2.056  0.00  0.00    +0.024 C 
ATOM     15  C   UNL     1      13.472   3.203   0.193  0.00  0.00    +0.019 C 
ATOM     16  C   UNL     1      12.313   5.911   0.336  0.00  0.00    +0.094 C 
ATOM     17  C   UNL     1      13.684   4.326  -0.837  0.00  0.00    +0.085 C 
ENDROOT
BRANCH  12  19
ATOM      7  N   UNL     1      10.918   4.443   3.469  0.00  0.00    -0.237 NA
ATOM      8  N   UNL     1       9.357   5.994   4.450  0.00  0.00    -0.232 NA
ATOM     19  C   UNL     1      10.912   5.201   2.352  0.00  0.00    +0.050 A 
ATOM     20  C   UNL     1      10.164   6.352   2.211  0.00  0.00    +0.052 A 
ATOM     21  C   UNL     1       9.398   6.705   3.303  0.00  0.00    +0.075 A 
ATOM     22  C   UNL     1      10.130   4.891   4.464  0.00  0.00    +0.127 A 
ATOM     25  C   UNL     1      10.109   4.079   5.714  0.00  0.00    +0.088 C 
BRANCH  21  24
ATOM     24  C   UNL     1       8.570   7.886   3.284  0.00  0.00    +0.001 A 
ATOM     28  C   UNL     1       8.358   8.570   2.086  0.00  0.00    +0.012 A 
ATOM     29  C   UNL     1       7.981   8.346   4.462  0.00  0.00    +0.012 A 
ATOM     32  C   UNL     1       7.558   9.712   2.067  0.00  0.00    +0.024 A 
ATOM     33  C   UNL     1       7.182   9.488   4.443  0.00  0.00    +0.024 A 
ATOM     35  C   UNL     1       6.970  10.171   3.246  0.00  0.00    +0.029 A 
BRANCH  35   9
ATOM      9  N   UNL     1       6.161  11.326   3.227  0.00  0.00    -0.336 N 
ATOM     36  C   UNL     1       6.503  12.448   2.374  0.00  0.00    +0.129 C 
ATOM     37  C   UNL     1       4.973  11.405   4.054  0.00  0.00    +0.129 C 
ENDBRANCH  35   9
ENDBRANCH  21  24
ENDBRANCH  12  19
BRANCH  13  18
ATOM     18  C   UNL     1      14.988   7.026   1.454  0.00  0.00    +0.124 C 
BRANCH  18   6
ATOM      6  N   UNL     1      15.899   6.956   2.555  0.00  0.00    -0.188 NA
ATOM     40  H   UNL     1      16.155   6.020   2.892  0.00  0.00    +0.148 HD
BRANCH   6   1
ATOM      1  S   UNL     1      15.998   8.222   3.720  0.00  0.00    +0.058 S 
ATOM      2  O   UNL     1      15.833   9.492   3.037  0.00  0.00    -0.153 OA
ATOM      3  O   UNL     1      17.132   8.010   4.599  0.00  0.00    -0.153 OA
BRANCH   1  23
ATOM     23  C   UNL     1      14.541   7.925   4.675  0.00  0.00    +0.105 A 
ATOM     26  C   UNL     1      14.641   7.328   5.932  0.00  0.00    +0.030 A 
ATOM     27  C   UNL     1      13.291   8.288   4.173  0.00  0.00    +0.030 A 
ATOM     30  C   UNL     1      13.491   7.094   6.686  0.00  0.00    +0.025 A 
ATOM     31  C   UNL     1      12.141   8.053   4.926  0.00  0.00    +0.025 A 
ATOM     34  C   UNL     1      12.241   7.456   6.183  0.00  0.00    +0.033 A 
BRANCH  34  10
ATOM      4  O   UNL     1      10.149   9.368   7.201  0.00  0.00    -0.276 OA
ATOM     10  N   UNL     1      11.091   7.223   6.938  0.00  0.00    -0.286 N 
ATOM     38  C   UNL     1      10.147   8.156   7.387  0.00  0.00    +0.214 C 
ATOM     39  C   UNL     1       9.043   7.497   8.177  0.00  0.00    +0.109 C 
ATOM     41  H   UNL     1      10.926   6.250   7.187  0.00  0.00    +0.155 HD
ENDBRANCH  34  10
ENDBRANCH   1  23
ENDBRANCH   6   1
ENDBRANCH  18   6
ENDBRANCH  13  18
TORSDOF 8
ENDMDL
MODEL 6
REMARK VINA RESULT:      -6.1     29.188     31.874
REMARK  Name = 40776839
REMARK  12 active torsions:
REMARK  status: ('A' for Active; 'I' for Inactive)
REMARK    1  A    between atoms: S_1  and  N_6
REMARK    2  A    between atoms: S_1  and  C_23
REMARK    3  A    between atoms: N_6  and  C_18
REMARK    4  A    between atoms: N_9  and  C_35
REMARK    5  A    between atoms: N_9  and  C_36
REMARK    6  A    between atoms: N_9  and  C_37
REMARK    7  A    between atoms: N_10  and  C_34
REMARK    8  A    between atoms: C_12  and  C_19
REMARK    9  A    between atoms: C_13  and  C_18
REMARK   10  A    between atoms: C_21  and  C_24
REMARK   11  A    between atoms: C_22  and  C_25
REMARK   12  A    between atoms: C_38  and  C_39
REMARK                            x       y       z     vdW  Elec       q    Type
REMARK                         _______ _______ _______ _____ _____    ______ ____
ROOT
ATOM      5  N   UNL     1      -1.641 -11.831  13.347  0.00  0.00    -0.297 NA
ATOM     11  C   UNL     1      -4.087 -11.175  12.740  0.00  0.00    +0.002 C 
ATOM     12  C   UNL     1      -3.674 -10.541  14.097  0.00  0.00    +0.055 C 
ATOM     13  C   UNL     1      -2.417 -13.045  12.981  0.00  0.00    +0.072 C 
ATOM     14  C   UNL     1      -3.915 -12.706  12.819  0.00  0.00    +0.024 C 
ATOM     15  C   UNL     1      -3.084 -10.659  11.685  0.00  0.00    +0.019 C 
ATOM     16  C   UNL     1      -2.292 -11.136  14.485  0.00  0.00    +0.094 C 
ATOM     17  C   UNL     1      -1.651 -10.916  12.181  0.00  0.00    +0.085 C 
ENDROOT
BRANCH  12  19
ATOM      7  N   UNL     1      -4.293 -11.288  16.343  0.00  0.00    -0.237 NA
ATOM      8  N   UNL     1      -6.413 -10.727  17.343  0.00  0.00    -0.232 NA
ATOM     19  C   UNL     1      -4.670 -10.594  15.248  0.00  0.00    +0.050 A 
ATOM     20  C   UNL     1      -5.884  -9.950  15.128  0.00  0.00    +0.052 A 
ATOM     21  C   UNL     1      -6.724 -10.051  16.218  0.00  0.00    +0.075 A 
ATOM     22  C   UNL     1      -5.200 -11.313  17.338  0.00  0.00    +0.127 A 
ATOM     25  C   UNL     1      -4.821 -12.072  18.565  0.00  0.00    +0.088 C 
BRANCH  21  24
ATOM     24  C   UNL     1      -8.023  -9.423  16.219  0.00  0.00    +0.001 A 
ATOM     28  C   UNL     1      -8.834  -9.495  15.085  0.00  0.00    +0.012 A 
ATOM     29  C   UNL     1      -8.470  -8.745  17.353  0.00  0.00    +0.012 A 
ATOM     32  C   UNL     1     -10.089  -8.888  15.086  0.00  0.00    +0.024 A 
ATOM     33  C   UNL     1      -9.726  -8.138  17.353  0.00  0.00    +0.024 A 
ATOM     35  C   UNL     1     -10.535  -8.210  16.220  0.00  0.00    +0.029 A 
BRANCH  35   9
ATOM      9  N   UNL     1     -11.805  -7.596  16.222  0.00  0.00    -0.336 N 
ATOM     36  C   UNL     1     -11.937  -6.182  15.926  0.00  0.00    +0.129 C 
ATOM     37  C   UNL     1     -12.996  -8.370  16.510  0.00  0.00    +0.129 C 
ENDBRANCH  35   9
ENDBRANCH  21  24
ENDBRANCH  12  19
BRANCH  13  18
ATOM     18  C   UNL     1      -2.195 -14.197  13.964  0.00  0.00    +0.124 C 
BRANCH  18   6
ATOM      6  N   UNL     1      -3.189 -14.186  14.994  0.00  0.00    -0.188 NA
ATOM     40  H   UNL     1      -3.014 -13.583  15.808  0.00  0.00    +0.148 HD
BRANCH   6   1
ATOM      1  S   UNL     1      -4.199 -15.553  15.281  0.00  0.00    +0.058 S 
ATOM      2  O   UNL     1      -3.756 -16.209  16.496  0.00  0.00    -0.153 OA
ATOM      3  O   UNL     1      -4.369 -16.318  14.061  0.00  0.00    -0.153 OA
BRANCH   1  23
ATOM     23  C   UNL     1      -5.748 -14.770  15.619  0.00  0.00    +0.105 A 
ATOM     26  C   UNL     1      -6.404 -15.013  16.826  0.00  0.00    +0.030 A 
ATOM     27  C   UNL     1      -6.314 -13.909  14.678  0.00  0.00    +0.030 A 
ATOM     30  C   UNL     1      -7.624 -14.394  17.093  0.00  0.00    +0.025 A 
ATOM     31  C   UNL     1      -7.536 -13.291  14.945  0.00  0.00    +0.025 A 
ATOM     34  C   UNL     1      -8.191 -13.534  16.152  0.00  0.00    +0.033 A 
BRANCH  34  10
ATOM      4  O   UNL     1      -9.133 -12.039  18.590  0.00  0.00    -0.276 OA
ATOM     10  N   UNL     1      -9.413 -12.915  16.420  0.00  0.00    -0.286 N 
ATOM     38  C   UNL     1      -9.800 -12.230  17.579  0.00  0.00    +0.214 C 
ATOM     39  C   UNL     1     -11.210 -11.703  17.473  0.00  0.00    +0.109 C 
ATOM     41  H   UNL     1     -10.101 -12.973  15.673  0.00  0.00    +0.155 HD
ENDBRANCH  34  10
ENDBRANCH   1  23
ENDBRANCH   6   1
ENDBRANCH  18   6
ENDBRANCH  13  18
TORSDOF 8
ENDMDL
MODEL 7
REMARK VINA RESULT:      -6.1     14.982     18.806
REMARK  Name = 40776839
REMARK  12 active torsions:
REMARK  status: ('A' for Active; 'I' for Inactive)
REMARK    1  A    between atoms: S_1  and  N_6
REMARK    2  A    between atoms: S_1  and  C_23
REMARK    3  A    between atoms: N_6  and  C_18
REMARK    4  A    between atoms: N_9  and  C_35
REMARK    5  A    between atoms: N_9  and  C_36
REMARK    6  A    between atoms: N_9  and  C_37
REMARK    7  A    between atoms: N_10  and  C_34
REMARK    8  A    between atoms: C_12  and  C_19
REMARK    9  A    between atoms: C_13  and  C_18
REMARK   10  A    between atoms: C_21  and  C_24
REMARK   11  A    between atoms: C_22  and  C_25
REMARK   12  A    between atoms: C_38  and  C_39
REMARK                            x       y       z     vdW  Elec       q    Type
REMARK                         _______ _______ _______ _____ _____    ______ ____
ROOT
ATOM      5  N   UNL     1      10.725   5.561   7.426  0.00  0.00    -0.297 NA
ATOM     11  C   UNL     1       9.054   7.506   6.965  0.00  0.00    +0.002 C 
ATOM     12  C   UNL     1       9.004   6.461   5.816  0.00  0.00    +0.055 C 
ATOM     13  C   UNL     1      11.411   6.870   7.587  0.00  0.00    +0.072 C 
ATOM     14  C   UNL     1      10.499   8.025   7.119  0.00  0.00    +0.024 C 
ATOM     15  C   UNL     1       8.702   6.753   8.266  0.00  0.00    +0.019 C 
ATOM     16  C   UNL     1      10.159   5.449   6.059  0.00  0.00    +0.094 C 
ATOM     17  C   UNL     1       9.604   5.514   8.395  0.00  0.00    +0.085 C 
ENDROOT
BRANCH  12  19
ATOM      7  N   UNL     1       8.168   8.024   4.130  0.00  0.00    -0.237 NA
ATOM      8  N   UNL     1       8.875   7.926   1.828  0.00  0.00    -0.232 NA
ATOM     19  C   UNL     1       8.974   6.970   4.382  0.00  0.00    +0.050 A 
ATOM     20  C   UNL     1       9.748   6.350   3.423  0.00  0.00    +0.052 A 
ATOM     21  C   UNL     1       9.658   6.876   2.151  0.00  0.00    +0.075 A 
ATOM     22  C   UNL     1       8.168   8.444   2.851  0.00  0.00    +0.127 A 
ATOM     25  C   UNL     1       7.288   9.606   2.532  0.00  0.00    +0.088 C 
BRANCH  21  24
ATOM     24  C   UNL     1      10.416   6.318   1.057  0.00  0.00    +0.001 A 
ATOM     28  C   UNL     1      10.548   4.934   0.935  0.00  0.00    +0.012 A 
ATOM     29  C   UNL     1      11.017   7.160   0.122  0.00  0.00    +0.012 A 
ATOM     32  C   UNL     1      11.281   4.394  -0.122  0.00  0.00    +0.024 A 
ATOM     33  C   UNL     1      11.750   6.620  -0.934  0.00  0.00    +0.024 A 
ATOM     35  C   UNL     1      11.882   5.237  -1.056  0.00  0.00    +0.029 A 
BRANCH  35   9
ATOM      9  N   UNL     1      12.623   4.692  -2.125  0.00  0.00    -0.336 N 
ATOM     36  C   UNL     1      13.440   5.548  -2.963  0.00  0.00    +0.129 C 
ATOM     37  C   UNL     1      12.586   3.269  -2.396  0.00  0.00    +0.129 C 
ENDBRANCH  35   9
ENDBRANCH  21  24
ENDBRANCH  12  19
BRANCH  13  18
ATOM     18  C   UNL     1      12.775   6.903   6.892  0.00  0.00    +0.124 C 
BRANCH  18   6
ATOM      6  N   UNL     1      13.503   8.080   7.252  0.00  0.00    -0.188 NA
ATOM     40  H   UNL     1      13.409   8.412   8.220  0.00  0.00    +0.148 HD
BRANCH   6   1
ATOM      1  S   UNL     1      13.896   9.285   6.084  0.00  0.00    +0.058 S 
ATOM      2  O   UNL     1      15.097   9.974   6.518  0.00  0.00    -0.153 OA
ATOM      3  O   UNL     1      12.713  10.041   5.723  0.00  0.00    -0.153 OA
BRANCH   1  23
ATOM     23  C   UNL     1      14.316   8.286   4.688  0.00  0.00    +0.105 A 
ATOM     26  C   UNL     1      15.529   7.597   4.662  0.00  0.00    +0.030 A 
ATOM     27  C   UNL     1      13.434   8.186   3.611  0.00  0.00    +0.030 A 
ATOM     30  C   UNL     1      15.860   6.809   3.561  0.00  0.00    +0.025 A 
ATOM     31  C   UNL     1      13.765   7.398   2.509  0.00  0.00    +0.025 A 
ATOM     34  C   UNL     1      14.978   6.709   2.483  0.00  0.00    +0.033 A 
BRANCH  34  10
ATOM      4  O   UNL     1      14.288   3.848   1.851  0.00  0.00    -0.276 OA
ATOM     10  N   UNL     1      15.309   5.920   1.381  0.00  0.00    -0.286 N 
ATOM     38  C   UNL     1      14.959   4.585   1.137  0.00  0.00    +0.214 C 
ATOM     39  C   UNL     1      15.517   4.092  -0.175  0.00  0.00    +0.109 C 
ATOM     41  H   UNL     1      15.875   6.380   0.672  0.00  0.00    +0.155 HD
ENDBRANCH  34  10
ENDBRANCH   1  23
ENDBRANCH   6   1
ENDBRANCH  18   6
ENDBRANCH  13  18
TORSDOF 8
ENDMDL
MODEL 8
REMARK VINA RESULT:      -6.1     28.866     31.881
REMARK  Name = 40776839
REMARK  12 active torsions:
REMARK  status: ('A' for Active; 'I' for Inactive)
REMARK    1  A    between atoms: S_1  and  N_6
REMARK    2  A    between atoms: S_1  and  C_23
REMARK    3  A    between atoms: N_6  and  C_18
REMARK    4  A    between atoms: N_9  and  C_35
REMARK    5  A    between atoms: N_9  and  C_36
REMARK    6  A    between atoms: N_9  and  C_37
REMARK    7  A    between atoms: N_10  and  C_34
REMARK    8  A    between atoms: C_12  and  C_19
REMARK    9  A    between atoms: C_13  and  C_18
REMARK   10  A    between atoms: C_21  and  C_24
REMARK   11  A    between atoms: C_22  and  C_25
REMARK   12  A    between atoms: C_38  and  C_39
REMARK                            x       y       z     vdW  Elec       q    Type
REMARK                         _______ _______ _______ _____ _____    ______ ____
ROOT
ATOM      5  N   UNL     1      -4.892 -12.607  17.074  0.00  0.00    -0.297 NA
ATOM     11  C   UNL     1      -5.785 -10.690  18.595  0.00  0.00    +0.002 C 
ATOM     12  C   UNL     1      -6.957 -11.580  18.097  0.00  0.00    +0.055 C 
ATOM     13  C   UNL     1      -4.338 -11.302  16.626  0.00  0.00    +0.072 C 
ATOM     14  C   UNL     1      -5.014 -10.136  17.379  0.00  0.00    +0.024 C 
ATOM     15  C   UNL     1      -4.817 -11.617  19.362  0.00  0.00    +0.019 C 
ATOM     16  C   UNL     1      -6.375 -12.567  17.045  0.00  0.00    +0.094 C 
ATOM     17  C   UNL     1      -4.463 -12.824  18.477  0.00  0.00    +0.085 C 
ENDROOT
BRANCH  12  19
ATOM      7  N   UNL     1      -8.199 -10.406  16.348  0.00  0.00    -0.237 NA
ATOM      8  N   UNL     1     -10.464  -9.649  16.670  0.00  0.00    -0.232 NA
ATOM     19  C   UNL     1      -8.223 -10.894  17.606  0.00  0.00    +0.050 A 
ATOM     20  C   UNL     1      -9.315 -10.798  18.445  0.00  0.00    +0.052 A 
ATOM     21  C   UNL     1     -10.419 -10.160  17.918  0.00  0.00    +0.075 A 
ATOM     22  C   UNL     1      -9.337  -9.805  15.950  0.00  0.00    +0.127 A 
ATOM     25  C   UNL     1      -9.348  -9.252  14.565  0.00  0.00    +0.088 C 
BRANCH  21  24
ATOM     24  C   UNL     1     -11.624  -9.993  18.693  0.00  0.00    +0.001 A 
ATOM     28  C   UNL     1     -12.833  -9.719  18.053  0.00  0.00    +0.012 A 
ATOM     29  C   UNL     1     -11.582 -10.108  20.083  0.00  0.00    +0.012 A 
ATOM     32  C   UNL     1     -13.999  -9.557  18.801  0.00  0.00    +0.024 A 
ATOM     33  C   UNL     1     -12.748  -9.946  20.832  0.00  0.00    +0.024 A 
ATOM     35  C   UNL     1     -13.956  -9.671  20.191  0.00  0.00    +0.029 A 
BRANCH  35   9
ATOM      9  N   UNL     1     -15.134  -9.508  20.949  0.00  0.00    -0.336 N 
ATOM     36  C   UNL     1     -15.788  -8.216  21.021  0.00  0.00    +0.129 C 
ATOM     37  C   UNL     1     -15.712 -10.631  21.660  0.00  0.00    +0.129 C 
ENDBRANCH  35   9
ENDBRANCH  21  24
ENDBRANCH  12  19
BRANCH  13  18
ATOM     18  C   UNL     1      -4.422 -11.125  15.108  0.00  0.00    +0.124 C 
BRANCH  18   6
ATOM      6  N   UNL     1      -3.584 -12.072  14.437  0.00  0.00    -0.188 NA
ATOM     40  H   UNL     1      -3.536 -13.019  14.833  0.00  0.00    +0.148 HD
BRANCH   6   1
ATOM      1  S   UNL     1      -2.204 -11.569  13.535  0.00  0.00    +0.058 S 
ATOM      2  O   UNL     1      -1.306 -12.699  13.397  0.00  0.00    -0.153 OA
ATOM      3  O   UNL     1      -1.709 -10.301  14.036  0.00  0.00    -0.153 OA
BRANCH   1  23
ATOM     23  C   UNL     1      -2.926 -11.251  11.952  0.00  0.00    +0.105 A 
ATOM     26  C   UNL     1      -2.824  -9.983  11.381  0.00  0.00    +0.030 A 
ATOM     27  C   UNL     1      -3.596 -12.270  11.274  0.00  0.00    +0.030 A 
ATOM     30  C   UNL     1      -3.393  -9.732  10.133  0.00  0.00    +0.025 A 
ATOM     31  C   UNL     1      -4.166 -12.020  10.026  0.00  0.00    +0.025 A 
ATOM     34  C   UNL     1      -4.065 -10.751   9.455  0.00  0.00    +0.033 A 
BRANCH  34  10
ATOM      4  O   UNL     1      -6.641  -9.376   8.720  0.00  0.00    -0.276 OA
ATOM     10  N   UNL     1      -4.633 -10.501   8.206  0.00  0.00    -0.286 N 
ATOM     38  C   UNL     1      -5.843  -9.853   7.920  0.00  0.00    +0.214 C 
ATOM     39  C   UNL     1      -6.101  -9.783   6.435  0.00  0.00    +0.109 C 
ATOM     41  H   UNL     1      -4.094 -10.833   7.409  0.00  0.00    +0.155 HD
ENDBRANCH  34  10
ENDBRANCH   1  23
ENDBRANCH   6   1
ENDBRANCH  18   6
ENDBRANCH  13  18
TORSDOF 8
ENDMDL
MODEL 9
REMARK VINA RESULT:      -6.1     28.992     32.052
REMARK  Name = 40776839
REMARK  12 active torsions:
REMARK  status: ('A' for Active; 'I' for Inactive)
REMARK    1  A    between atoms: S_1  and  N_6
REMARK    2  A    between atoms: S_1  and  C_23
REMARK    3  A    between atoms: N_6  and  C_18
REMARK    4  A    between atoms: N_9  and  C_35
REMARK    5  A    between atoms: N_9  and  C_36
REMARK    6  A    between atoms: N_9  and  C_37
REMARK    7  A    between atoms: N_10  and  C_34
REMARK    8  A    between atoms: C_12  and  C_19
REMARK    9  A    between atoms: C_13  and  C_18
REMARK   10  A    between atoms: C_21  and  C_24
REMARK   11  A    between atoms: C_22  and  C_25
REMARK   12  A    between atoms: C_38  and  C_39
REMARK                            x       y       z     vdW  Elec       q    Type
REMARK                         _______ _______ _______ _____ _____    ______ ____
ROOT
ATOM      5  N   UNL     1      -6.090 -10.177   9.307  0.00  0.00    -0.297 NA
ATOM     11  C   UNL     1      -4.223  -9.136  10.795  0.00  0.00    +0.002 C 
ATOM     12  C   UNL     1      -4.798 -10.416  11.460  0.00  0.00    +0.055 C 
ATOM     13  C   UNL     1      -6.343  -8.725   9.498  0.00  0.00    +0.072 C 
ATOM     14  C   UNL     1      -5.369  -8.135  10.541  0.00  0.00    +0.024 C 
ATOM     15  C   UNL     1      -3.676  -9.559   9.415  0.00  0.00    +0.019 C 
ATOM     16  C   UNL     1      -6.030 -10.860  10.623  0.00  0.00    +0.094 C 
ATOM     17  C   UNL     1      -4.769 -10.325   8.649  0.00  0.00    +0.085 C 
ENDROOT
BRANCH  12  19
ATOM      7  N   UNL     1      -4.051 -10.567  13.785  0.00  0.00    -0.237 NA
ATOM      8  N   UNL     1      -5.571 -10.326  15.639  0.00  0.00    -0.232 NA
ATOM     19  C   UNL     1      -5.097 -10.379  12.952  0.00  0.00    +0.050 A 
ATOM     20  C   UNL     1      -6.390 -10.163  13.382  0.00  0.00    +0.052 A 
ATOM     21  C   UNL     1      -6.570 -10.147  14.750  0.00  0.00    +0.075 A 
ATOM     22  C   UNL     1      -4.355 -10.528  15.096  0.00  0.00    +0.127 A 
ATOM     25  C   UNL     1      -3.226 -10.733  16.048  0.00  0.00    +0.088 C 
BRANCH  21  24
ATOM     24  C   UNL     1      -7.874  -9.931  15.329  0.00  0.00    +0.001 A 
ATOM     28  C   UNL     1      -8.911  -9.426  14.543  0.00  0.00    +0.012 A 
ATOM     29  C   UNL     1      -8.100 -10.229  16.673  0.00  0.00    +0.012 A 
ATOM     32  C   UNL     1     -10.171  -9.217  15.102  0.00  0.00    +0.024 A 
ATOM     33  C   UNL     1      -9.360 -10.020  17.231  0.00  0.00    +0.024 A 
ATOM     35  C   UNL     1     -10.396  -9.515  16.446  0.00  0.00    +0.029 A 
BRANCH  35   9
ATOM      9  N   UNL     1     -11.671  -9.304  17.012  0.00  0.00    -0.336 N 
ATOM     36  C   UNL     1     -12.807  -8.994  16.166  0.00  0.00    +0.129 C 
ATOM     37  C   UNL     1     -11.864  -9.403  18.445  0.00  0.00    +0.129 C 
ENDBRANCH  35   9
ENDBRANCH  21  24
ENDBRANCH  12  19
BRANCH  13  18
ATOM     18  C   UNL     1      -7.803  -8.430   9.849  0.00  0.00    +0.124 C 
BRANCH  18   6
ATOM      6  N   UNL     1      -8.562  -8.137   8.673  0.00  0.00    -0.188 NA
ATOM     40  H   UNL     1      -8.748  -8.916   8.028  0.00  0.00    +0.148 HD
BRANCH   6   1
ATOM      1  S   UNL     1      -8.546  -6.567   7.961  0.00  0.00    +0.058 S 
ATOM      2  O   UNL     1      -8.847  -6.698   6.548  0.00  0.00    -0.153 OA
ATOM      3  O   UNL     1      -7.373  -5.832   8.391  0.00  0.00    -0.153 OA
BRANCH   1  23
ATOM     23  C   UNL     1      -9.942  -5.819   8.747  0.00  0.00    +0.105 A 
ATOM     26  C   UNL     1     -10.918  -6.618   9.342  0.00  0.00    +0.030 A 
ATOM     27  C   UNL     1     -10.066  -4.429   8.773  0.00  0.00    +0.030 A 
ATOM     30  C   UNL     1     -12.018  -6.028   9.963  0.00  0.00    +0.025 A 
ATOM     31  C   UNL     1     -11.167  -3.839   9.393  0.00  0.00    +0.025 A 
ATOM     34  C   UNL     1     -12.143  -4.638   9.988  0.00  0.00    +0.033 A 
BRANCH  34  10
ATOM      4  O   UNL     1     -12.455  -3.527  12.769  0.00  0.00    -0.276 OA
ATOM     10  N   UNL     1     -13.244  -4.048  10.610  0.00  0.00    -0.286 N 
ATOM     38  C   UNL     1     -13.334  -3.546  11.915  0.00  0.00    +0.214 C 
ATOM     39  C   UNL     1     -14.705  -2.986  12.205  0.00  0.00    +0.109 C 
ATOM     41  H   UNL     1     -14.081  -3.977  10.035  0.00  0.00    +0.155 HD
ENDBRANCH  34  10
ENDBRANCH   1  23
ENDBRANCH   6   1
ENDBRANCH  18   6
ENDBRANCH  13  18
TORSDOF 8
ENDMDL
MODEL 10
REMARK VINA RESULT:      -5.9     15.766     20.476
REMARK  Name = 40776839
REMARK  12 active torsions:
REMARK  status: ('A' for Active; 'I' for Inactive)
REMARK    1  A    between atoms: S_1  and  N_6
REMARK    2  A    between atoms: S_1  and  C_23
REMARK    3  A    between atoms: N_6  and  C_18
REMARK    4  A    between atoms: N_9  and  C_35
REMARK    5  A    between atoms: N_9  and  C_36
REMARK    6  A    between atoms: N_9  and  C_37
REMARK    7  A    between atoms: N_10  and  C_34
REMARK    8  A    between atoms: C_12  and  C_19
REMARK    9  A    between atoms: C_13  and  C_18
REMARK   10  A    between atoms: C_21  and  C_24
REMARK   11  A    between atoms: C_22  and  C_25
REMARK   12  A    between atoms: C_38  and  C_39
REMARK                            x       y       z     vdW  Elec       q    Type
REMARK                         _______ _______ _______ _____ _____    ______ ____
ROOT
ATOM      5  N   UNL     1       9.514   7.517   7.461  0.00  0.00    -0.297 NA
ATOM     11  C   UNL     1      10.022   5.483   5.916  0.00  0.00    +0.002 C 
ATOM     12  C   UNL     1      11.259   6.418   6.008  0.00  0.00    +0.055 C 
ATOM     13  C   UNL     1       8.427   7.356   6.459  0.00  0.00    +0.072 C 
ATOM     14  C   UNL     1       8.808   6.291   5.409  0.00  0.00    +0.024 C 
ATOM     15  C   UNL     1       9.696   5.032   7.357  0.00  0.00    +0.019 C 
ATOM     16  C   UNL     1      10.817   7.697   6.774  0.00  0.00    +0.094 C 
ATOM     17  C   UNL     1       9.582   6.271   8.262  0.00  0.00    +0.085 C 
ENDROOT
BRANCH  12  19
ATOM      7  N   UNL     1      12.846   7.803   4.765  0.00  0.00    -0.237 NA
ATOM      8  N   UNL     1      13.386   7.379   2.456  0.00  0.00    -0.232 NA
ATOM     19  C   UNL     1      12.011   6.744   4.726  0.00  0.00    +0.050 A 
ATOM     20  C   UNL     1      11.813   5.965   3.604  0.00  0.00    +0.052 A 
ATOM     21  C   UNL     1      12.534   6.333   2.487  0.00  0.00    +0.075 A 
ATOM     22  C   UNL     1      13.492   8.061   3.612  0.00  0.00    +0.127 A 
ATOM     25  C   UNL     1      14.423   9.225   3.616  0.00  0.00    +0.088 C 
BRANCH  21  24
ATOM     24  C   UNL     1      12.417   5.601   1.249  0.00  0.00    +0.001 A 
ATOM     28  C   UNL     1      13.325   5.830   0.214  0.00  0.00    +0.012 A 
ATOM     29  C   UNL     1      11.396   4.664   1.086  0.00  0.00    +0.012 A 
ATOM     32  C   UNL     1      13.211   5.123  -0.983  0.00  0.00    +0.024 A 
ATOM     33  C   UNL     1      11.283   3.958  -0.112  0.00  0.00    +0.024 A 
ATOM     35  C   UNL     1      12.190   4.187  -1.146  0.00  0.00    +0.029 A 
BRANCH  35   9
ATOM      9  N   UNL     1      12.075   3.472  -2.355  0.00  0.00    -0.336 N 
ATOM     36  C   UNL     1      13.087   3.603  -3.385  0.00  0.00    +0.129 C 
ATOM     37  C   UNL     1      10.947   2.589  -2.583  0.00  0.00    +0.129 C 
ENDBRANCH  35   9
ENDBRANCH  21  24
ENDBRANCH  12  19
BRANCH  13  18
ATOM     18  C   UNL     1       8.035   8.684   5.808  0.00  0.00    +0.124 C 
BRANCH  18   6
ATOM      6  N   UNL     1       7.387   8.465   4.551  0.00  0.00    -0.188 NA
ATOM     40  H   UNL     1       7.513   7.544   4.114  0.00  0.00    +0.148 HD
BRANCH   6   1
ATOM      1  S   UNL     1       7.060   9.767   3.470  0.00  0.00    +0.058 S 
ATOM      2  O   UNL     1       7.760  10.946   3.943  0.00  0.00    -0.153 OA
ATOM      3  O   UNL     1       5.642   9.830   3.173  0.00  0.00    -0.153 OA
BRANCH   1  23
ATOM     23  C   UNL     1       7.870   9.206   2.002  0.00  0.00    +0.105 A 
ATOM     26  C   UNL     1       7.449   9.666   0.754  0.00  0.00    +0.030 A 
ATOM     27  C   UNL     1       8.930   8.303   2.092  0.00  0.00    +0.030 A 
ATOM     30  C   UNL     1       8.089   9.224  -0.404  0.00  0.00    +0.025 A 
ATOM     31  C   UNL     1       9.569   7.860   0.934  0.00  0.00    +0.025 A 
ATOM     34  C   UNL     1       9.149   8.319  -0.314  0.00  0.00    +0.033 A 
BRANCH  34  10
ATOM      4  O   UNL     1       8.838   5.755  -1.861  0.00  0.00    -0.276 OA
ATOM     10  N   UNL     1       9.788   7.877  -1.472  0.00  0.00    -0.286 N 
ATOM     38  C   UNL     1       9.605   6.667  -2.154  0.00  0.00    +0.214 C 
ATOM     39  C   UNL     1      10.492   6.570  -3.370  0.00  0.00    +0.109 C 
ATOM     41  H   UNL     1      10.471   8.522  -1.864  0.00  0.00    +0.155 HD
ENDBRANCH  34  10
ENDBRANCH   1  23
ENDBRANCH   6   1
ENDBRANCH  18   6
ENDBRANCH  13  18
TORSDOF 8
ENDMDL
