REMARK  Name = 7142364
REMARK  7 active torsions:
REMARK  status: ('A' for Active; 'I' for Inactive)
REMARK    1  A    between atoms: C_14  and  C_15
REMARK    2  A    between atoms: C_14  and  C_20
REMARK    3  A    between atoms: C_14  and  C_21
REMARK    4  A    between atoms: C_14  and  C_22
REMARK    5  A    between atoms: C_15  and  C_16
REMARK    6  A    between atoms: C_26  and  C_28
REMARK    7  A    between atoms: C_31  and  C_34
REMARK                            x       y       z     vdW  Elec       q    Type
REMARK                         _______ _______ _______ _____ _____    ______ ____
ROOT
ATOM      4  O   UNL     1      -6.067  -0.261  -1.963  0.00  0.00    -0.276 OA
ATOM      5  O   UNL     1      -3.377  -1.774   0.496  0.00  0.00    -0.273 OA
ATOM      6  O   UNL     1       0.411   1.908   0.648  0.00  0.00    -0.270 OA
ATOM      7  N   UNL     1      -4.267   0.731  -0.877  0.00  0.00    -0.298 N 
ATOM      8  N   UNL     1      -1.450   0.813  -0.180  0.00  0.00    -0.283 N 
ATOM      9  N   UNL     1      -1.124  -1.981   0.739  0.00  0.00    -0.283 N 
ATOM     10  C   UNL     1      -2.005  -0.339  -0.877  0.00  0.00    +0.180 C 
ATOM     11  C   UNL     1      -3.273   0.003  -1.670  0.00  0.00    +0.139 C 
ATOM     12  C   UNL     1      -3.755   1.658   0.136  0.00  0.00    +0.127 C 
ATOM     13  C   UNL     1      -2.290   2.008  -0.085  0.00  0.00    +0.128 C 
ATOM     16  C   UNL     1      -5.626   0.516  -1.113  0.00  0.00    +0.216 C 
ATOM     17  C   UNL     1      -2.245  -1.395   0.191  0.00  0.00    +0.239 C 
ATOM     18  C   UNL     1      -0.122   0.879   0.231  0.00  0.00    +0.249 C 
ATOM     19  C   UNL     1       0.703  -0.358   0.200  0.00  0.00    +0.059 A 
ATOM     23  C   UNL     1       0.228  -1.636   0.536  0.00  0.00    +0.046 A 
ATOM     24  C   UNL     1       2.082  -0.169  -0.011  0.00  0.00    +0.023 A 
ATOM     25  C   UNL     1       1.153  -2.678   0.723  0.00  0.00    +0.024 A 
ATOM     26  C   UNL     1       2.980  -1.226   0.130  0.00  0.00    -0.017 A 
ATOM     27  C   UNL     1       2.517  -2.478   0.510  0.00  0.00    +0.010 A 
ATOM     35  H   UNL     1      -1.293  -2.827   1.278  0.00  0.00    +0.155 HD
ENDROOT
BRANCH  26  28
ATOM     28  C   UNL     1       4.393  -1.013  -0.096  0.00  0.00    -0.017 A 
ATOM     29  C   UNL     1       4.956   0.242   0.137  0.00  0.00    +0.021 A 
ATOM     30  C   UNL     1       5.193  -2.062  -0.548  0.00  0.00    +0.008 A 
ATOM     31  C   UNL     1       6.318   0.448  -0.082  0.00  0.00    +0.055 A 
ATOM     32  C   UNL     1       6.555  -1.857  -0.767  0.00  0.00    +0.001 A 
ATOM     33  C   UNL     1       7.117  -0.602  -0.534  0.00  0.00    +0.012 A 
BRANCH  31  34
ATOM      1  F   UNL     1       8.261   1.844  -0.089  0.00  0.00    -0.166 F 
ATOM      2  F   UNL     1       6.372   2.784  -0.591  0.00  0.00    -0.166 F 
ATOM      3  F   UNL     1       6.779   2.196   1.463  0.00  0.00    -0.166 F 
ATOM     34  C   UNL     1       6.920   1.789   0.168  0.00  0.00    +0.417 C 
ENDBRANCH  31  34
ENDBRANCH  26  28
BRANCH  16  15
ATOM     15  C   UNL     1      -6.583   1.307  -0.256  0.00  0.00    +0.102 C 
BRANCH  15  14
ATOM     14  C   UNL     1      -7.475   0.413   0.623  0.00  0.00    -0.029 C 
ATOM     20  C   UNL     1      -8.321  -0.543  -0.234  0.00  0.00    +0.011 C 
ATOM     21  C   UNL     1      -8.403   1.258   1.514  0.00  0.00    +0.011 C 
ATOM     22  C   UNL     1      -6.554  -0.424   1.530  0.00  0.00    +0.011 C 
ENDBRANCH  15  14
ENDBRANCH  16  15
TORSDOF 4
