MODEL 1
REMARK VINA RESULT:      -7.5      0.000      0.000
REMARK  Name = 26744369
REMARK  7 active torsions:
REMARK  status: ('A' for Active; 'I' for Inactive)
REMARK    1  A    between atoms: O_2  and  C_10
REMARK    2  A    between atoms: O_4  and  C_21
REMARK    3  A    between atoms: O_4  and  C_27
REMARK    4  A    between atoms: N_5  and  C_12
REMARK    5  A    between atoms: C_8  and  C_13
REMARK    6  A    between atoms: C_12  and  C_14
REMARK    7  A    between atoms: C_17  and  C_20
REMARK                            x       y       z     vdW  Elec       q    Type
REMARK                         _______ _______ _______ _____ _____    ______ ____
ROOT
ATOM      5  N   UNL     1      12.408   8.729  20.026  0.00  0.00    -0.285 NA
ATOM      8  C   UNL     1      13.180   8.190  21.165  0.00  0.00    +0.149 C 
ATOM      9  C   UNL     1      12.210   7.231  21.879  0.00  0.00    +0.061 C 
ATOM     10  C   UNL     1      10.907   7.332  21.096  0.00  0.00    +0.130 C 
ATOM     11  C   UNL     1      11.002   8.688  20.423  0.00  0.00    +0.116 C 
ENDROOT
BRANCH   8  13
ATOM      3  O   UNL     1      14.384   6.715  19.634  0.00  0.00    -0.336 OA
ATOM      6  N   UNL     1      15.656   7.575  21.265  0.00  0.00    -0.190 NA
ATOM      7  N   UNL     1      15.673   6.205  19.432  0.00  0.00    -0.056 NA
ATOM     13  C   UNL     1      14.461   7.512  20.731  0.00  0.00    +0.245 A 
ATOM     17  C   UNL     1      16.365   6.758  20.433  0.00  0.00    +0.202 A 
BRANCH  17  20
ATOM      1  F   UNL     1      21.796   5.816  21.195  0.00  0.00    -0.205 F 
ATOM     20  C   UNL     1      17.766   6.515  20.629  0.00  0.00    +0.023 A 
ATOM     22  C   UNL     1      18.483   7.278  21.550  0.00  0.00    +0.014 A 
ATOM     23  C   UNL     1      18.409   5.516  19.899  0.00  0.00    +0.014 A 
ATOM     24  C   UNL     1      19.844   7.042  21.741  0.00  0.00    +0.039 A 
ATOM     25  C   UNL     1      19.771   5.280  20.090  0.00  0.00    +0.039 A 
ATOM     26  C   UNL     1      20.488   6.043  21.011  0.00  0.00    +0.123 A 
ENDBRANCH  17  20
ENDBRANCH   8  13
BRANCH  10   2
ATOM      2  O   UNL     1       9.793   7.254  21.964  0.00  0.00    -0.390 OA
ATOM     28  H   UNL     1       9.008   7.081  21.418  0.00  0.00    +0.210 HD
ENDBRANCH  10   2
BRANCH   5  12
ATOM     12  C   UNL     1      12.827  10.066  19.629  0.00  0.00    +0.120 C 
BRANCH  12  14
ATOM     14  C   UNL     1      13.408  10.083  18.240  0.00  0.00    -0.033 A 
ATOM     15  C   UNL     1      14.210  11.148  17.831  0.00  0.00    +0.008 A 
ATOM     16  C   UNL     1      13.144   9.031  17.362  0.00  0.00    +0.008 A 
ATOM     18  C   UNL     1      14.747  11.162  16.544  0.00  0.00    +0.046 A 
ATOM     19  C   UNL     1      13.682   9.046  16.075  0.00  0.00    +0.046 A 
ATOM     21  C   UNL     1      14.483  10.111  15.666  0.00  0.00    +0.120 A 
BRANCH  21   4
ATOM      4  O   UNL     1      15.010  10.124  14.410  0.00  0.00    -0.495 OA
ATOM     27  C   UNL     1      15.795  11.258  14.048  0.00  0.00    +0.277 C 
ENDBRANCH  21   4
ENDBRANCH  12  14
ENDBRANCH   5  12
TORSDOF 6
ENDMDL
MODEL 2
REMARK VINA RESULT:      -7.2      2.186      4.894
REMARK  Name = 26744369
REMARK  7 active torsions:
REMARK  status: ('A' for Active; 'I' for Inactive)
REMARK    1  A    between atoms: O_2  and  C_10
REMARK    2  A    between atoms: O_4  and  C_21
REMARK    3  A    between atoms: O_4  and  C_27
REMARK    4  A    between atoms: N_5  and  C_12
REMARK    5  A    between atoms: C_8  and  C_13
REMARK    6  A    between atoms: C_12  and  C_14
REMARK    7  A    between atoms: C_17  and  C_20
REMARK                            x       y       z     vdW  Elec       q    Type
REMARK                         _______ _______ _______ _____ _____    ______ ____
ROOT
ATOM      5  N   UNL     1      12.566   8.686  18.764  0.00  0.00    -0.285 NA
ATOM      8  C   UNL     1      13.368   7.470  18.516  0.00  0.00    +0.149 C 
ATOM      9  C   UNL     1      13.862   7.615  17.064  0.00  0.00    +0.061 C 
ATOM     10  C   UNL     1      13.250   8.918  16.568  0.00  0.00    +0.130 C 
ATOM     11  C   UNL     1      12.044   9.110  17.467  0.00  0.00    +0.116 C 
ENDROOT
BRANCH   8  13
ATOM      3  O   UNL     1      14.148   7.106  20.803  0.00  0.00    -0.336 OA
ATOM      6  N   UNL     1      15.794   7.329  19.300  0.00  0.00    -0.190 NA
ATOM      7  N   UNL     1      15.346   6.986  21.518  0.00  0.00    -0.056 NA
ATOM     13  C   UNL     1      14.501   7.306  19.506  0.00  0.00    +0.245 A 
ATOM     17  C   UNL     1      16.270   7.128  20.563  0.00  0.00    +0.202 A 
BRANCH  17  20
ATOM      1  F   UNL     1      21.728   6.918  21.626  0.00  0.00    -0.205 F 
ATOM     20  C   UNL     1      17.678   7.074  20.837  0.00  0.00    +0.023 A 
ATOM     22  C   UNL     1      18.455   6.053  20.292  0.00  0.00    +0.014 A 
ATOM     23  C   UNL     1      18.268   8.043  21.648  0.00  0.00    +0.014 A 
ATOM     24  C   UNL     1      19.823   6.000  20.558  0.00  0.00    +0.039 A 
ATOM     25  C   UNL     1      19.636   7.991  21.915  0.00  0.00    +0.039 A 
ATOM     26  C   UNL     1      20.414   6.969  21.370  0.00  0.00    +0.123 A 
ENDBRANCH  17  20
ENDBRANCH   8  13
BRANCH  10   2
ATOM      2  O   UNL     1      12.879   8.811  15.207  0.00  0.00    -0.390 OA
ATOM     28  H   UNL     1      13.646   8.464  14.721  0.00  0.00    +0.210 HD
ENDBRANCH  10   2
BRANCH   5  12
ATOM     12  C   UNL     1      11.506   8.485  19.743  0.00  0.00    +0.120 C 
BRANCH  12  14
ATOM     14  C   UNL     1      11.597   9.469  20.879  0.00  0.00    -0.033 A 
ATOM     15  C   UNL     1      10.861   9.260  22.045  0.00  0.00    +0.008 A 
ATOM     16  C   UNL     1      12.418  10.590  20.764  0.00  0.00    +0.008 A 
ATOM     18  C   UNL     1      10.947  10.172  23.096  0.00  0.00    +0.046 A 
ATOM     19  C   UNL     1      12.504  11.503  21.816  0.00  0.00    +0.046 A 
ATOM     21  C   UNL     1      11.767  11.294  22.982  0.00  0.00    +0.120 A 
BRANCH  21   4
ATOM      4  O   UNL     1      11.852  12.184  24.009  0.00  0.00    -0.495 OA
ATOM     27  C   UNL     1      10.802  12.161  24.975  0.00  0.00    +0.277 C 
ENDBRANCH  21   4
ENDBRANCH  12  14
ENDBRANCH   5  12
TORSDOF 6
ENDMDL
MODEL 3
REMARK VINA RESULT:      -6.6     25.817     28.699
REMARK  Name = 26744369
REMARK  7 active torsions:
REMARK  status: ('A' for Active; 'I' for Inactive)
REMARK    1  A    between atoms: O_2  and  C_10
REMARK    2  A    between atoms: O_4  and  C_21
REMARK    3  A    between atoms: O_4  and  C_27
REMARK    4  A    between atoms: N_5  and  C_12
REMARK    5  A    between atoms: C_8  and  C_13
REMARK    6  A    between atoms: C_12  and  C_14
REMARK    7  A    between atoms: C_17  and  C_20
REMARK                            x       y       z     vdW  Elec       q    Type
REMARK                         _______ _______ _______ _____ _____    ______ ____
ROOT
ATOM      5  N   UNL     1      -3.149 -10.609  14.336  0.00  0.00    -0.285 NA
ATOM      8  C   UNL     1      -3.384 -11.295  15.623  0.00  0.00    +0.149 C 
ATOM      9  C   UNL     1      -2.187 -10.894  16.506  0.00  0.00    +0.061 C 
ATOM     10  C   UNL     1      -1.314 -10.021  15.614  0.00  0.00    +0.130 C 
ATOM     11  C   UNL     1      -1.702 -10.446  14.211  0.00  0.00    +0.116 C 
ENDROOT
BRANCH   8  13
ATOM      3  O   UNL     1      -5.251  -9.738  15.875  0.00  0.00    -0.336 OA
ATOM      6  N   UNL     1      -5.445 -11.605  17.098  0.00  0.00    -0.190 NA
ATOM      7  N   UNL     1      -6.462  -9.625  16.568  0.00  0.00    -0.056 NA
ATOM     13  C   UNL     1      -4.716 -10.932  16.243  0.00  0.00    +0.245 A 
ATOM     17  C   UNL     1      -6.506 -10.763  17.267  0.00  0.00    +0.202 A 
BRANCH  17  20
ATOM      1  F   UNL     1     -10.729 -12.032  20.660  0.00  0.00    -0.205 F 
ATOM     20  C   UNL     1      -7.595 -11.090  18.142  0.00  0.00    +0.023 A 
ATOM     22  C   UNL     1      -7.506 -12.201  18.980  0.00  0.00    +0.014 A 
ATOM     23  C   UNL     1      -8.742 -10.298  18.153  0.00  0.00    +0.014 A 
ATOM     24  C   UNL     1      -8.565 -12.519  19.831  0.00  0.00    +0.039 A 
ATOM     25  C   UNL     1      -9.801 -10.616  19.004  0.00  0.00    +0.039 A 
ATOM     26  C   UNL     1      -9.712 -11.726  19.843  0.00  0.00    +0.123 A 
ENDBRANCH  17  20
ENDBRANCH   8  13
BRANCH  10   2
ATOM      2  O   UNL     1       0.057 -10.253  15.873  0.00  0.00    -0.390 OA
ATOM     28  H   UNL     1       0.123 -10.669  16.750  0.00  0.00    +0.210 HD
ENDBRANCH  10   2
BRANCH   5  12
ATOM     12  C   UNL     1      -3.722 -11.313  13.197  0.00  0.00    +0.120 C 
BRANCH  12  14
ATOM     14  C   UNL     1      -4.286 -10.362  12.175  0.00  0.00    -0.033 A 
ATOM     15  C   UNL     1      -3.538 -10.024  11.047  0.00  0.00    +0.008 A 
ATOM     16  C   UNL     1      -5.558  -9.820  12.356  0.00  0.00    +0.008 A 
ATOM     18  C   UNL     1      -4.062  -9.143  10.101  0.00  0.00    +0.046 A 
ATOM     19  C   UNL     1      -6.082  -8.939  11.410  0.00  0.00    +0.046 A 
ATOM     21  C   UNL     1      -5.334  -8.600  10.283  0.00  0.00    +0.120 A 
BRANCH  21   4
ATOM      4  O   UNL     1      -5.846  -7.741   9.358  0.00  0.00    -0.495 OA
ATOM     27  C   UNL     1      -7.154  -8.024   8.866  0.00  0.00    +0.277 C 
ENDBRANCH  21   4
ENDBRANCH  12  14
ENDBRANCH   5  12
TORSDOF 6
ENDMDL
MODEL 4
REMARK VINA RESULT:      -6.6      2.652      4.654
REMARK  Name = 26744369
REMARK  7 active torsions:
REMARK  status: ('A' for Active; 'I' for Inactive)
REMARK    1  A    between atoms: O_2  and  C_10
REMARK    2  A    between atoms: O_4  and  C_21
REMARK    3  A    between atoms: O_4  and  C_27
REMARK    4  A    between atoms: N_5  and  C_12
REMARK    5  A    between atoms: C_8  and  C_13
REMARK    6  A    between atoms: C_12  and  C_14
REMARK    7  A    between atoms: C_17  and  C_20
REMARK                            x       y       z     vdW  Elec       q    Type
REMARK                         _______ _______ _______ _____ _____    ______ ____
ROOT
ATOM      5  N   UNL     1      12.488   8.945  20.469  0.00  0.00    -0.285 NA
ATOM      8  C   UNL     1      13.166   8.118  21.489  0.00  0.00    +0.149 C 
ATOM      9  C   UNL     1      12.115   7.073  21.909  0.00  0.00    +0.061 C 
ATOM     10  C   UNL     1      10.870   7.420  21.104  0.00  0.00    +0.130 C 
ATOM     11  C   UNL     1      11.060   8.888  20.771  0.00  0.00    +0.116 C 
ENDROOT
BRANCH   8  13
ATOM      3  O   UNL     1      14.339   6.726  19.860  0.00  0.00    -0.336 OA
ATOM      6  N   UNL     1      15.660   7.574  21.458  0.00  0.00    -0.190 NA
ATOM      7  N   UNL     1      15.631   6.261  19.583  0.00  0.00    -0.056 NA
ATOM     13  C   UNL     1      14.444   7.491  20.977  0.00  0.00    +0.245 A 
ATOM     17  C   UNL     1      16.352   6.803  20.569  0.00  0.00    +0.202 A 
BRANCH  17  20
ATOM      1  F   UNL     1      21.837   6.000  21.053  0.00  0.00    -0.205 F 
ATOM     20  C   UNL     1      17.767   6.596  20.694  0.00  0.00    +0.023 A 
ATOM     22  C   UNL     1      18.388   5.577  19.973  0.00  0.00    +0.014 A 
ATOM     23  C   UNL     1      18.519   7.414  21.536  0.00  0.00    +0.014 A 
ATOM     24  C   UNL     1      19.763   5.376  20.094  0.00  0.00    +0.039 A 
ATOM     25  C   UNL     1      19.895   7.212  21.658  0.00  0.00    +0.039 A 
ATOM     26  C   UNL     1      20.516   6.194  20.937  0.00  0.00    +0.123 A 
ENDBRANCH  17  20
ENDBRANCH   8  13
BRANCH  10   2
ATOM      2  O   UNL     1       9.701   7.202  21.871  0.00  0.00    -0.390 OA
ATOM     28  H   UNL     1       9.852   6.413  22.417  0.00  0.00    +0.210 HD
ENDBRANCH  10   2
BRANCH   5  12
ATOM     12  C   UNL     1      12.984  10.313  20.417  0.00  0.00    +0.120 C 
BRANCH  12  14
ATOM     14  C   UNL     1      12.558  11.111  21.621  0.00  0.00    -0.033 A 
ATOM     15  C   UNL     1      11.431  11.930  21.554  0.00  0.00    +0.008 A 
ATOM     16  C   UNL     1      13.292  11.030  22.805  0.00  0.00    +0.008 A 
ATOM     18  C   UNL     1      11.038  12.668  22.671  0.00  0.00    +0.046 A 
ATOM     19  C   UNL     1      12.899  11.768  23.921  0.00  0.00    +0.046 A 
ATOM     21  C   UNL     1      11.772  12.587  23.854  0.00  0.00    +0.120 A 
BRANCH  21   4
ATOM      4  O   UNL     1      11.387  13.307  24.944  0.00  0.00    -0.495 OA
ATOM     27  C   UNL     1      10.376  14.293  24.746  0.00  0.00    +0.277 C 
ENDBRANCH  21   4
ENDBRANCH  12  14
ENDBRANCH   5  12
TORSDOF 6
ENDMDL
MODEL 5
REMARK VINA RESULT:      -6.5     25.625     28.558
REMARK  Name = 26744369
REMARK  7 active torsions:
REMARK  status: ('A' for Active; 'I' for Inactive)
REMARK    1  A    between atoms: O_2  and  C_10
REMARK    2  A    between atoms: O_4  and  C_21
REMARK    3  A    between atoms: O_4  and  C_27
REMARK    4  A    between atoms: N_5  and  C_12
REMARK    5  A    between atoms: C_8  and  C_13
REMARK    6  A    between atoms: C_12  and  C_14
REMARK    7  A    between atoms: C_17  and  C_20
REMARK                            x       y       z     vdW  Elec       q    Type
REMARK                         _______ _______ _______ _____ _____    ______ ____
ROOT
ATOM      5  N   UNL     1      -3.045 -10.576  14.077  0.00  0.00    -0.285 NA
ATOM      8  C   UNL     1      -3.382 -11.343  15.294  0.00  0.00    +0.149 C 
ATOM      9  C   UNL     1      -2.313 -10.934  16.325  0.00  0.00    +0.061 C 
ATOM     10  C   UNL     1      -1.397  -9.970  15.581  0.00  0.00    +0.130 C 
ATOM     11  C   UNL     1      -1.605 -10.335  14.124  0.00  0.00    +0.116 C 
ENDROOT
BRANCH   8  13
ATOM      3  O   UNL     1      -5.289 -11.950  16.695  0.00  0.00    -0.336 OA
ATOM      6  N   UNL     1      -5.623 -10.126  15.437  0.00  0.00    -0.190 NA
ATOM      7  N   UNL     1      -6.587 -11.510  16.984  0.00  0.00    -0.056 NA
ATOM     13  C   UNL     1      -4.792 -11.081  15.777  0.00  0.00    +0.245 A 
ATOM     17  C   UNL     1      -6.710 -10.432  16.204  0.00  0.00    +0.202 A 
BRANCH  17  20
ATOM      1  F   UNL     1     -11.340  -7.350  16.062  0.00  0.00    -0.205 F 
ATOM     20  C   UNL     1      -7.904  -9.637  16.167  0.00  0.00    +0.023 A 
ATOM     22  C   UNL     1      -8.628  -9.520  14.981  0.00  0.00    +0.014 A 
ATOM     23  C   UNL     1      -8.340  -8.982  17.318  0.00  0.00    +0.014 A 
ATOM     24  C   UNL     1      -9.788  -8.748  14.946  0.00  0.00    +0.039 A 
ATOM     25  C   UNL     1      -9.502  -8.209  17.283  0.00  0.00    +0.039 A 
ATOM     26  C   UNL     1     -10.225  -8.093  16.097  0.00  0.00    +0.123 A 
ENDBRANCH  17  20
ENDBRANCH   8  13
BRANCH  10   2
ATOM      2  O   UNL     1      -0.052 -10.149  15.981  0.00  0.00    -0.390 OA
ATOM     28  H   UNL     1       0.248  -9.314  16.381  0.00  0.00    +0.210 HD
ENDBRANCH  10   2
BRANCH   5  12
ATOM     12  C   UNL     1      -3.450 -11.242  12.847  0.00  0.00    +0.120 C 
BRANCH  12  14
ATOM     14  C   UNL     1      -4.100 -10.289  11.879  0.00  0.00    -0.033 A 
ATOM     15  C   UNL     1      -3.398  -9.846  10.758  0.00  0.00    +0.008 A 
ATOM     16  C   UNL     1      -5.404  -9.851  12.104  0.00  0.00    +0.008 A 
ATOM     18  C   UNL     1      -4.001  -8.963   9.862  0.00  0.00    +0.046 A 
ATOM     19  C   UNL     1      -6.007  -8.968  11.208  0.00  0.00    +0.046 A 
ATOM     21  C   UNL     1      -5.306  -8.524  10.087  0.00  0.00    +0.120 A 
BRANCH  21   4
ATOM      4  O   UNL     1      -5.895  -7.664   9.212  0.00  0.00    -0.495 OA
ATOM     27  C   UNL     1      -7.230  -7.963   8.808  0.00  0.00    +0.277 C 
ENDBRANCH  21   4
ENDBRANCH  12  14
ENDBRANCH   5  12
TORSDOF 6
ENDMDL
MODEL 6
REMARK VINA RESULT:      -6.3     26.991     28.873
REMARK  Name = 26744369
REMARK  7 active torsions:
REMARK  status: ('A' for Active; 'I' for Inactive)
REMARK    1  A    between atoms: O_2  and  C_10
REMARK    2  A    between atoms: O_4  and  C_21
REMARK    3  A    between atoms: O_4  and  C_27
REMARK    4  A    between atoms: N_5  and  C_12
REMARK    5  A    between atoms: C_8  and  C_13
REMARK    6  A    between atoms: C_12  and  C_14
REMARK    7  A    between atoms: C_17  and  C_20
REMARK                            x       y       z     vdW  Elec       q    Type
REMARK                         _______ _______ _______ _____ _____    ______ ____
ROOT
ATOM      5  N   UNL     1      -5.586  -9.563   9.092  0.00  0.00    -0.285 NA
ATOM      8  C   UNL     1      -6.480  -8.736   9.927  0.00  0.00    +0.149 C 
ATOM      9  C   UNL     1      -7.796  -8.653   9.131  0.00  0.00    +0.061 C 
ATOM     10  C   UNL     1      -7.529  -9.426   7.846  0.00  0.00    +0.130 C 
ATOM     11  C   UNL     1      -6.019  -9.376   7.709  0.00  0.00    +0.116 C 
ENDROOT
BRANCH   8  13
ATOM      3  O   UNL     1      -7.772 -10.076  11.510  0.00  0.00    -0.336 OA
ATOM      6  N   UNL     1      -5.923  -9.160  12.383  0.00  0.00    -0.190 NA
ATOM      7  N   UNL     1      -7.734 -10.479  12.851  0.00  0.00    -0.056 NA
ATOM     13  C   UNL     1      -6.671  -9.304  11.317  0.00  0.00    +0.245 A 
ATOM     17  C   UNL     1      -6.616  -9.899  13.297  0.00  0.00    +0.202 A 
BRANCH  17  20
ATOM      1  F   UNL     1      -4.854 -10.442  18.548  0.00  0.00    -0.205 F 
ATOM     20  C   UNL     1      -6.161 -10.039  14.652  0.00  0.00    +0.023 A 
ATOM     22  C   UNL     1      -4.842 -10.410  14.909  0.00  0.00    +0.014 A 
ATOM     23  C   UNL     1      -7.039  -9.803  15.709  0.00  0.00    +0.014 A 
ATOM     24  C   UNL     1      -4.401 -10.546  16.225  0.00  0.00    +0.039 A 
ATOM     25  C   UNL     1      -6.598  -9.939  17.026  0.00  0.00    +0.039 A 
ATOM     26  C   UNL     1      -5.279 -10.311  17.283  0.00  0.00    +0.123 A 
ENDBRANCH  17  20
ENDBRANCH   8  13
BRANCH  10   2
ATOM      2  O   UNL     1      -8.176  -8.812   6.748  0.00  0.00    -0.390 OA
ATOM     28  H   UNL     1      -8.178  -9.451   6.014  0.00  0.00    +0.210 HD
ENDBRANCH  10   2
BRANCH   5  12
ATOM     12  C   UNL     1      -4.176  -9.247   9.272  0.00  0.00    +0.120 C 
BRANCH  12  14
ATOM     14  C   UNL     1      -3.517 -10.165  10.267  0.00  0.00    -0.033 A 
ATOM     15  C   UNL     1      -3.928 -11.493  10.371  0.00  0.00    +0.008 A 
ATOM     16  C   UNL     1      -2.493  -9.686  11.084  0.00  0.00    +0.008 A 
ATOM     18  C   UNL     1      -3.317 -12.343  11.293  0.00  0.00    +0.046 A 
ATOM     19  C   UNL     1      -1.882 -10.535  12.007  0.00  0.00    +0.046 A 
ATOM     21  C   UNL     1      -2.294 -11.864  12.112  0.00  0.00    +0.120 A 
BRANCH  21   4
ATOM      4  O   UNL     1      -1.696 -12.693  13.010  0.00  0.00    -0.495 OA
ATOM     27  C   UNL     1      -1.697 -12.280  14.375  0.00  0.00    +0.277 C 
ENDBRANCH  21   4
ENDBRANCH  12  14
ENDBRANCH   5  12
TORSDOF 6
ENDMDL
MODEL 7
REMARK VINA RESULT:      -6.2     13.341     16.313
REMARK  Name = 26744369
REMARK  7 active torsions:
REMARK  status: ('A' for Active; 'I' for Inactive)
REMARK    1  A    between atoms: O_2  and  C_10
REMARK    2  A    between atoms: O_4  and  C_21
REMARK    3  A    between atoms: O_4  and  C_27
REMARK    4  A    between atoms: N_5  and  C_12
REMARK    5  A    between atoms: C_8  and  C_13
REMARK    6  A    between atoms: C_12  and  C_14
REMARK    7  A    between atoms: C_17  and  C_20
REMARK                            x       y       z     vdW  Elec       q    Type
REMARK                         _______ _______ _______ _____ _____    ______ ____
ROOT
ATOM      5  N   UNL     1      13.014   5.752   2.397  0.00  0.00    -0.285 NA
ATOM      8  C   UNL     1      11.568   5.569   2.160  0.00  0.00    +0.149 C 
ATOM      9  C   UNL     1      11.440   4.140   1.598  0.00  0.00    +0.061 C 
ATOM     10  C   UNL     1      12.869   3.619   1.515  0.00  0.00    +0.130 C 
ATOM     11  C   UNL     1      13.704   4.884   1.445  0.00  0.00    +0.116 C 
ENDROOT
BRANCH   8  13
ATOM      3  O   UNL     1       9.650   6.585   3.282  0.00  0.00    -0.336 OA
ATOM      6  N   UNL     1      10.918   5.306   4.615  0.00  0.00    -0.190 NA
ATOM      7  N   UNL     1       9.054   6.633   4.549  0.00  0.00    -0.056 NA
ATOM     13  C   UNL     1      10.740   5.783   3.408  0.00  0.00    +0.245 A 
ATOM     17  C   UNL     1       9.860   5.855   5.279  0.00  0.00    +0.202 A 
BRANCH  17  20
ATOM      1  F   UNL     1       8.984   4.883  10.687  0.00  0.00    -0.205 F 
ATOM     20  C   UNL     1       9.634   5.604   6.674  0.00  0.00    +0.023 A 
ATOM     22  C   UNL     1       9.910   4.347   7.210  0.00  0.00    +0.014 A 
ATOM     23  C   UNL     1       9.138   6.618   7.492  0.00  0.00    +0.014 A 
ATOM     24  C   UNL     1       9.691   4.103   8.565  0.00  0.00    +0.039 A 
ATOM     25  C   UNL     1       8.919   6.375   8.849  0.00  0.00    +0.039 A 
ATOM     26  C   UNL     1       9.195   5.118   9.385  0.00  0.00    +0.123 A 
ENDBRANCH  17  20
ENDBRANCH   8  13
BRANCH  10   2
ATOM      2  O   UNL     1      13.042   2.812   0.366  0.00  0.00    -0.390 OA
ATOM     28  H   UNL     1      13.907   2.374   0.444  0.00  0.00    +0.210 HD
ENDBRANCH  10   2
BRANCH   5  12
ATOM     12  C   UNL     1      13.444   7.139   2.284  0.00  0.00    +0.120 C 
BRANCH  12  14
ATOM     14  C   UNL     1      14.442   7.506   3.351  0.00  0.00    -0.033 A 
ATOM     15  C   UNL     1      15.740   7.873   2.997  0.00  0.00    +0.008 A 
ATOM     16  C   UNL     1      14.066   7.481   4.694  0.00  0.00    +0.008 A 
ATOM     18  C   UNL     1      16.662   8.213   3.986  0.00  0.00    +0.046 A 
ATOM     19  C   UNL     1      14.988   7.821   5.683  0.00  0.00    +0.046 A 
ATOM     21  C   UNL     1      16.287   8.187   5.329  0.00  0.00    +0.120 A 
BRANCH  21   4
ATOM      4  O   UNL     1      17.187   8.521   6.294  0.00  0.00    -0.495 OA
ATOM     27  C   UNL     1      18.439   9.047   5.859  0.00  0.00    +0.277 C 
ENDBRANCH  21   4
ENDBRANCH  12  14
ENDBRANCH   5  12
TORSDOF 6
ENDMDL
MODEL 8
REMARK VINA RESULT:      -6.2     16.966     20.593
REMARK  Name = 26744369
REMARK  7 active torsions:
REMARK  status: ('A' for Active; 'I' for Inactive)
REMARK    1  A    between atoms: O_2  and  C_10
REMARK    2  A    between atoms: O_4  and  C_21
REMARK    3  A    between atoms: O_4  and  C_27
REMARK    4  A    between atoms: N_5  and  C_12
REMARK    5  A    between atoms: C_8  and  C_13
REMARK    6  A    between atoms: C_12  and  C_14
REMARK    7  A    between atoms: C_17  and  C_20
REMARK                            x       y       z     vdW  Elec       q    Type
REMARK                         _______ _______ _______ _____ _____    ______ ____
ROOT
ATOM      5  N   UNL     1      13.473   3.906  -0.549  0.00  0.00    -0.285 NA
ATOM      8  C   UNL     1      13.678   3.656   0.893  0.00  0.00    +0.149 C 
ATOM      9  C   UNL     1      14.956   4.439   1.250  0.00  0.00    +0.061 C 
ATOM     10  C   UNL     1      15.418   5.058  -0.063  0.00  0.00    +0.130 C 
ATOM     11  C   UNL     1      14.795   4.164  -1.117  0.00  0.00    +0.116 C 
ENDROOT
BRANCH   8  13
ATOM      3  O   UNL     1      11.904   3.089   2.473  0.00  0.00    -0.336 OA
ATOM      6  N   UNL     1      11.920   5.241   1.851  0.00  0.00    -0.190 NA
ATOM      7  N   UNL     1      10.840   3.698   3.151  0.00  0.00    -0.056 NA
ATOM     13  C   UNL     1      12.487   4.066   1.731  0.00  0.00    +0.245 A 
ATOM     17  C   UNL     1      10.916   4.965   2.733  0.00  0.00    +0.202 A 
BRANCH  17  20
ATOM      1  F   UNL     1       7.378   8.900   4.453  0.00  0.00    -0.205 F 
ATOM     20  C   UNL     1      10.003   5.980   3.176  0.00  0.00    +0.023 A 
ATOM     22  C   UNL     1       9.481   5.931   4.468  0.00  0.00    +0.014 A 
ATOM     23  C   UNL     1       9.639   7.014   2.315  0.00  0.00    +0.014 A 
ATOM     24  C   UNL     1       8.595   6.918   4.900  0.00  0.00    +0.039 A 
ATOM     25  C   UNL     1       8.752   8.001   2.747  0.00  0.00    +0.039 A 
ATOM     26  C   UNL     1       8.230   7.953   4.039  0.00  0.00    +0.123 A 
ENDBRANCH  17  20
ENDBRANCH   8  13
BRANCH  10   2
ATOM      2  O   UNL     1      16.831   5.061  -0.145  0.00  0.00    -0.390 OA
ATOM     28  H   UNL     1      17.072   5.425  -1.014  0.00  0.00    +0.210 HD
ENDBRANCH  10   2
BRANCH   5  12
ATOM     12  C   UNL     1      12.787   2.817  -1.229  0.00  0.00    +0.120 C 
BRANCH  12  14
ATOM     14  C   UNL     1      11.585   3.302  -1.996  0.00  0.00    -0.033 A 
ATOM     15  C   UNL     1      11.034   2.512  -3.004  0.00  0.00    +0.008 A 
ATOM     16  C   UNL     1      11.023   4.543  -1.697  0.00  0.00    +0.008 A 
ATOM     18  C   UNL     1       9.921   2.963  -3.714  0.00  0.00    +0.046 A 
ATOM     19  C   UNL     1       9.910   4.994  -2.406  0.00  0.00    +0.046 A 
ATOM     21  C   UNL     1       9.359   4.204  -3.415  0.00  0.00    +0.120 A 
BRANCH  21   4
ATOM      4  O   UNL     1       8.271   4.643  -4.106  0.00  0.00    -0.495 OA
ATOM     27  C   UNL     1       7.712   5.894  -3.710  0.00  0.00    +0.277 C 
ENDBRANCH  21   4
ENDBRANCH  12  14
ENDBRANCH   5  12
TORSDOF 6
ENDMDL
MODEL 9
REMARK VINA RESULT:      -6.1     27.111     29.187
REMARK  Name = 26744369
REMARK  7 active torsions:
REMARK  status: ('A' for Active; 'I' for Inactive)
REMARK    1  A    between atoms: O_2  and  C_10
REMARK    2  A    between atoms: O_4  and  C_21
REMARK    3  A    between atoms: O_4  and  C_27
REMARK    4  A    between atoms: N_5  and  C_12
REMARK    5  A    between atoms: C_8  and  C_13
REMARK    6  A    between atoms: C_12  and  C_14
REMARK    7  A    between atoms: C_17  and  C_20
REMARK                            x       y       z     vdW  Elec       q    Type
REMARK                         _______ _______ _______ _____ _____    ______ ____
ROOT
ATOM      5  N   UNL     1      -7.308 -10.741  17.314  0.00  0.00    -0.285 NA
ATOM      8  C   UNL     1      -5.916 -11.166  17.573  0.00  0.00    +0.149 C 
ATOM      9  C   UNL     1      -6.038 -12.603  18.113  0.00  0.00    +0.061 C 
ATOM     10  C   UNL     1      -7.535 -12.880  18.163  0.00  0.00    +0.130 C 
ATOM     11  C   UNL     1      -8.150 -11.496  18.239  0.00  0.00    +0.116 C 
ENDROOT
BRANCH   8  13
ATOM      3  O   UNL     1      -3.773 -11.550  16.464  0.00  0.00    -0.336 OA
ATOM      6  N   UNL     1      -5.322 -10.597  15.156  0.00  0.00    -0.190 NA
ATOM      7  N   UNL     1      -3.165 -11.360  15.217  0.00  0.00    -0.056 NA
ATOM     13  C   UNL     1      -5.040 -11.075  16.343  0.00  0.00    +0.245 A 
ATOM     17  C   UNL     1      -4.141 -10.794  14.500  0.00  0.00    +0.202 A 
BRANCH  17  20
ATOM      1  F   UNL     1      -3.476  -9.321   9.176  0.00  0.00    -0.205 F 
ATOM     20  C   UNL     1      -3.970 -10.414  13.127  0.00  0.00    +0.023 A 
ATOM     22  C   UNL     1      -2.706 -10.469  12.541  0.00  0.00    +0.014 A 
ATOM     23  C   UNL     1      -5.068  -9.989  12.379  0.00  0.00    +0.014 A 
ATOM     24  C   UNL     1      -2.539 -10.100  11.207  0.00  0.00    +0.039 A 
ATOM     25  C   UNL     1      -4.901  -9.620  11.044  0.00  0.00    +0.039 A 
ATOM     26  C   UNL     1      -3.637  -9.676  10.458  0.00  0.00    +0.123 A 
ENDBRANCH  17  20
ENDBRANCH   8  13
BRANCH  10   2
ATOM      2  O   UNL     1      -7.862 -13.663  19.294  0.00  0.00    -0.390 OA
ATOM     28  H   UNL     1      -8.139 -14.539  18.974  0.00  0.00    +0.210 HD
ENDBRANCH  10   2
BRANCH   5  12
ATOM     12  C   UNL     1      -7.503  -9.304  17.443  0.00  0.00    +0.120 C 
BRANCH  12  14
ATOM     14  C   UNL     1      -8.764  -8.845  16.759  0.00  0.00    -0.033 A 
ATOM     15  C   UNL     1      -9.020  -9.222  15.441  0.00  0.00    +0.008 A 
ATOM     16  C   UNL     1      -9.675  -8.042  17.445  0.00  0.00    +0.008 A 
ATOM     18  C   UNL     1     -10.188  -8.796  14.809  0.00  0.00    +0.046 A 
ATOM     19  C   UNL     1     -10.843  -7.617  16.813  0.00  0.00    +0.046 A 
ATOM     21  C   UNL     1     -11.100  -7.993  15.494  0.00  0.00    +0.120 A 
BRANCH  21   4
ATOM      4  O   UNL     1     -12.241  -7.579  14.877  0.00  0.00    -0.495 OA
ATOM     27  C   UNL     1     -12.817  -6.356  15.333  0.00  0.00    +0.277 C 
ENDBRANCH  21   4
ENDBRANCH  12  14
ENDBRANCH   5  12
TORSDOF 6
ENDMDL
MODEL 10
REMARK VINA RESULT:      -5.9     27.181     30.112
REMARK  Name = 26744369
REMARK  7 active torsions:
REMARK  status: ('A' for Active; 'I' for Inactive)
REMARK    1  A    between atoms: O_2  and  C_10
REMARK    2  A    between atoms: O_4  and  C_21
REMARK    3  A    between atoms: O_4  and  C_27
REMARK    4  A    between atoms: N_5  and  C_12
REMARK    5  A    between atoms: C_8  and  C_13
REMARK    6  A    between atoms: C_12  and  C_14
REMARK    7  A    between atoms: C_17  and  C_20
REMARK                            x       y       z     vdW  Elec       q    Type
REMARK                         _______ _______ _______ _____ _____    ______ ____
ROOT
ATOM      5  N   UNL     1     -10.097 -11.692  19.031  0.00  0.00    -0.285 NA
ATOM      8  C   UNL     1      -8.948 -12.204  19.805  0.00  0.00    +0.149 C 
ATOM      9  C   UNL     1      -9.108 -13.736  19.779  0.00  0.00    +0.061 C 
ATOM     10  C   UNL     1     -10.397 -13.985  19.006  0.00  0.00    +0.130 C 
ATOM     11  C   UNL     1     -11.162 -12.684  19.163  0.00  0.00    +0.116 C 
ENDROOT
BRANCH   8  13
ATOM      3  O   UNL     1      -6.716 -11.271  20.147  0.00  0.00    -0.336 OA
ATOM      6  N   UNL     1      -7.197 -11.731  18.008  0.00  0.00    -0.190 NA
ATOM      7  N   UNL     1      -5.582 -10.912  19.408  0.00  0.00    -0.056 NA
ATOM     13  C   UNL     1      -7.618 -11.744  19.248  0.00  0.00    +0.245 A 
ATOM     17  C   UNL     1      -5.943 -11.213  18.156  0.00  0.00    +0.202 A 
BRANCH  17  20
ATOM      1  F   UNL     1      -2.577 -10.421  13.797  0.00  0.00    -0.205 F 
ATOM     20  C   UNL     1      -5.075 -11.008  17.032  0.00  0.00    +0.023 A 
ATOM     22  C   UNL     1      -5.614 -10.725  15.778  0.00  0.00    +0.014 A 
ATOM     23  C   UNL     1      -3.693 -11.094  17.195  0.00  0.00    +0.014 A 
ATOM     24  C   UNL     1      -4.770 -10.526  14.685  0.00  0.00    +0.039 A 
ATOM     25  C   UNL     1      -2.848 -10.895  16.102  0.00  0.00    +0.039 A 
ATOM     26  C   UNL     1      -3.387 -10.611  14.847  0.00  0.00    +0.123 A 
ENDBRANCH  17  20
ENDBRANCH   8  13
BRANCH  10   2
ATOM      2  O   UNL     1     -11.106 -15.080  19.553  0.00  0.00    -0.390 OA
ATOM     28  H   UNL     1     -10.969 -15.066  20.515  0.00  0.00    +0.210 HD
ENDBRANCH  10   2
BRANCH   5  12
ATOM     12  C   UNL     1     -10.529 -10.366  19.452  0.00  0.00    +0.120 C 
BRANCH  12  14
ATOM     14  C   UNL     1     -10.626  -9.412  18.290  0.00  0.00    -0.033 A 
ATOM     15  C   UNL     1     -11.875  -9.049  17.788  0.00  0.00    +0.008 A 
ATOM     16  C   UNL     1      -9.466  -8.891  17.718  0.00  0.00    +0.008 A 
ATOM     18  C   UNL     1     -11.964  -8.165  16.712  0.00  0.00    +0.046 A 
ATOM     19  C   UNL     1      -9.555  -8.007  16.643  0.00  0.00    +0.046 A 
ATOM     21  C   UNL     1     -10.804  -7.645  16.139  0.00  0.00    +0.120 A 
BRANCH  21   4
ATOM      4  O   UNL     1     -10.891  -6.781  15.091  0.00  0.00    -0.495 OA
ATOM     27  C   UNL     1     -11.999  -5.883  15.081  0.00  0.00    +0.277 C 
ENDBRANCH  21   4
ENDBRANCH  12  14
ENDBRANCH   5  12
TORSDOF 6
ENDMDL
