MODEL 1
REMARK VINA RESULT:      -8.2      0.000      0.000
REMARK  Name = 7682267
REMARK  5 active torsions:
REMARK  status: ('A' for Active; 'I' for Inactive)
REMARK    1  A    between atoms: N_4  and  C_14
REMARK    2  A    between atoms: N_6  and  C_29
REMARK    3  A    between atoms: C_14  and  C_19
REMARK    4  A    between atoms: C_15  and  C_20
REMARK    5  A    between atoms: C_31  and  C_32
REMARK                            x       y       z     vdW  Elec       q    Type
REMARK                         _______ _______ _______ _____ _____    ______ ____
ROOT
ATOM      2  O   UNL     1      11.199   8.930  17.000  0.00  0.00    -0.268 OA
ATOM      4  N   UNL     1      12.341   9.826  21.770  0.00  0.00    -0.297 NA
ATOM      5  N   UNL     1      12.232   8.272  18.996  0.00  0.00    -0.311 N 
ATOM      7  C   UNL     1      10.886   7.887  21.148  0.00  0.00    +0.024 C 
ATOM      8  C   UNL     1      13.318   7.604  21.161  0.00  0.00    +0.051 C 
ATOM      9  C   UNL     1      11.998   6.908  21.487  0.00  0.00    +0.017 C 
ATOM     10  C   UNL     1      11.039   9.179  21.976  0.00  0.00    +0.090 C 
ATOM     11  C   UNL     1      13.445   8.888  22.016  0.00  0.00    +0.094 C 
ATOM     12  C   UNL     1      10.916   8.151  19.640  0.00  0.00    +0.130 C 
ATOM     13  C   UNL     1      13.422   7.931  19.669  0.00  0.00    +0.034 A 
ATOM     15  C   UNL     1      14.601   7.921  18.994  0.00  0.00    +0.002 A 
ATOM     16  C   UNL     1      12.210   8.638  17.639  0.00  0.00    +0.252 A 
ATOM     17  C   UNL     1      14.619   8.298  17.594  0.00  0.00    +0.015 A 
ATOM     18  C   UNL     1      13.513   8.652  16.938  0.00  0.00    +0.071 A 
ENDROOT
BRANCH  15  20
ATOM     20  C   UNL     1      15.872   7.550  19.654  0.00  0.00    -0.016 A 
ATOM     21  C   UNL     1      16.505   8.461  20.494  0.00  0.00    +0.010 A 
ATOM     22  C   UNL     1      16.426   6.295  19.428  0.00  0.00    +0.010 A 
ATOM     25  C   UNL     1      17.704   8.111  21.116  0.00  0.00    +0.024 A 
ATOM     26  C   UNL     1      17.625   5.944  20.050  0.00  0.00    +0.024 A 
ATOM     29  C   UNL     1      18.263   6.854  20.894  0.00  0.00    +0.033 A 
BRANCH  29   6
ATOM      3  O   UNL     1      21.091   7.715  20.319  0.00  0.00    -0.276 OA
ATOM      6  N   UNL     1      19.462   6.504  21.517  0.00  0.00    -0.286 N 
ATOM     31  C   UNL     1      20.758   6.937  21.205  0.00  0.00    +0.214 C 
ATOM     32  C   UNL     1      21.788   6.324  22.122  0.00  0.00    +0.109 C 
ATOM     33  H   UNL     1      19.373   5.854  22.295  0.00  0.00    +0.155 HD
ENDBRANCH  29   6
ENDBRANCH  15  20
BRANCH   4  14
ATOM     14  C   UNL     1      12.471  11.017  22.604  0.00  0.00    +0.119 C 
BRANCH  14  19
ATOM      1  F   UNL     1      10.340  15.578  20.105  0.00  0.00    -0.205 F 
ATOM     19  C   UNL     1      11.902  12.235  21.937  0.00  0.00    -0.033 A 
ATOM     23  C   UNL     1      10.781  12.854  22.475  0.00  0.00    +0.008 A 
ATOM     24  C   UNL     1      12.503  12.733  20.786  0.00  0.00    +0.008 A 
ATOM     27  C   UNL     1      10.252  13.986  21.855  0.00  0.00    +0.038 A 
ATOM     28  C   UNL     1      11.975  13.865  20.166  0.00  0.00    +0.038 A 
ATOM     30  C   UNL     1      10.849  14.491  20.700  0.00  0.00    +0.123 A 
ENDBRANCH  14  19
ENDBRANCH   4  14
TORSDOF 4
ENDMDL
MODEL 2
REMARK VINA RESULT:      -8.0      1.645      2.058
REMARK  Name = 7682267
REMARK  5 active torsions:
REMARK  status: ('A' for Active; 'I' for Inactive)
REMARK    1  A    between atoms: N_4  and  C_14
REMARK    2  A    between atoms: N_6  and  C_29
REMARK    3  A    between atoms: C_14  and  C_19
REMARK    4  A    between atoms: C_15  and  C_20
REMARK    5  A    between atoms: C_31  and  C_32
REMARK                            x       y       z     vdW  Elec       q    Type
REMARK                         _______ _______ _______ _____ _____    ______ ____
ROOT
ATOM      2  O   UNL     1      11.222   8.177  17.128  0.00  0.00    -0.268 OA
ATOM      4  N   UNL     1      12.425  10.773  21.212  0.00  0.00    -0.297 NA
ATOM      5  N   UNL     1      12.236   8.286  19.237  0.00  0.00    -0.311 N 
ATOM      7  C   UNL     1      10.886   8.805  21.357  0.00  0.00    +0.024 C 
ATOM      8  C   UNL     1      13.303   8.448  21.506  0.00  0.00    +0.051 C 
ATOM      9  C   UNL     1      11.956   7.984  22.056  0.00  0.00    +0.017 C 
ATOM     10  C   UNL     1      11.098  10.308  21.633  0.00  0.00    +0.090 C 
ATOM     11  C   UNL     1      13.489   9.954  21.809  0.00  0.00    +0.094 C 
ATOM     12  C   UNL     1      10.919   8.474  19.863  0.00  0.00    +0.130 C 
ATOM     13  C   UNL     1      13.413   8.178  20.002  0.00  0.00    +0.034 A 
ATOM     15  C   UNL     1      14.588   7.863  19.397  0.00  0.00    +0.002 A 
ATOM     16  C   UNL     1      12.223   8.108  17.843  0.00  0.00    +0.252 A 
ATOM     17  C   UNL     1      14.615   7.678  17.959  0.00  0.00    +0.015 A 
ATOM     18  C   UNL     1      13.522   7.800  17.204  0.00  0.00    +0.071 A 
ENDROOT
BRANCH  15  20
ATOM     20  C   UNL     1      15.845   7.719  20.163  0.00  0.00    -0.016 A 
ATOM     21  C   UNL     1      16.589   8.849  20.487  0.00  0.00    +0.010 A 
ATOM     22  C   UNL     1      16.275   6.455  20.552  0.00  0.00    +0.010 A 
ATOM     25  C   UNL     1      17.775   8.713  21.209  0.00  0.00    +0.024 A 
ATOM     26  C   UNL     1      17.461   6.318  21.274  0.00  0.00    +0.024 A 
ATOM     29  C   UNL     1      18.211   7.448  21.602  0.00  0.00    +0.033 A 
BRANCH  29   6
ATOM      3  O   UNL     1      20.872   6.291  20.797  0.00  0.00    -0.276 OA
ATOM      6  N   UNL     1      19.397   7.313  22.325  0.00  0.00    -0.286 N 
ATOM     31  C   UNL     1      20.612   6.762  21.899  0.00  0.00    +0.214 C 
ATOM     32  C   UNL     1      21.657   6.803  22.987  0.00  0.00    +0.109 C 
ATOM     33  H   UNL     1      19.364   7.662  23.282  0.00  0.00    +0.155 HD
ENDBRANCH  29   6
ENDBRANCH  15  20
BRANCH   4  14
ATOM     14  C   UNL     1      12.610  12.186  21.532  0.00  0.00    +0.119 C 
BRANCH  14  19
ATOM      1  F   UNL     1      10.104  13.596  26.360  0.00  0.00    -0.205 F 
ATOM     19  C   UNL     1      11.941  12.562  22.821  0.00  0.00    -0.033 A 
ATOM     23  C   UNL     1      12.526  12.205  24.030  0.00  0.00    +0.008 A 
ATOM     24  C   UNL     1      10.742  13.266  22.794  0.00  0.00    +0.008 A 
ATOM     27  C   UNL     1      11.904  12.555  25.229  0.00  0.00    +0.038 A 
ATOM     28  C   UNL     1      10.120  13.616  23.992  0.00  0.00    +0.038 A 
ATOM     30  C   UNL     1      10.701  13.260  25.209  0.00  0.00    +0.123 A 
ENDBRANCH  14  19
ENDBRANCH   4  14
TORSDOF 4
ENDMDL
MODEL 3
REMARK VINA RESULT:      -7.3      4.216      7.469
REMARK  Name = 7682267
REMARK  5 active torsions:
REMARK  status: ('A' for Active; 'I' for Inactive)
REMARK    1  A    between atoms: N_4  and  C_14
REMARK    2  A    between atoms: N_6  and  C_29
REMARK    3  A    between atoms: C_14  and  C_19
REMARK    4  A    between atoms: C_15  and  C_20
REMARK    5  A    between atoms: C_31  and  C_32
REMARK                            x       y       z     vdW  Elec       q    Type
REMARK                         _______ _______ _______ _____ _____    ______ ____
ROOT
ATOM      2  O   UNL     1      12.568  11.396  21.548  0.00  0.00    -0.268 OA
ATOM      4  N   UNL     1      14.395   7.559  18.941  0.00  0.00    -0.297 NA
ATOM      5  N   UNL     1      12.827  10.267  19.512  0.00  0.00    -0.311 N 
ATOM      7  C   UNL     1      11.925   7.890  19.163  0.00  0.00    +0.024 C 
ATOM      8  C   UNL     1      13.126   9.018  17.353  0.00  0.00    +0.051 C 
ATOM      9  C   UNL     1      11.821   8.308  17.706  0.00  0.00    +0.017 C 
ATOM     10  C   UNL     1      13.129   6.949  19.367  0.00  0.00    +0.090 C 
ATOM     11  C   UNL     1      14.311   8.044  17.556  0.00  0.00    +0.094 C 
ATOM     12  C   UNL     1      12.016   9.153  20.024  0.00  0.00    +0.130 C 
ATOM     13  C   UNL     1      13.314  10.286  18.191  0.00  0.00    +0.034 A 
ATOM     15  C   UNL     1      13.937  11.396  17.714  0.00  0.00    +0.002 A 
ATOM     16  C   UNL     1      12.985  11.354  20.391  0.00  0.00    +0.252 A 
ATOM     17  C   UNL     1      14.122  12.535  18.593  0.00  0.00    +0.015 A 
ATOM     18  C   UNL     1      13.697  12.537  19.857  0.00  0.00    +0.071 A 
ENDROOT
BRANCH  15  20
ATOM     20  C   UNL     1      14.445  11.469  16.327  0.00  0.00    -0.016 A 
ATOM     21  C   UNL     1      13.555  11.664  15.276  0.00  0.00    +0.010 A 
ATOM     22  C   UNL     1      15.808  11.340  16.084  0.00  0.00    +0.010 A 
ATOM     25  C   UNL     1      14.034  11.732  13.967  0.00  0.00    +0.024 A 
ATOM     26  C   UNL     1      16.288  11.408  14.775  0.00  0.00    +0.024 A 
ATOM     29  C   UNL     1      15.399  11.604  13.717  0.00  0.00    +0.033 A 
BRANCH  29   6
ATOM      3  O   UNL     1      15.998  13.988  11.978  0.00  0.00    -0.276 OA
ATOM      6  N   UNL     1      15.878  11.674  12.408  0.00  0.00    -0.286 N 
ATOM     31  C   UNL     1      16.139  12.817  11.642  0.00  0.00    +0.214 C 
ATOM     32  C   UNL     1      16.649  12.465  10.267  0.00  0.00    +0.109 C 
ATOM     33  H   UNL     1      16.058  10.776  11.963  0.00  0.00    +0.155 HD
ENDBRANCH  29   6
ENDBRANCH  15  20
BRANCH   4  14
ATOM     14  C   UNL     1      15.506   6.624  19.101  0.00  0.00    +0.119 C 
BRANCH  14  19
ATOM      1  F   UNL     1      19.522   8.688  22.447  0.00  0.00    -0.205 F 
ATOM     19  C   UNL     1      16.578   7.175  19.995  0.00  0.00    -0.033 A 
ATOM     23  C   UNL     1      17.769   6.477  20.151  0.00  0.00    +0.008 A 
ATOM     24  C   UNL     1      16.370   8.380  20.658  0.00  0.00    +0.008 A 
ATOM     27  C   UNL     1      18.767   6.990  20.981  0.00  0.00    +0.038 A 
ATOM     28  C   UNL     1      17.366   8.892  21.488  0.00  0.00    +0.038 A 
ATOM     30  C   UNL     1      18.564   8.197  21.650  0.00  0.00    +0.123 A 
ENDBRANCH  14  19
ENDBRANCH   4  14
TORSDOF 4
ENDMDL
MODEL 4
REMARK VINA RESULT:      -7.2     28.391     31.608
REMARK  Name = 7682267
REMARK  5 active torsions:
REMARK  status: ('A' for Active; 'I' for Inactive)
REMARK    1  A    between atoms: N_4  and  C_14
REMARK    2  A    between atoms: N_6  and  C_29
REMARK    3  A    between atoms: C_14  and  C_19
REMARK    4  A    between atoms: C_15  and  C_20
REMARK    5  A    between atoms: C_31  and  C_32
REMARK                            x       y       z     vdW  Elec       q    Type
REMARK                         _______ _______ _______ _____ _____    ______ ____
ROOT
ATOM      2  O   UNL     1     -11.297 -12.308  19.737  0.00  0.00    -0.268 OA
ATOM      4  N   UNL     1      -8.081 -10.288  16.506  0.00  0.00    -0.297 NA
ATOM      5  N   UNL     1     -10.866 -11.292  17.672  0.00  0.00    -0.311 N 
ATOM      7  C   UNL     1      -9.328 -12.379  15.928  0.00  0.00    +0.024 C 
ATOM      8  C   UNL     1     -10.355 -10.206  15.464  0.00  0.00    +0.051 C 
ATOM      9  C   UNL     1     -10.185 -11.625  14.926  0.00  0.00    +0.017 C 
ATOM     10  C   UNL     1      -7.958 -11.690  16.088  0.00  0.00    +0.090 C 
ATOM     11  C   UNL     1      -8.965  -9.540  15.601  0.00  0.00    +0.094 C 
ATOM     12  C   UNL     1     -10.096 -12.471  17.250  0.00  0.00    +0.130 C 
ATOM     13  C   UNL     1     -11.094 -10.204  16.806  0.00  0.00    +0.034 A 
ATOM     15  C   UNL     1     -11.928  -9.201  17.184  0.00  0.00    +0.002 A 
ATOM     16  C   UNL     1     -11.450 -11.376  18.948  0.00  0.00    +0.252 A 
ATOM     17  C   UNL     1     -12.545  -9.250  18.495  0.00  0.00    +0.015 A 
ATOM     18  C   UNL     1     -12.327 -10.252  19.348  0.00  0.00    +0.071 A 
ENDROOT
BRANCH  15  20
ATOM     20  C   UNL     1     -12.213  -8.050  16.299  0.00  0.00    -0.016 A 
ATOM     21  C   UNL     1     -11.386  -6.932  16.335  0.00  0.00    +0.010 A 
ATOM     22  C   UNL     1     -13.305  -8.094  15.440  0.00  0.00    +0.010 A 
ATOM     25  C   UNL     1     -11.655  -5.846  15.501  0.00  0.00    +0.024 A 
ATOM     26  C   UNL     1     -13.575  -7.009  14.606  0.00  0.00    +0.024 A 
ATOM     29  C   UNL     1     -12.749  -5.884  14.637  0.00  0.00    +0.033 A 
BRANCH  29   6
ATOM      3  O   UNL     1     -12.168  -5.476  11.711  0.00  0.00    -0.276 OA
ATOM      6  N   UNL     1     -13.017  -4.798  13.802  0.00  0.00    -0.286 N 
ATOM     31  C   UNL     1     -12.721  -4.660  12.440  0.00  0.00    +0.214 C 
ATOM     32  C   UNL     1     -13.177  -3.328  11.900  0.00  0.00    +0.109 C 
ATOM     33  H   UNL     1     -13.487  -4.013  14.249  0.00  0.00    +0.155 HD
ENDBRANCH  29   6
ENDBRANCH  15  20
BRANCH   4  14
ATOM     14  C   UNL     1      -6.769  -9.653  16.600  0.00  0.00    +0.119 C 
BRANCH  14  19
ATOM      1  F   UNL     1      -3.291 -12.505  19.970  0.00  0.00    -0.205 F 
ATOM     19  C   UNL     1      -5.840 -10.415  17.500  0.00  0.00    -0.033 A 
ATOM     23  C   UNL     1      -6.228 -10.703  18.803  0.00  0.00    +0.008 A 
ATOM     24  C   UNL     1      -4.602 -10.825  17.021  0.00  0.00    +0.008 A 
ATOM     27  C   UNL     1      -5.364 -11.411  19.640  0.00  0.00    +0.038 A 
ATOM     28  C   UNL     1      -3.738 -11.533  17.857  0.00  0.00    +0.038 A 
ATOM     30  C   UNL     1      -4.120 -11.826  19.166  0.00  0.00    +0.123 A 
ENDBRANCH  14  19
ENDBRANCH   4  14
TORSDOF 4
ENDMDL
MODEL 5
REMARK VINA RESULT:      -7.2      2.696      3.275
REMARK  Name = 7682267
REMARK  5 active torsions:
REMARK  status: ('A' for Active; 'I' for Inactive)
REMARK    1  A    between atoms: N_4  and  C_14
REMARK    2  A    between atoms: N_6  and  C_29
REMARK    3  A    between atoms: C_14  and  C_19
REMARK    4  A    between atoms: C_15  and  C_20
REMARK    5  A    between atoms: C_31  and  C_32
REMARK                            x       y       z     vdW  Elec       q    Type
REMARK                         _______ _______ _______ _____ _____    ______ ____
ROOT
ATOM      2  O   UNL     1      12.314   9.406  16.626  0.00  0.00    -0.268 OA
ATOM      4  N   UNL     1      11.862   8.575  21.521  0.00  0.00    -0.297 NA
ATOM      5  N   UNL     1      13.268   8.795  18.676  0.00  0.00    -0.311 N 
ATOM      7  C   UNL     1      12.482   6.718  19.963  0.00  0.00    +0.024 C 
ATOM      8  C   UNL     1      14.245   8.138  20.895  0.00  0.00    +0.051 C 
ATOM      9  C   UNL     1      13.903   6.703  20.502  0.00  0.00    +0.017 C 
ATOM     10  C   UNL     1      11.507   7.235  21.039  0.00  0.00    +0.090 C 
ATOM     11  C   UNL     1      13.256   8.621  21.983  0.00  0.00    +0.094 C 
ATOM     12  C   UNL     1      12.456   7.570  18.691  0.00  0.00    +0.130 C 
ATOM     13  C   UNL     1      14.216   9.071  19.681  0.00  0.00    +0.034 A 
ATOM     15  C   UNL     1      15.044  10.140  19.555  0.00  0.00    +0.002 A 
ATOM     16  C   UNL     1      13.115   9.608  17.539  0.00  0.00    +0.252 A 
ATOM     17  C   UNL     1      14.912  11.005  18.399  0.00  0.00    +0.015 A 
ATOM     18  C   UNL     1      14.007  10.786  17.445  0.00  0.00    +0.071 A 
ENDROOT
BRANCH  15  20
ATOM     20  C   UNL     1      16.068  10.456  20.575  0.00  0.00    -0.016 A 
ATOM     21  C   UNL     1      15.865  11.519  21.450  0.00  0.00    +0.010 A 
ATOM     22  C   UNL     1      17.226   9.690  20.650  0.00  0.00    +0.010 A 
ATOM     25  C   UNL     1      16.831  11.817  22.411  0.00  0.00    +0.024 A 
ATOM     26  C   UNL     1      18.193   9.988  21.611  0.00  0.00    +0.024 A 
ATOM     29  C   UNL     1      17.994  11.052  22.492  0.00  0.00    +0.033 A 
BRANCH  29   6
ATOM      3  O   UNL     1      20.408  12.846  22.351  0.00  0.00    -0.276 OA
ATOM      6  N   UNL     1      18.959  11.351  23.455  0.00  0.00    -0.286 N 
ATOM     31  C   UNL     1      20.070  12.197  23.334  0.00  0.00    +0.214 C 
ATOM     32  C   UNL     1      20.873  12.251  24.610  0.00  0.00    +0.109 C 
ATOM     33  H   UNL     1      18.831  10.891  24.355  0.00  0.00    +0.155 HD
ENDBRANCH  29   6
ENDBRANCH  15  20
BRANCH   4  14
ATOM     14  C   UNL     1      10.948   9.013  22.572  0.00  0.00    +0.119 C 
BRANCH  14  19
ATOM      1  F   UNL     1      11.186  14.568  23.389  0.00  0.00    -0.205 F 
ATOM     19  C   UNL     1      11.011  10.496  22.790  0.00  0.00    -0.033 A 
ATOM     23  C   UNL     1      11.237  11.341  21.711  0.00  0.00    +0.008 A 
ATOM     24  C   UNL     1      10.844  11.011  24.071  0.00  0.00    +0.008 A 
ATOM     27  C   UNL     1      11.296  12.720  21.913  0.00  0.00    +0.038 A 
ATOM     28  C   UNL     1      10.903  12.389  24.274  0.00  0.00    +0.038 A 
ATOM     30  C   UNL     1      11.129  13.244  23.195  0.00  0.00    +0.123 A 
ENDBRANCH  14  19
ENDBRANCH   4  14
TORSDOF 4
ENDMDL
MODEL 6
REMARK VINA RESULT:      -7.0     16.678     20.508
REMARK  Name = 7682267
REMARK  5 active torsions:
REMARK  status: ('A' for Active; 'I' for Inactive)
REMARK    1  A    between atoms: N_4  and  C_14
REMARK    2  A    between atoms: N_6  and  C_29
REMARK    3  A    between atoms: C_14  and  C_19
REMARK    4  A    between atoms: C_15  and  C_20
REMARK    5  A    between atoms: C_31  and  C_32
REMARK                            x       y       z     vdW  Elec       q    Type
REMARK                         _______ _______ _______ _____ _____    ______ ____
ROOT
ATOM      2  O   UNL     1      12.353   9.279  -1.109  0.00  0.00    -0.268 OA
ATOM      4  N   UNL     1      13.139   4.480  -0.007  0.00  0.00    -0.297 NA
ATOM      5  N   UNL     1      12.924   7.622   0.445  0.00  0.00    -0.311 N 
ATOM      7  C   UNL     1      15.001   6.145   0.140  0.00  0.00    +0.024 C 
ATOM      8  C   UNL     1      13.538   5.811   2.074  0.00  0.00    +0.051 C 
ATOM      9  C   UNL     1      14.984   6.073   1.658  0.00  0.00    +0.017 C 
ATOM     10  C   UNL     1      14.491   4.822  -0.466  0.00  0.00    +0.090 C 
ATOM     11  C   UNL     1      13.062   4.472   1.460  0.00  0.00    +0.094 C 
ATOM     12  C   UNL     1      14.164   7.351  -0.297  0.00  0.00    +0.130 C 
ATOM     13  C   UNL     1      12.620   6.961   1.651  0.00  0.00    +0.034 A 
ATOM     15  C   UNL     1      11.536   7.341   2.377  0.00  0.00    +0.002 A 
ATOM     16  C   UNL     1      12.127   8.659  -0.070  0.00  0.00    +0.252 A 
ATOM     17  C   UNL     1      10.687   8.405   1.875  0.00  0.00    +0.015 A 
ATOM     18  C   UNL     1      10.933   9.030   0.724  0.00  0.00    +0.071 A 
ENDROOT
BRANCH  15  20
ATOM     20  C   UNL     1      11.190   6.690   3.659  0.00  0.00    -0.016 A 
ATOM     21  C   UNL     1      11.816   7.100   4.832  0.00  0.00    +0.010 A 
ATOM     22  C   UNL     1      10.243   5.672   3.682  0.00  0.00    +0.010 A 
ATOM     25  C   UNL     1      11.490   6.486   6.041  0.00  0.00    +0.024 A 
ATOM     26  C   UNL     1       9.917   5.057   4.891  0.00  0.00    +0.024 A 
ATOM     29  C   UNL     1      10.541   5.465   6.071  0.00  0.00    +0.033 A 
BRANCH  29   6
ATOM      3  O   UNL     1       9.026   6.517   8.451  0.00  0.00    -0.276 OA
ATOM      6  N   UNL     1      10.214   4.851   7.281  0.00  0.00    -0.286 N 
ATOM     31  C   UNL     1       9.504   5.392   8.361  0.00  0.00    +0.214 C 
ATOM     32  C   UNL     1       9.361   4.400   9.489  0.00  0.00    +0.109 C 
ATOM     33  H   UNL     1      10.537   3.891   7.382  0.00  0.00    +0.155 HD
ENDBRANCH  29   6
ENDBRANCH  15  20
BRANCH   4  14
ATOM     14  C   UNL     1      12.707   3.200  -0.561  0.00  0.00    +0.119 C 
BRANCH  14  19
ATOM      1  F   UNL     1       8.616   3.826  -4.363  0.00  0.00    -0.205 F 
ATOM     19  C   UNL     1      11.615   3.367  -1.576  0.00  0.00    -0.033 A 
ATOM     23  C   UNL     1      10.873   4.541  -1.601  0.00  0.00    +0.008 A 
ATOM     24  C   UNL     1      11.356   2.345  -2.482  0.00  0.00    +0.008 A 
ATOM     27  C   UNL     1       9.857   4.697  -2.545  0.00  0.00    +0.038 A 
ATOM     28  C   UNL     1      10.341   2.500  -3.426  0.00  0.00    +0.038 A 
ATOM     30  C   UNL     1       9.592   3.676  -3.457  0.00  0.00    +0.123 A 
ENDBRANCH  14  19
ENDBRANCH   4  14
TORSDOF 4
ENDMDL
MODEL 7
REMARK VINA RESULT:      -6.9     14.669     19.058
REMARK  Name = 7682267
REMARK  5 active torsions:
REMARK  status: ('A' for Active; 'I' for Inactive)
REMARK    1  A    between atoms: N_4  and  C_14
REMARK    2  A    between atoms: N_6  and  C_29
REMARK    3  A    between atoms: C_14  and  C_19
REMARK    4  A    between atoms: C_15  and  C_20
REMARK    5  A    between atoms: C_31  and  C_32
REMARK                            x       y       z     vdW  Elec       q    Type
REMARK                         _______ _______ _______ _____ _____    ______ ____
ROOT
ATOM      2  O   UNL     1      12.916   9.752   6.257  0.00  0.00    -0.268 OA
ATOM      4  N   UNL     1       9.880   5.898   5.369  0.00  0.00    -0.297 NA
ATOM      5  N   UNL     1      10.757   8.848   6.173  0.00  0.00    -0.311 N 
ATOM      7  C   UNL     1      10.061   6.878   7.664  0.00  0.00    +0.024 C 
ATOM      8  C   UNL     1       8.461   7.834   6.076  0.00  0.00    +0.051 C 
ATOM      9  C   UNL     1       8.670   7.479   7.546  0.00  0.00    +0.017 C 
ATOM     10  C   UNL     1      10.177   5.620   6.779  0.00  0.00    +0.090 C 
ATOM     11  C   UNL     1       8.572   6.549   5.219  0.00  0.00    +0.094 C 
ATOM     12  C   UNL     1      11.086   7.953   7.292  0.00  0.00    +0.130 C 
ATOM     13  C   UNL     1       9.467   8.889   5.608  0.00  0.00    +0.034 A 
ATOM     15  C   UNL     1       9.166   9.828   4.674  0.00  0.00    +0.002 A 
ATOM     16  C   UNL     1      11.778   9.734   5.787  0.00  0.00    +0.252 A 
ATOM     17  C   UNL     1      10.196  10.756   4.247  0.00  0.00    +0.015 A 
ATOM     18  C   UNL     1      11.433  10.725   4.743  0.00  0.00    +0.071 A 
ENDROOT
BRANCH  15  20
ATOM     20  C   UNL     1       7.820   9.921   4.069  0.00  0.00    -0.016 A 
ATOM     21  C   UNL     1       6.803  10.584   4.749  0.00  0.00    +0.010 A 
ATOM     22  C   UNL     1       7.580   9.346   2.826  0.00  0.00    +0.010 A 
ATOM     25  C   UNL     1       5.532  10.671   4.179  0.00  0.00    +0.024 A 
ATOM     26  C   UNL     1       6.310   9.433   2.255  0.00  0.00    +0.024 A 
ATOM     29  C   UNL     1       5.286  10.096   2.933  0.00  0.00    +0.033 A 
BRANCH  29   6
ATOM      3  O   UNL     1       4.210  11.972   0.838  0.00  0.00    -0.276 OA
ATOM      6  N   UNL     1       4.016  10.185   2.362  0.00  0.00    -0.286 N 
ATOM     31  C   UNL     1       3.566  11.084   1.387  0.00  0.00    +0.214 C 
ATOM     32  C   UNL     1       2.118  10.851   1.035  0.00  0.00    +0.109 C 
ATOM     33  H   UNL     1       3.338   9.506   2.704  0.00  0.00    +0.155 HD
ENDBRANCH  29   6
ENDBRANCH  15  20
BRANCH   4  14
ATOM     14  C   UNL     1       9.952   4.678   4.569  0.00  0.00    +0.119 C 
BRANCH  14  19
ATOM      1  F   UNL     1      13.856   5.030   0.541  0.00  0.00    -0.205 F 
ATOM     19  C   UNL     1      10.994   4.772   3.494  0.00  0.00    -0.033 A 
ATOM     23  C   UNL     1      11.695   5.959   3.317  0.00  0.00    +0.008 A 
ATOM     24  C   UNL     1      11.249   3.670   2.684  0.00  0.00    +0.008 A 
ATOM     27  C   UNL     1      12.665   6.046   2.317  0.00  0.00    +0.038 A 
ATOM     28  C   UNL     1      12.218   3.757   1.685  0.00  0.00    +0.038 A 
ATOM     30  C   UNL     1      12.925   4.946   1.502  0.00  0.00    +0.123 A 
ENDBRANCH  14  19
ENDBRANCH   4  14
TORSDOF 4
ENDMDL
MODEL 8
REMARK VINA RESULT:      -6.9     26.649     29.902
REMARK  Name = 7682267
REMARK  5 active torsions:
REMARK  status: ('A' for Active; 'I' for Inactive)
REMARK    1  A    between atoms: N_4  and  C_14
REMARK    2  A    between atoms: N_6  and  C_29
REMARK    3  A    between atoms: C_14  and  C_19
REMARK    4  A    between atoms: C_15  and  C_20
REMARK    5  A    between atoms: C_31  and  C_32
REMARK                            x       y       z     vdW  Elec       q    Type
REMARK                         _______ _______ _______ _____ _____    ______ ____
ROOT
ATOM      2  O   UNL     1      -0.823 -11.969  14.369  0.00  0.00    -0.268 OA
ATOM      4  N   UNL     1      -5.502 -12.774  12.847  0.00  0.00    -0.297 NA
ATOM      5  N   UNL     1      -3.024 -12.619  14.835  0.00  0.00    -0.311 N 
ATOM      7  C   UNL     1      -4.097 -14.658  13.705  0.00  0.00    +0.024 C 
ATOM      8  C   UNL     1      -5.395 -13.315  15.287  0.00  0.00    +0.051 C 
ATOM      9  C   UNL     1      -4.927 -14.735  14.975  0.00  0.00    +0.017 C 
ATOM     10  C   UNL     1      -4.945 -14.098  12.545  0.00  0.00    +0.090 C 
ATOM     11  C   UNL     1      -6.252 -12.788  14.110  0.00  0.00    +0.094 C 
ATOM     12  C   UNL     1      -2.856 -13.808  13.987  0.00  0.00    +0.130 C 
ATOM     13  C   UNL     1      -4.210 -12.384  15.558  0.00  0.00    +0.034 A 
ATOM     15  C   UNL     1      -4.273 -11.352  16.439  0.00  0.00    +0.002 A 
ATOM     16  C   UNL     1      -1.888 -11.802  14.963  0.00  0.00    +0.252 A 
ATOM     17  C   UNL     1      -3.122 -10.484  16.595  0.00  0.00    +0.015 A 
ATOM     18  C   UNL     1      -1.995 -10.664  15.905  0.00  0.00    +0.071 A 
ENDROOT
BRANCH  15  20
ATOM     20  C   UNL     1      -5.490 -11.080  17.234  0.00  0.00    -0.016 A 
ATOM     21  C   UNL     1      -5.708 -11.774  18.421  0.00  0.00    +0.010 A 
ATOM     22  C   UNL     1      -6.408 -10.135  16.790  0.00  0.00    +0.010 A 
ATOM     25  C   UNL     1      -6.856 -11.518  19.171  0.00  0.00    +0.024 A 
ATOM     26  C   UNL     1      -7.557  -9.878  17.540  0.00  0.00    +0.024 A 
ATOM     29  C   UNL     1      -7.780 -10.571  18.731  0.00  0.00    +0.033 A 
BRANCH  29   6
ATOM      3  O   UNL     1     -10.674 -11.161  18.145  0.00  0.00    -0.276 OA
ATOM      6  N   UNL     1      -8.928 -10.314  19.482  0.00  0.00    -0.286 N 
ATOM     31  C   UNL     1     -10.258 -10.611  19.158  0.00  0.00    +0.214 C 
ATOM     32  C   UNL     1     -11.209 -10.170  20.243  0.00  0.00    +0.109 C 
ATOM     33  H   UNL     1      -8.767  -9.855  20.377  0.00  0.00    +0.155 HD
ENDBRANCH  29   6
ENDBRANCH  15  20
BRANCH   4  14
ATOM     14  C   UNL     1      -6.338 -12.295  11.748  0.00  0.00    +0.119 C 
BRANCH  14  19
ATOM      1  F   UNL     1      -3.707  -8.422   8.639  0.00  0.00    -0.205 F 
ATOM     19  C   UNL     1      -5.635 -11.261  10.918  0.00  0.00    -0.033 A 
ATOM     23  C   UNL     1      -5.507  -9.964  11.400  0.00  0.00    +0.008 A 
ATOM     24  C   UNL     1      -5.120 -11.611   9.675  0.00  0.00    +0.008 A 
ATOM     27  C   UNL     1      -4.853  -9.002  10.628  0.00  0.00    +0.038 A 
ATOM     28  C   UNL     1      -4.467 -10.650   8.904  0.00  0.00    +0.038 A 
ATOM     30  C   UNL     1      -4.334  -9.346   9.380  0.00  0.00    +0.123 A 
ENDBRANCH  14  19
ENDBRANCH   4  14
TORSDOF 4
ENDMDL
MODEL 9
REMARK VINA RESULT:      -6.8     14.803     18.242
REMARK  Name = 7682267
REMARK  5 active torsions:
REMARK  status: ('A' for Active; 'I' for Inactive)
REMARK    1  A    between atoms: N_4  and  C_14
REMARK    2  A    between atoms: N_6  and  C_29
REMARK    3  A    between atoms: C_14  and  C_19
REMARK    4  A    between atoms: C_15  and  C_20
REMARK    5  A    between atoms: C_31  and  C_32
REMARK                            x       y       z     vdW  Elec       q    Type
REMARK                         _______ _______ _______ _____ _____    ______ ____
ROOT
ATOM      2  O   UNL     1      10.533   6.285   8.208  0.00  0.00    -0.268 OA
ATOM      4  N   UNL     1      11.423   9.329   4.360  0.00  0.00    -0.297 NA
ATOM      5  N   UNL     1      11.502   6.674   6.112  0.00  0.00    -0.311 N 
ATOM      7  C   UNL     1      13.303   8.471   5.771  0.00  0.00    +0.024 C 
ATOM      8  C   UNL     1      12.530   7.140   3.867  0.00  0.00    +0.051 C 
ATOM      9  C   UNL     1      13.774   7.567   4.643  0.00  0.00    +0.017 C 
ATOM     10  C   UNL     1      12.568   9.700   5.201  0.00  0.00    +0.090 C 
ATOM     11  C   UNL     1      11.823   8.394   3.300  0.00  0.00    +0.094 C 
ATOM     12  C   UNL     1      12.423   7.648   6.715  0.00  0.00    +0.130 C 
ATOM     13  C   UNL     1      11.575   6.329   4.748  0.00  0.00    +0.034 A 
ATOM     15  C   UNL     1      10.802   5.323   4.262  0.00  0.00    +0.002 A 
ATOM     16  C   UNL     1      10.627   6.034   7.007  0.00  0.00    +0.252 A 
ATOM     17  C   UNL     1       9.883   4.643   5.154  0.00  0.00    +0.015 A 
ATOM     18  C   UNL     1       9.772   4.965   6.444  0.00  0.00    +0.071 A 
ENDROOT
BRANCH  15  20
ATOM     20  C   UNL     1      10.860   4.913   2.842  0.00  0.00    -0.016 A 
ATOM     21  C   UNL     1      11.801   3.973   2.434  0.00  0.00    +0.010 A 
ATOM     22  C   UNL     1       9.975   5.470   1.926  0.00  0.00    +0.010 A 
ATOM     25  C   UNL     1      11.857   3.586   1.095  0.00  0.00    +0.024 A 
ATOM     26  C   UNL     1      10.030   5.083   0.586  0.00  0.00    +0.024 A 
ATOM     29  C   UNL     1      10.972   4.141   0.171  0.00  0.00    +0.033 A 
BRANCH  29   6
ATOM      3  O   UNL     1      12.935   4.861  -1.995  0.00  0.00    -0.276 OA
ATOM      6  N   UNL     1      11.027   3.753  -1.168  0.00  0.00    -0.286 N 
ATOM     31  C   UNL     1      11.968   4.122  -2.138  0.00  0.00    +0.214 C 
ATOM     32  C   UNL     1      11.676   3.483  -3.473  0.00  0.00    +0.109 C 
ATOM     33  H   UNL     1      10.286   3.121  -1.468  0.00  0.00    +0.155 HD
ENDBRANCH  29   6
ENDBRANCH  15  20
BRANCH   4  14
ATOM     14  C   UNL     1      10.780  10.514   3.799  0.00  0.00    +0.119 C 
BRANCH  14  19
ATOM      1  F   UNL     1       5.209  10.432   4.537  0.00  0.00    -0.205 F 
ATOM     19  C   UNL     1       9.292  10.492   3.996  0.00  0.00    -0.033 A 
ATOM     23  C   UNL     1       8.551   9.415   3.524  0.00  0.00    +0.008 A 
ATOM     24  C   UNL     1       8.669  11.549   4.649  0.00  0.00    +0.008 A 
ATOM     27  C   UNL     1       7.169   9.394   3.708  0.00  0.00    +0.038 A 
ATOM     28  C   UNL     1       7.287  11.529   4.833  0.00  0.00    +0.038 A 
ATOM     30  C   UNL     1       6.537  10.451   4.362  0.00  0.00    +0.123 A 
ENDBRANCH  14  19
ENDBRANCH   4  14
TORSDOF 4
ENDMDL
MODEL 10
REMARK VINA RESULT:      -6.8     27.550     30.144
REMARK  Name = 7682267
REMARK  5 active torsions:
REMARK  status: ('A' for Active; 'I' for Inactive)
REMARK    1  A    between atoms: N_4  and  C_14
REMARK    2  A    between atoms: N_6  and  C_29
REMARK    3  A    between atoms: C_14  and  C_19
REMARK    4  A    between atoms: C_15  and  C_20
REMARK    5  A    between atoms: C_31  and  C_32
REMARK                            x       y       z     vdW  Elec       q    Type
REMARK                         _______ _______ _______ _____ _____    ______ ____
ROOT
ATOM      2  O   UNL     1      -2.352 -15.045  12.134  0.00  0.00    -0.268 OA
ATOM      4  N   UNL     1      -4.455 -10.712  13.424  0.00  0.00    -0.297 NA
ATOM      5  N   UNL     1      -2.980 -12.855  11.593  0.00  0.00    -0.311 N 
ATOM      7  C   UNL     1      -2.024 -10.828  12.844  0.00  0.00    +0.024 C 
ATOM      8  C   UNL     1      -3.667 -10.498  11.059  0.00  0.00    +0.051 C 
ATOM      9  C   UNL     1      -2.273 -10.096  11.536  0.00  0.00    +0.017 C 
ATOM     10  C   UNL     1      -3.089 -10.437  13.888  0.00  0.00    +0.090 C 
ATOM     11  C   UNL     1      -4.712 -10.081  12.123  0.00  0.00    +0.094 C 
ATOM     12  C   UNL     1      -2.005 -12.332  12.561  0.00  0.00    +0.130 C 
ATOM     13  C   UNL     1      -3.747 -12.000  10.777  0.00  0.00    +0.034 A 
ATOM     15  C   UNL     1      -4.531 -12.523   9.798  0.00  0.00    +0.002 A 
ATOM     16  C   UNL     1      -3.010 -14.254  11.459  0.00  0.00    +0.252 A 
ATOM     17  C   UNL     1      -4.592 -13.962   9.633  0.00  0.00    +0.015 A 
ATOM     18  C   UNL     1      -3.899 -14.798  10.408  0.00  0.00    +0.071 A 
ENDROOT
BRANCH  15  20
ATOM     20  C   UNL     1      -5.338 -11.663   8.904  0.00  0.00    -0.016 A 
ATOM     21  C   UNL     1      -4.745 -11.082   7.788  0.00  0.00    +0.010 A 
ATOM     22  C   UNL     1      -6.681 -11.442   9.186  0.00  0.00    +0.010 A 
ATOM     25  C   UNL     1      -5.505 -10.271   6.944  0.00  0.00    +0.024 A 
ATOM     26  C   UNL     1      -7.442 -10.631   8.343  0.00  0.00    +0.024 A 
ATOM     29  C   UNL     1      -6.852 -10.045   7.222  0.00  0.00    +0.033 A 
BRANCH  29   6
ATOM      3  O   UNL     1      -7.838  -7.223   7.585  0.00  0.00    -0.276 OA
ATOM      6  N   UNL     1      -7.612  -9.235   6.378  0.00  0.00    -0.286 N 
ATOM     31  C   UNL     1      -8.047  -7.921   6.599  0.00  0.00    +0.214 C 
ATOM     32  C   UNL     1      -8.849  -7.394   5.435  0.00  0.00    +0.109 C 
ATOM     33  H   UNL     1      -7.879  -9.661   5.492  0.00  0.00    +0.155 HD
ENDBRANCH  29   6
ENDBRANCH  15  20
BRANCH   4  14
ATOM     14  C   UNL     1      -5.439 -10.286  14.416  0.00  0.00    +0.119 C 
BRANCH  14  19
ATOM      1  F   UNL     1      -4.619 -12.764  19.393  0.00  0.00    -0.205 F 
ATOM     19  C   UNL     1      -5.220 -10.948  15.745  0.00  0.00    -0.033 A 
ATOM     23  C   UNL     1      -5.209 -12.334  15.829  0.00  0.00    +0.008 A 
ATOM     24  C   UNL     1      -5.030 -10.167  16.879  0.00  0.00    +0.008 A 
ATOM     27  C   UNL     1      -5.006 -12.950  17.064  0.00  0.00    +0.038 A 
ATOM     28  C   UNL     1      -4.826 -10.781  18.114  0.00  0.00    +0.038 A 
ATOM     30  C   UNL     1      -4.814 -12.173  18.207  0.00  0.00    +0.123 A 
ENDBRANCH  14  19
ENDBRANCH   4  14
TORSDOF 4
ENDMDL
