REMARK  Name = 51137597
REMARK  7 active torsions:
REMARK  status: ('A' for Active; 'I' for Inactive)
REMARK    1  A    between atoms: O_4  and  C_19
REMARK    2  A    between atoms: O_4  and  C_21
REMARK    3  A    between atoms: N_5  and  C_12
REMARK    4  A    between atoms: C_8  and  C_13
REMARK    5  A    between atoms: C_12  and  C_14
REMARK    6  A    between atoms: C_16  and  C_19
REMARK    7  A    between atoms: C_17  and  C_20
REMARK                            x       y       z     vdW  Elec       q    Type
REMARK                         _______ _______ _______ _____ _____    ______ ____
ROOT
ATOM      2  O   UNL     1       1.120  -0.191   0.390  0.00  0.00    -0.421 OA
ATOM      6  N   UNL     1       0.092  -1.760  -0.829  0.00  0.00    -0.112 NA
ATOM      7  N   UNL     1       1.435  -2.080  -0.766  0.00  0.00    -0.109 NA
ATOM     13  C   UNL     1      -0.046  -0.651  -0.140  0.00  0.00    +0.222 A 
ATOM     16  C   UNL     1       1.996  -1.137  -0.045  0.00  0.00    +0.254 A 
ENDROOT
BRANCH  13   8
ATOM      5  N   UNL     1      -3.610  -0.013   0.422  0.00  0.00    -0.294 NA
ATOM      8  C   UNL     1      -1.289   0.163   0.137  0.00  0.00    +0.092 C 
ATOM      9  C   UNL     1      -2.003   0.698  -1.116  0.00  0.00    +0.029 C 
ATOM     10  C   UNL     1      -2.366  -0.628   0.890  0.00  0.00    +0.097 C 
ATOM     11  C   UNL     1      -3.426   0.162  -1.019  0.00  0.00    +0.085 C 
BRANCH   5  12
ATOM     12  C   UNL     1      -4.781  -0.817   0.738  0.00  0.00    +0.158 C 
BRANCH  12  14
ATOM      3  O   UNL     1      -6.822  -0.208  -0.440  0.00  0.00    -0.464 OA
ATOM     14  C   UNL     1      -6.051  -0.012   0.661  0.00  0.00    +0.119 A 
ATOM     15  C   UNL     1      -6.628   0.918   1.495  0.00  0.00    +0.046 A 
ATOM     17  C   UNL     1      -7.903   0.605  -0.308  0.00  0.00    +0.102 A 
ATOM     18  C   UNL     1      -7.830   1.319   0.865  0.00  0.00    +0.044 A 
ATOM     20  C   UNL     1      -8.888   0.560  -1.399  0.00  0.00    +0.086 C 
ENDBRANCH  12  14
ENDBRANCH   5  12
ENDBRANCH  13   8
BRANCH  16  19
ATOM     19  C   UNL     1       3.401  -0.971   0.347  0.00  0.00    +0.326 C 
BRANCH  19   4
ATOM      4  O   UNL     1       4.013   0.066  -0.425  0.00  0.00    -0.483 OA
BRANCH   4  21
ATOM      1  F   UNL     1       9.367   0.942   0.451  0.00  0.00    -0.205 F 
ATOM     21  C   UNL     1       5.344   0.284  -0.207  0.00  0.00    +0.121 A 
ATOM     22  C   UNL     1       6.033  -0.488   0.729  0.00  0.00    +0.048 A 
ATOM     23  C   UNL     1       6.014   1.277  -0.921  0.00  0.00    +0.048 A 
ATOM     24  C   UNL     1       7.392  -0.265   0.951  0.00  0.00    +0.042 A 
ATOM     25  C   UNL     1       7.373   1.499  -0.699  0.00  0.00    +0.042 A 
ATOM     26  C   UNL     1       8.062   0.728   0.238  0.00  0.00    +0.124 A 
ENDBRANCH   4  21
ENDBRANCH  19   4
ENDBRANCH  16  19
TORSDOF 6
