MODEL 1
REMARK VINA RESULT:      -7.8      0.000      0.000
REMARK  Name = 75536649
REMARK  7 active torsions:
REMARK  status: ('A' for Active; 'I' for Inactive)
REMARK    1  A    between atoms: O_4  and  C_9
REMARK    2  A    between atoms: N_6  and  C_8
REMARK    3  A    between atoms: N_6  and  C_13
REMARK    4  A    between atoms: N_7  and  C_12
REMARK    5  A    between atoms: C_10  and  C_12
REMARK    6  A    between atoms: C_13  and  C_14
REMARK    7  A    between atoms: C_15  and  C_18
REMARK                            x       y       z     vdW  Elec       q    Type
REMARK                         _______ _______ _______ _____ _____    ______ ____
ROOT
ATOM      3  O   UNL     1      12.907   6.594  20.534  0.00  0.00    -0.371 OA
ATOM      8  C   UNL     1      10.905   7.758  21.058  0.00  0.00    +0.111 C 
ATOM      9  C   UNL     1      11.483   8.323  19.775  0.00  0.00    +0.164 C 
ATOM     10  C   UNL     1      12.383   7.178  19.330  0.00  0.00    +0.165 C 
ATOM     11  C   UNL     1      12.113   7.044  21.644  0.00  0.00    +0.181 C 
ENDROOT
BRANCH   9   4
ATOM      4  O   UNL     1      10.490   8.619  18.812  0.00  0.00    -0.388 OA
ATOM     28  H   UNL     1      10.799   9.370  18.276  0.00  0.00    +0.210 HD
ENDBRANCH   9   4
BRANCH   8   6
ATOM      6  N   UNL     1      10.360   8.771  21.948  0.00  0.00    -0.305 NA
ATOM     27  H   UNL     1       9.697   8.331  22.587  0.00  0.00    +0.123 HD
BRANCH   6  13
ATOM     13  C   UNL     1      11.415   9.407  22.727  0.00  0.00    +0.119 C 
BRANCH  13  14
ATOM      1  F   UNL     1      10.917  10.573  25.262  0.00  0.00    -0.205 F 
ATOM     14  C   UNL     1      11.159  10.879  22.920  0.00  0.00    +0.002 A 
ATOM     16  C   UNL     1      10.922  11.387  24.197  0.00  0.00    +0.128 A 
ATOM     17  C   UNL     1      11.160  11.734  21.818  0.00  0.00    +0.008 A 
ATOM     19  C   UNL     1      10.684  12.751  24.372  0.00  0.00    +0.038 A 
ATOM     20  C   UNL     1      10.922  13.097  21.994  0.00  0.00    +0.000 A 
ATOM     21  C   UNL     1      10.683  13.605  23.270  0.00  0.00    +0.003 A 
ENDBRANCH  13  14
ENDBRANCH   6  13
ENDBRANCH   8   6
BRANCH  10  12
ATOM     12  C   UNL     1      13.526   7.625  18.435  0.00  0.00    +0.138 C 
BRANCH  12   7
ATOM      5  O   UNL     1      15.255   9.219  20.081  0.00  0.00    -0.270 OA
ATOM      7  N   UNL     1      14.795   7.232  18.975  0.00  0.00    -0.309 N 
ATOM     15  C   UNL     1      15.569   8.074  19.767  0.00  0.00    +0.244 C 
ATOM     29  H   UNL     1      15.146   6.322  18.696  0.00  0.00    +0.149 HD
BRANCH  15  18
ATOM      2  F   UNL     1      20.491   6.008  21.510  0.00  0.00    -0.205 F 
ATOM     18  C   UNL     1      16.872   7.526  20.229  0.00  0.00    +0.037 A 
ATOM     22  C   UNL     1      17.374   6.354  19.665  0.00  0.00    +0.016 A 
ATOM     23  C   UNL     1      17.590   8.186  21.225  0.00  0.00    +0.016 A 
ATOM     24  C   UNL     1      18.596   5.841  20.098  0.00  0.00    +0.039 A 
ATOM     25  C   UNL     1      18.814   7.672  21.658  0.00  0.00    +0.039 A 
ATOM     26  C   UNL     1      19.316   6.500  21.095  0.00  0.00    +0.123 A 
ENDBRANCH  15  18
ENDBRANCH  12   7
ENDBRANCH  10  12
TORSDOF 7
ENDMDL
MODEL 2
REMARK VINA RESULT:      -7.2      1.940      8.144
REMARK  Name = 75536649
REMARK  7 active torsions:
REMARK  status: ('A' for Active; 'I' for Inactive)
REMARK    1  A    between atoms: O_4  and  C_9
REMARK    2  A    between atoms: N_6  and  C_8
REMARK    3  A    between atoms: N_6  and  C_13
REMARK    4  A    between atoms: N_7  and  C_12
REMARK    5  A    between atoms: C_10  and  C_12
REMARK    6  A    between atoms: C_13  and  C_14
REMARK    7  A    between atoms: C_15  and  C_18
REMARK                            x       y       z     vdW  Elec       q    Type
REMARK                         _______ _______ _______ _____ _____    ______ ____
ROOT
ATOM      3  O   UNL     1      11.893   8.230  19.108  0.00  0.00    -0.371 OA
ATOM      8  C   UNL     1      13.321   6.863  20.424  0.00  0.00    +0.111 C 
ATOM      9  C   UNL     1      13.318   8.269  20.996  0.00  0.00    +0.164 C 
ATOM     10  C   UNL     1      12.023   8.819  20.413  0.00  0.00    +0.165 C 
ATOM     11  C   UNL     1      12.787   7.107  19.022  0.00  0.00    +0.181 C 
ENDROOT
BRANCH   9   4
ATOM      4  O   UNL     1      13.308   8.283  22.410  0.00  0.00    -0.388 OA
ATOM     28  H   UNL     1      13.742   7.472  22.727  0.00  0.00    +0.210 HD
ENDBRANCH   9   4
BRANCH   8   6
ATOM      6  N   UNL     1      14.633   6.235  20.429  0.00  0.00    -0.305 NA
ATOM     27  H   UNL     1      14.547   5.285  20.068  0.00  0.00    +0.123 HD
BRANCH   6  13
ATOM     13  C   UNL     1      15.571   6.975  19.593  0.00  0.00    +0.119 C 
BRANCH  13  14
ATOM      1  F   UNL     1      17.702   5.246  18.886  0.00  0.00    -0.205 F 
ATOM     14  C   UNL     1      16.938   7.054  20.222  0.00  0.00    +0.002 A 
ATOM     16  C   UNL     1      17.943   6.171  19.825  0.00  0.00    +0.128 A 
ATOM     17  C   UNL     1      17.197   8.011  21.202  0.00  0.00    +0.008 A 
ATOM     19  C   UNL     1      19.207   6.246  20.410  0.00  0.00    +0.038 A 
ATOM     20  C   UNL     1      18.461   8.086  21.786  0.00  0.00    +0.000 A 
ATOM     21  C   UNL     1      19.466   7.204  21.391  0.00  0.00    +0.003 A 
ENDBRANCH  13  14
ENDBRANCH   6  13
ENDBRANCH   8   6
BRANCH  10  12
ATOM     12  C   UNL     1      12.012  10.333  20.297  0.00  0.00    +0.138 C 
BRANCH  12   7
ATOM      5  O   UNL     1      11.541  13.127  20.758  0.00  0.00    -0.270 OA
ATOM      7  N   UNL     1      11.662  10.948  21.545  0.00  0.00    -0.309 N 
ATOM     15  C   UNL     1      11.451  12.317  21.676  0.00  0.00    +0.244 C 
ATOM     29  H   UNL     1      11.640  10.344  22.359  0.00  0.00    +0.149 HD
BRANCH  15  18
ATOM      2  F   UNL     1      10.198  14.152  26.833  0.00  0.00    -0.205 F 
ATOM     18  C   UNL     1      11.119  12.802  23.041  0.00  0.00    +0.037 A 
ATOM     22  C   UNL     1      11.214  11.938  24.131  0.00  0.00    +0.016 A 
ATOM     23  C   UNL     1      10.713  14.123  23.231  0.00  0.00    +0.016 A 
ATOM     24  C   UNL     1      10.903  12.392  25.411  0.00  0.00    +0.039 A 
ATOM     25  C   UNL     1      10.401  14.578  24.513  0.00  0.00    +0.039 A 
ATOM     26  C   UNL     1      10.497  13.714  25.603  0.00  0.00    +0.123 A 
ENDBRANCH  15  18
ENDBRANCH  12   7
ENDBRANCH  10  12
TORSDOF 7
ENDMDL
MODEL 3
REMARK VINA RESULT:      -7.1     27.202     30.311
REMARK  Name = 75536649
REMARK  7 active torsions:
REMARK  status: ('A' for Active; 'I' for Inactive)
REMARK    1  A    between atoms: O_4  and  C_9
REMARK    2  A    between atoms: N_6  and  C_8
REMARK    3  A    between atoms: N_6  and  C_13
REMARK    4  A    between atoms: N_7  and  C_12
REMARK    5  A    between atoms: C_10  and  C_12
REMARK    6  A    between atoms: C_13  and  C_14
REMARK    7  A    between atoms: C_15  and  C_18
REMARK                            x       y       z     vdW  Elec       q    Type
REMARK                         _______ _______ _______ _____ _____    ______ ____
ROOT
ATOM      3  O   UNL     1     -17.661   3.693  26.124  0.00  0.00    -0.371 OA
ATOM      8  C   UNL     1     -16.505   4.759  24.345  0.00  0.00    +0.111 C 
ATOM      9  C   UNL     1     -16.170   3.279  24.335  0.00  0.00    +0.164 C 
ATOM     10  C   UNL     1     -17.340   2.710  25.126  0.00  0.00    +0.165 C 
ATOM     11  C   UNL     1     -17.042   4.937  25.756  0.00  0.00    +0.181 C 
ENDROOT
BRANCH   9   4
ATOM      4  O   UNL     1     -16.106   2.743  23.028  0.00  0.00    -0.388 OA
ATOM     28  H   UNL     1     -15.658   1.880  23.074  0.00  0.00    +0.210 HD
ENDBRANCH   9   4
BRANCH   8   6
ATOM      6  N   UNL     1     -15.365   5.617  24.061  0.00  0.00    -0.305 NA
ATOM     27  H   UNL     1     -14.551   5.034  23.865  0.00  0.00    +0.123 HD
BRANCH   6  13
ATOM     13  C   UNL     1     -15.624   6.468  22.906  0.00  0.00    +0.119 C 
BRANCH  13  14
ATOM      1  F   UNL     1     -13.755   4.589  21.904  0.00  0.00    -0.205 F 
ATOM     14  C   UNL     1     -14.351   6.867  22.207  0.00  0.00    +0.002 A 
ATOM     16  C   UNL     1     -13.475   5.889  21.737  0.00  0.00    +0.128 A 
ATOM     17  C   UNL     1     -14.049   8.217  22.031  0.00  0.00    +0.008 A 
ATOM     19  C   UNL     1     -12.295   6.261  21.091  0.00  0.00    +0.038 A 
ATOM     20  C   UNL     1     -12.870   8.589  21.386  0.00  0.00    +0.000 A 
ATOM     21  C   UNL     1     -11.993   7.612  20.917  0.00  0.00    +0.003 A 
ENDBRANCH  13  14
ENDBRANCH   6  13
ENDBRANCH   8   6
BRANCH  10  12
ATOM     12  C   UNL     1     -17.023   1.383  25.795  0.00  0.00    +0.138 C 
BRANCH  12   7
ATOM      5  O   UNL     1     -17.574   0.277  28.386  0.00  0.00    -0.270 OA
ATOM      7  N   UNL     1     -16.251   1.572  26.989  0.00  0.00    -0.309 N 
ATOM     15  C   UNL     1     -16.594   0.994  28.206  0.00  0.00    +0.244 C 
ATOM     29  H   UNL     1     -15.467   2.212  26.925  0.00  0.00    +0.149 HD
BRANCH  15  18
ATOM      2  F   UNL     1     -13.234   2.180  32.546  0.00  0.00    -0.205 F 
ATOM     18  C   UNL     1     -15.705   1.308  29.356  0.00  0.00    +0.037 A 
ATOM     22  C   UNL     1     -15.576   0.400  30.405  0.00  0.00    +0.016 A 
ATOM     23  C   UNL     1     -15.001   2.511  29.383  0.00  0.00    +0.016 A 
ATOM     24  C   UNL     1     -14.742   0.694  31.483  0.00  0.00    +0.039 A 
ATOM     25  C   UNL     1     -14.166   2.806  30.462  0.00  0.00    +0.039 A 
ATOM     26  C   UNL     1     -14.037   1.897  31.511  0.00  0.00    +0.123 A 
ENDBRANCH  15  18
ENDBRANCH  12   7
ENDBRANCH  10  12
TORSDOF 7
ENDMDL
MODEL 4
REMARK VINA RESULT:      -7.1      2.176      7.265
REMARK  Name = 75536649
REMARK  7 active torsions:
REMARK  status: ('A' for Active; 'I' for Inactive)
REMARK    1  A    between atoms: O_4  and  C_9
REMARK    2  A    between atoms: N_6  and  C_8
REMARK    3  A    between atoms: N_6  and  C_13
REMARK    4  A    between atoms: N_7  and  C_12
REMARK    5  A    between atoms: C_10  and  C_12
REMARK    6  A    between atoms: C_13  and  C_14
REMARK    7  A    between atoms: C_15  and  C_18
REMARK                            x       y       z     vdW  Elec       q    Type
REMARK                         _______ _______ _______ _____ _____    ______ ____
ROOT
ATOM      3  O   UNL     1      11.616   6.922  19.831  0.00  0.00    -0.371 OA
ATOM      8  C   UNL     1      13.988   6.816  19.870  0.00  0.00    +0.111 C 
ATOM      9  C   UNL     1      13.506   7.570  21.096  0.00  0.00    +0.164 C 
ATOM     10  C   UNL     1      12.064   7.090  21.187  0.00  0.00    +0.165 C 
ATOM     11  C   UNL     1      12.766   6.895  18.969  0.00  0.00    +0.181 C 
ENDROOT
BRANCH   9   4
ATOM      4  O   UNL     1      14.244   7.248  22.259  0.00  0.00    -0.388 OA
ATOM     28  H   UNL     1      13.628   7.212  23.011  0.00  0.00    +0.210 HD
ENDBRANCH   9   4
BRANCH   8   6
ATOM      6  N   UNL     1      15.177   7.391  19.262  0.00  0.00    -0.305 NA
ATOM     27  H   UNL     1      15.500   8.171  19.835  0.00  0.00    +0.123 HD
BRANCH   6  13
ATOM     13  C   UNL     1      16.245   6.403  19.163  0.00  0.00    +0.119 C 
BRANCH  13  14
ATOM      1  F   UNL     1      18.576   4.802  19.352  0.00  0.00    -0.205 F 
ATOM     14  C   UNL     1      17.413   6.752  20.049  0.00  0.00    +0.002 A 
ATOM     16  C   UNL     1      18.531   5.919  20.093  0.00  0.00    +0.128 A 
ATOM     17  C   UNL     1      17.375   7.910  20.825  0.00  0.00    +0.008 A 
ATOM     19  C   UNL     1      19.611   6.243  20.915  0.00  0.00    +0.038 A 
ATOM     20  C   UNL     1      18.454   8.234  21.646  0.00  0.00    +0.000 A 
ATOM     21  C   UNL     1      19.571   7.401  21.692  0.00  0.00    +0.003 A 
ENDBRANCH  13  14
ENDBRANCH   6  13
ENDBRANCH   8   6
BRANCH  10  12
ATOM     12  C   UNL     1      11.152   8.064  21.913  0.00  0.00    +0.138 C 
BRANCH  12   7
ATOM      5  O   UNL     1      11.323  10.916  21.633  0.00  0.00    -0.270 OA
ATOM      7  N   UNL     1      11.903   8.963  22.741  0.00  0.00    -0.309 N 
ATOM     15  C   UNL     1      11.927  10.337  22.531  0.00  0.00    +0.244 C 
ATOM     29  H   UNL     1      12.482   8.541  23.459  0.00  0.00    +0.149 HD
BRANCH  15  18
ATOM      2  F   UNL     1      15.127  13.327  26.047  0.00  0.00    -0.205 F 
ATOM     18  C   UNL     1      12.775  11.129  23.462  0.00  0.00    +0.037 A 
ATOM     22  C   UNL     1      14.144  11.249  23.227  0.00  0.00    +0.016 A 
ATOM     23  C   UNL     1      12.199  11.750  24.570  0.00  0.00    +0.016 A 
ATOM     24  C   UNL     1      14.938  11.992  24.099  0.00  0.00    +0.039 A 
ATOM     25  C   UNL     1      12.995  12.493  25.444  0.00  0.00    +0.039 A 
ATOM     26  C   UNL     1      14.363  12.613  25.208  0.00  0.00    +0.123 A 
ENDBRANCH  15  18
ENDBRANCH  12   7
ENDBRANCH  10  12
TORSDOF 7
ENDMDL
MODEL 5
REMARK VINA RESULT:      -7.0     25.911     29.158
REMARK  Name = 75536649
REMARK  7 active torsions:
REMARK  status: ('A' for Active; 'I' for Inactive)
REMARK    1  A    between atoms: O_4  and  C_9
REMARK    2  A    between atoms: N_6  and  C_8
REMARK    3  A    between atoms: N_6  and  C_13
REMARK    4  A    between atoms: N_7  and  C_12
REMARK    5  A    between atoms: C_10  and  C_12
REMARK    6  A    between atoms: C_13  and  C_14
REMARK    7  A    between atoms: C_15  and  C_18
REMARK                            x       y       z     vdW  Elec       q    Type
REMARK                         _______ _______ _______ _____ _____    ______ ____
ROOT
ATOM      3  O   UNL     1     -16.221   4.918  22.264  0.00  0.00    -0.371 OA
ATOM      8  C   UNL     1     -13.880   5.127  21.919  0.00  0.00    +0.111 C 
ATOM      9  C   UNL     1     -14.158   5.066  23.410  0.00  0.00    +0.164 C 
ATOM     10  C   UNL     1     -15.536   4.420  23.426  0.00  0.00    +0.165 C 
ATOM     11  C   UNL     1     -15.251   5.496  21.373  0.00  0.00    +0.181 C 
ENDROOT
BRANCH   9   4
ATOM      4  O   UNL     1     -13.204   4.291  24.111  0.00  0.00    -0.388 OA
ATOM     28  H   UNL     1     -13.278   4.500  25.059  0.00  0.00    +0.210 HD
ENDBRANCH   9   4
BRANCH   8   6
ATOM      6  N   UNL     1     -12.850   6.086  21.556  0.00  0.00    -0.305 NA
ATOM     27  H   UNL     1     -12.149   5.619  20.981  0.00  0.00    +0.123 HD
BRANCH   6  13
ATOM     13  C   UNL     1     -13.413   7.200  20.803  0.00  0.00    +0.119 C 
BRANCH  13  14
ATOM      1  F   UNL     1     -12.322   9.691  21.600  0.00  0.00    -0.205 F 
ATOM     14  C   UNL     1     -12.360   7.929  20.009  0.00  0.00    +0.002 A 
ATOM     16  C   UNL     1     -11.865   9.152  20.461  0.00  0.00    +0.128 A 
ATOM     17  C   UNL     1     -11.881   7.378  18.822  0.00  0.00    +0.008 A 
ATOM     19  C   UNL     1     -10.891   9.826  19.723  0.00  0.00    +0.038 A 
ATOM     20  C   UNL     1     -10.907   8.051  18.084  0.00  0.00    +0.000 A 
ATOM     21  C   UNL     1     -10.412   9.274  18.535  0.00  0.00    +0.003 A 
ENDBRANCH  13  14
ENDBRANCH   6  13
ENDBRANCH   8   6
BRANCH  10  12
ATOM     12  C   UNL     1     -16.338   4.747  24.674  0.00  0.00    +0.138 C 
BRANCH  12   7
ATOM      5  O   UNL     1     -17.451   4.776  27.320  0.00  0.00    -0.270 OA
ATOM      7  N   UNL     1     -15.962   3.902  25.770  0.00  0.00    -0.309 N 
ATOM     15  C   UNL     1     -16.559   3.986  27.024  0.00  0.00    +0.244 C 
ATOM     29  H   UNL     1     -15.182   3.274  25.613  0.00  0.00    +0.149 HD
BRANCH  15  18
ATOM      2  F   UNL     1     -14.594   0.477  30.943  0.00  0.00    -0.205 F 
ATOM     18  C   UNL     1     -16.039   3.057  28.062  0.00  0.00    +0.037 A 
ATOM     22  C   UNL     1     -16.376   1.705  28.018  0.00  0.00    +0.016 A 
ATOM     23  C   UNL     1     -15.214   3.538  29.078  0.00  0.00    +0.016 A 
ATOM     24  C   UNL     1     -15.889   0.833  28.991  0.00  0.00    +0.039 A 
ATOM     25  C   UNL     1     -14.726   2.666  30.052  0.00  0.00    +0.039 A 
ATOM     26  C   UNL     1     -15.064   1.314  30.008  0.00  0.00    +0.123 A 
ENDBRANCH  15  18
ENDBRANCH  12   7
ENDBRANCH  10  12
TORSDOF 7
ENDMDL
MODEL 6
REMARK VINA RESULT:      -7.0      2.277      8.770
REMARK  Name = 75536649
REMARK  7 active torsions:
REMARK  status: ('A' for Active; 'I' for Inactive)
REMARK    1  A    between atoms: O_4  and  C_9
REMARK    2  A    between atoms: N_6  and  C_8
REMARK    3  A    between atoms: N_6  and  C_13
REMARK    4  A    between atoms: N_7  and  C_12
REMARK    5  A    between atoms: C_10  and  C_12
REMARK    6  A    between atoms: C_13  and  C_14
REMARK    7  A    between atoms: C_15  and  C_18
REMARK                            x       y       z     vdW  Elec       q    Type
REMARK                         _______ _______ _______ _____ _____    ______ ____
ROOT
ATOM      3  O   UNL     1      16.170   6.124  18.961  0.00  0.00    -0.371 OA
ATOM      8  C   UNL     1      17.195   6.400  21.086  0.00  0.00    +0.111 C 
ATOM      9  C   UNL     1      15.885   7.165  21.066  0.00  0.00    +0.164 C 
ATOM     10  C   UNL     1      15.159   6.472  19.921  0.00  0.00    +0.165 C 
ATOM     11  C   UNL     1      17.456   6.210  19.600  0.00  0.00    +0.181 C 
ENDROOT
BRANCH   9   4
ATOM      4  O   UNL     1      15.173   7.060  22.284  0.00  0.00    -0.388 OA
ATOM     28  H   UNL     1      15.323   7.874  22.796  0.00  0.00    +0.210 HD
ENDBRANCH   9   4
BRANCH   8   6
ATOM      6  N   UNL     1      18.272   7.105  21.763  0.00  0.00    -0.305 NA
ATOM     27  H   UNL     1      18.416   6.687  22.683  0.00  0.00    +0.123 HD
BRANCH   6  13
ATOM     13  C   UNL     1      19.515   7.017  21.005  0.00  0.00    +0.119 C 
BRANCH  13  14
ATOM      1  F   UNL     1      20.293   4.492  19.981  0.00  0.00    -0.205 F 
ATOM     14  C   UNL     1      20.524   6.128  21.685  0.00  0.00    +0.002 A 
ATOM     16  C   UNL     1      20.862   4.897  21.125  0.00  0.00    +0.128 A 
ATOM     17  C   UNL     1      21.118   6.540  22.878  0.00  0.00    +0.008 A 
ATOM     19  C   UNL     1      21.796   4.076  21.758  0.00  0.00    +0.038 A 
ATOM     20  C   UNL     1      22.052   5.718  23.510  0.00  0.00    +0.000 A 
ATOM     21  C   UNL     1      22.390   4.487  22.951  0.00  0.00    +0.003 A 
ENDBRANCH  13  14
ENDBRANCH   6  13
ENDBRANCH   8   6
BRANCH  10  12
ATOM     12  C   UNL     1      14.104   7.345  19.263  0.00  0.00    +0.138 C 
BRANCH  12   7
ATOM      5  O   UNL     1      12.888   9.910  18.836  0.00  0.00    -0.270 OA
ATOM      7  N   UNL     1      13.398   8.131  20.234  0.00  0.00    -0.309 N 
ATOM     15  C   UNL     1      12.838   9.369  19.937  0.00  0.00    +0.244 C 
ATOM     29  H   UNL     1      13.382   7.773  21.183  0.00  0.00    +0.149 HD
BRANCH  15  18
ATOM      2  F   UNL     1      10.280  12.015  24.177  0.00  0.00    -0.205 F 
ATOM     18  C   UNL     1      12.161  10.070  21.059  0.00  0.00    +0.037 A 
ATOM     22  C   UNL     1      12.030  11.457  21.036  0.00  0.00    +0.016 A 
ATOM     23  C   UNL     1      11.658   9.338  22.135  0.00  0.00    +0.016 A 
ATOM     24  C   UNL     1      11.395  12.115  22.089  0.00  0.00    +0.039 A 
ATOM     25  C   UNL     1      11.022   9.996  23.188  0.00  0.00    +0.039 A 
ATOM     26  C   UNL     1      10.891  11.384  23.165  0.00  0.00    +0.123 A 
ENDBRANCH  15  18
ENDBRANCH  12   7
ENDBRANCH  10  12
TORSDOF 7
ENDMDL
MODEL 7
REMARK VINA RESULT:      -6.7     26.637     28.145
REMARK  Name = 75536649
REMARK  7 active torsions:
REMARK  status: ('A' for Active; 'I' for Inactive)
REMARK    1  A    between atoms: O_4  and  C_9
REMARK    2  A    between atoms: N_6  and  C_8
REMARK    3  A    between atoms: N_6  and  C_13
REMARK    4  A    between atoms: N_7  and  C_12
REMARK    5  A    between atoms: C_10  and  C_12
REMARK    6  A    between atoms: C_13  and  C_14
REMARK    7  A    between atoms: C_15  and  C_18
REMARK                            x       y       z     vdW  Elec       q    Type
REMARK                         _______ _______ _______ _____ _____    ______ ____
ROOT
ATOM      3  O   UNL     1      -4.181 -11.600  18.553  0.00  0.00    -0.371 OA
ATOM      8  C   UNL     1      -6.414 -10.894  18.162  0.00  0.00    +0.111 C 
ATOM      9  C   UNL     1      -5.536 -10.411  17.023  0.00  0.00    +0.164 C 
ATOM     10  C   UNL     1      -4.349 -11.357  17.147  0.00  0.00    +0.165 C 
ATOM     11  C   UNL     1      -5.379 -11.191  19.235  0.00  0.00    +0.181 C 
ENDROOT
BRANCH   9   4
ATOM      4  O   UNL     1      -6.169 -10.521  15.762  0.00  0.00    -0.388 OA
ATOM     28  H   UNL     1      -5.731 -11.231  15.262  0.00  0.00    +0.210 HD
ENDBRANCH   9   4
BRANCH   8   6
ATOM      6  N   UNL     1      -7.406  -9.919  18.588  0.00  0.00    -0.305 NA
ATOM     27  H   UNL     1      -7.311  -9.078  18.019  0.00  0.00    +0.123 HD
BRANCH   6  13
ATOM     13  C   UNL     1      -8.758 -10.444  18.432  0.00  0.00    +0.119 C 
BRANCH  13  14
ATOM      1  F   UNL     1     -11.576 -10.501  18.715  0.00  0.00    -0.205 F 
ATOM     14  C   UNL     1      -9.672  -9.448  17.767  0.00  0.00    +0.002 A 
ATOM     16  C   UNL     1     -11.051  -9.533  17.950  0.00  0.00    +0.128 A 
ATOM     17  C   UNL     1      -9.135  -8.440  16.967  0.00  0.00    +0.008 A 
ATOM     19  C   UNL     1     -11.896  -8.610  17.332  0.00  0.00    +0.038 A 
ATOM     20  C   UNL     1      -9.979  -7.517  16.349  0.00  0.00    +0.000 A 
ATOM     21  C   UNL     1     -11.358  -7.602  16.531  0.00  0.00    +0.003 A 
ENDBRANCH  13  14
ENDBRANCH   6  13
ENDBRANCH   8   6
BRANCH  10  12
ATOM     12  C   UNL     1      -3.066 -10.789  16.566  0.00  0.00    +0.138 C 
BRANCH  12   7
ATOM      5  O   UNL     1      -1.899 -11.961  14.219  0.00  0.00    -0.270 OA
ATOM      7  N   UNL     1      -3.253 -10.359  15.210  0.00  0.00    -0.309 N 
ATOM     15  C   UNL     1      -2.646 -10.990  14.130  0.00  0.00    +0.244 C 
ATOM     29  H   UNL     1      -3.802  -9.518  15.072  0.00  0.00    +0.149 HD
BRANCH  15  18
ATOM      2  F   UNL     1      -3.683  -8.791   9.068  0.00  0.00    -0.205 F 
ATOM     18  C   UNL     1      -2.920 -10.408  12.790  0.00  0.00    +0.037 A 
ATOM     22  C   UNL     1      -1.862 -10.009  11.974  0.00  0.00    +0.016 A 
ATOM     23  C   UNL     1      -4.235 -10.261  12.351  0.00  0.00    +0.016 A 
ATOM     24  C   UNL     1      -2.119  -9.462  10.717  0.00  0.00    +0.039 A 
ATOM     25  C   UNL     1      -4.493  -9.714  11.093  0.00  0.00    +0.039 A 
ATOM     26  C   UNL     1      -3.435  -9.315  10.276  0.00  0.00    +0.123 A 
ENDBRANCH  15  18
ENDBRANCH  12   7
ENDBRANCH  10  12
TORSDOF 7
ENDMDL
MODEL 8
REMARK VINA RESULT:      -6.7     26.655     29.055
REMARK  Name = 75536649
REMARK  7 active torsions:
REMARK  status: ('A' for Active; 'I' for Inactive)
REMARK    1  A    between atoms: O_4  and  C_9
REMARK    2  A    between atoms: N_6  and  C_8
REMARK    3  A    between atoms: N_6  and  C_13
REMARK    4  A    between atoms: N_7  and  C_12
REMARK    5  A    between atoms: C_10  and  C_12
REMARK    6  A    between atoms: C_13  and  C_14
REMARK    7  A    between atoms: C_15  and  C_18
REMARK                            x       y       z     vdW  Elec       q    Type
REMARK                         _______ _______ _______ _____ _____    ______ ____
ROOT
ATOM      3  O   UNL     1      -4.935 -11.742  15.752  0.00  0.00    -0.371 OA
ATOM      8  C   UNL     1      -2.953 -11.160  14.580  0.00  0.00    +0.111 C 
ATOM      9  C   UNL     1      -2.786 -10.800  16.045  0.00  0.00    +0.164 C 
ATOM     10  C   UNL     1      -3.845 -11.685  16.687  0.00  0.00    +0.165 C 
ATOM     11  C   UNL     1      -4.465 -11.286  14.472  0.00  0.00    +0.181 C 
ENDROOT
BRANCH   9   4
ATOM      4  O   UNL     1      -1.490 -11.088  16.533  0.00  0.00    -0.388 OA
ATOM     28  H   UNL     1      -1.256 -11.993  16.263  0.00  0.00    +0.210 HD
ENDBRANCH   9   4
BRANCH   8   6
ATOM      6  N   UNL     1      -2.402 -10.171  13.669  0.00  0.00    -0.305 NA
ATOM     27  H   UNL     1      -1.668  -9.649  14.149  0.00  0.00    +0.123 HD
BRANCH   6  13
ATOM     13  C   UNL     1      -1.832 -10.806  12.487  0.00  0.00    +0.119 C 
BRANCH  13  14
ATOM      1  F   UNL     1      -3.210 -12.950  11.249  0.00  0.00    -0.205 F 
ATOM     14  C   UNL     1      -2.712 -10.629  11.277  0.00  0.00    +0.002 A 
ATOM     16  C   UNL     1      -3.363 -11.729  10.718  0.00  0.00    +0.128 A 
ATOM     17  C   UNL     1      -2.875  -9.363  10.716  0.00  0.00    +0.008 A 
ATOM     19  C   UNL     1      -4.176 -11.562   9.597  0.00  0.00    +0.038 A 
ATOM     20  C   UNL     1      -3.688  -9.196   9.596  0.00  0.00    +0.000 A 
ATOM     21  C   UNL     1      -4.338 -10.295   9.036  0.00  0.00    +0.003 A 
ENDBRANCH  13  14
ENDBRANCH   6  13
ENDBRANCH   8   6
BRANCH  10  12
ATOM     12  C   UNL     1      -4.340 -11.156  18.022  0.00  0.00    +0.138 C 
BRANCH  12   7
ATOM      5  O   UNL     1      -6.779 -12.037  19.255  0.00  0.00    -0.270 OA
ATOM      7  N   UNL     1      -5.633 -10.547  17.895  0.00  0.00    -0.309 N 
ATOM     15  C   UNL     1      -6.765 -11.044  18.532  0.00  0.00    +0.244 C 
ATOM     29  H   UNL     1      -5.705  -9.764  17.255  0.00  0.00    +0.149 HD
BRANCH  15  18
ATOM      2  F   UNL     1     -11.561  -8.284  17.574  0.00  0.00    -0.205 F 
ATOM     18  C   UNL     1      -8.035 -10.314  18.278  0.00  0.00    +0.037 A 
ATOM     22  C   UNL     1      -9.204 -10.702  18.930  0.00  0.00    +0.016 A 
ATOM     23  C   UNL     1      -8.055  -9.241  17.388  0.00  0.00    +0.016 A 
ATOM     24  C   UNL     1     -10.395 -10.017  18.693  0.00  0.00    +0.039 A 
ATOM     25  C   UNL     1      -9.247  -8.555  17.150  0.00  0.00    +0.039 A 
ATOM     26  C   UNL     1     -10.417  -8.943  17.802  0.00  0.00    +0.123 A 
ENDBRANCH  15  18
ENDBRANCH  12   7
ENDBRANCH  10  12
TORSDOF 7
ENDMDL
MODEL 9
REMARK VINA RESULT:      -6.7     14.238     17.435
REMARK  Name = 75536649
REMARK  7 active torsions:
REMARK  status: ('A' for Active; 'I' for Inactive)
REMARK    1  A    between atoms: O_4  and  C_9
REMARK    2  A    between atoms: N_6  and  C_8
REMARK    3  A    between atoms: N_6  and  C_13
REMARK    4  A    between atoms: N_7  and  C_12
REMARK    5  A    between atoms: C_10  and  C_12
REMARK    6  A    between atoms: C_13  and  C_14
REMARK    7  A    between atoms: C_15  and  C_18
REMARK                            x       y       z     vdW  Elec       q    Type
REMARK                         _______ _______ _______ _____ _____    ______ ____
ROOT
ATOM      3  O   UNL     1      13.601   7.752   5.408  0.00  0.00    -0.371 OA
ATOM      8  C   UNL     1      15.498   7.922   3.989  0.00  0.00    +0.111 C 
ATOM      9  C   UNL     1      14.389   7.198   3.248  0.00  0.00    +0.164 C 
ATOM     10  C   UNL     1      13.168   7.642   4.042  0.00  0.00    +0.165 C 
ATOM     11  C   UNL     1      15.039   7.780   5.431  0.00  0.00    +0.181 C 
ENDROOT
BRANCH   9   4
ATOM      4  O   UNL     1      14.302   7.579   1.888  0.00  0.00    -0.388 OA
ATOM     28  H   UNL     1      15.171   7.437   1.475  0.00  0.00    +0.210 HD
ENDBRANCH   9   4
BRANCH   8   6
ATOM      6  N   UNL     1      16.819   7.359   3.758  0.00  0.00    -0.305 NA
ATOM     27  H   UNL     1      16.811   6.845   2.876  0.00  0.00    +0.123 HD
BRANCH   6  13
ATOM     13  C   UNL     1      17.830   8.407   3.685  0.00  0.00    +0.119 C 
BRANCH  13  14
ATOM      1  F   UNL     1      17.750   9.487   6.303  0.00  0.00    -0.205 F 
ATOM     14  C   UNL     1      18.927   8.197   4.696  0.00  0.00    +0.002 A 
ATOM     16  C   UNL     1      18.823   8.757   5.969  0.00  0.00    +0.128 A 
ATOM     17  C   UNL     1      20.049   7.441   4.356  0.00  0.00    +0.008 A 
ATOM     19  C   UNL     1      19.842   8.561   6.902  0.00  0.00    +0.038 A 
ATOM     20  C   UNL     1      21.067   7.246   5.289  0.00  0.00    +0.000 A 
ATOM     21  C   UNL     1      20.964   7.806   6.561  0.00  0.00    +0.003 A 
ENDBRANCH  13  14
ENDBRANCH   6  13
ENDBRANCH   8   6
BRANCH  10  12
ATOM     12  C   UNL     1      12.005   6.669   3.948  0.00  0.00    +0.138 C 
BRANCH  12   7
ATOM      5  O   UNL     1      10.089   4.637   4.611  0.00  0.00    -0.270 OA
ATOM      7  N   UNL     1      11.419   6.432   5.236  0.00  0.00    -0.309 N 
ATOM     15  C   UNL     1      10.494   5.419   5.467  0.00  0.00    +0.244 C 
ATOM     29  H   UNL     1      11.659   7.088   5.971  0.00  0.00    +0.149 HD
BRANCH  15  18
ATOM      2  F   UNL     1       8.480   5.044  10.695  0.00  0.00    -0.205 F 
ATOM     18  C   UNL     1       9.961   5.320   6.851  0.00  0.00    +0.037 A 
ATOM     22  C   UNL     1       9.439   6.450   7.479  0.00  0.00    +0.016 A 
ATOM     23  C   UNL     1       9.984   4.097   7.520  0.00  0.00    +0.016 A 
ATOM     24  C   UNL     1       8.939   6.358   8.777  0.00  0.00    +0.039 A 
ATOM     25  C   UNL     1       9.483   4.004   8.819  0.00  0.00    +0.039 A 
ATOM     26  C   UNL     1       8.961   5.134   9.448  0.00  0.00    +0.123 A 
ENDBRANCH  15  18
ENDBRANCH  12   7
ENDBRANCH  10  12
TORSDOF 7
ENDMDL
MODEL 10
REMARK VINA RESULT:      -6.6      4.397     10.593
REMARK  Name = 75536649
REMARK  7 active torsions:
REMARK  status: ('A' for Active; 'I' for Inactive)
REMARK    1  A    between atoms: O_4  and  C_9
REMARK    2  A    between atoms: N_6  and  C_8
REMARK    3  A    between atoms: N_6  and  C_13
REMARK    4  A    between atoms: N_7  and  C_12
REMARK    5  A    between atoms: C_10  and  C_12
REMARK    6  A    between atoms: C_13  and  C_14
REMARK    7  A    between atoms: C_15  and  C_18
REMARK                            x       y       z     vdW  Elec       q    Type
REMARK                         _______ _______ _______ _____ _____    ______ ____
ROOT
ATOM      3  O   UNL     1      19.159   7.011  21.839  0.00  0.00    -0.371 OA
ATOM      8  C   UNL     1      20.304   5.475  20.435  0.00  0.00    +0.111 C 
ATOM      9  C   UNL     1      18.811   5.339  20.202  0.00  0.00    +0.164 C 
ATOM     10  C   UNL     1      18.309   6.677  20.728  0.00  0.00    +0.165 C 
ATOM     11  C   UNL     1      20.336   6.187  21.779  0.00  0.00    +0.181 C 
ENDROOT
BRANCH   9   4
ATOM      4  O   UNL     1      18.486   5.153  18.838  0.00  0.00    -0.388 OA
ATOM     28  H   UNL     1      17.978   4.327  18.756  0.00  0.00    +0.210 HD
ENDBRANCH   9   4
BRANCH   8   6
ATOM      6  N   UNL     1      21.010   4.204  20.452  0.00  0.00    -0.305 NA
ATOM     27  H   UNL     1      20.927   3.765  19.535  0.00  0.00    +0.123 HD
BRANCH   6  13
ATOM     13  C   UNL     1      22.424   4.393  20.758  0.00  0.00    +0.119 C 
BRANCH  13  14
ATOM      1  F   UNL     1      24.264   2.495  19.740  0.00  0.00    -0.205 F 
ATOM     14  C   UNL     1      22.975   3.258  21.581  0.00  0.00    +0.002 A 
ATOM     16  C   UNL     1      23.879   2.359  21.016  0.00  0.00    +0.128 A 
ATOM     17  C   UNL     1      22.578   3.107  22.910  0.00  0.00    +0.008 A 
ATOM     19  C   UNL     1      24.387   1.308  21.781  0.00  0.00    +0.038 A 
ATOM     20  C   UNL     1      23.086   2.057  23.673  0.00  0.00    +0.000 A 
ATOM     21  C   UNL     1      23.989   1.157  23.109  0.00  0.00    +0.003 A 
ENDBRANCH  13  14
ENDBRANCH   6  13
ENDBRANCH   8   6
BRANCH  10  12
ATOM     12  C   UNL     1      16.861   6.639  21.183  0.00  0.00    +0.138 C 
BRANCH  12   7
ATOM      5  O   UNL     1      14.333   7.934  21.601  0.00  0.00    -0.270 OA
ATOM      7  N   UNL     1      15.983   7.151  20.171  0.00  0.00    -0.309 N 
ATOM     15  C   UNL     1      14.772   7.768  20.466  0.00  0.00    +0.244 C 
ATOM     29  H   UNL     1      16.253   6.983  19.208  0.00  0.00    +0.149 HD
BRANCH  15  18
ATOM      2  F   UNL     1      11.726   9.483  16.072  0.00  0.00    -0.205 F 
ATOM     18  C   UNL     1      13.965   8.222  19.303  0.00  0.00    +0.037 A 
ATOM     22  C   UNL     1      14.295   9.408  18.647  0.00  0.00    +0.016 A 
ATOM     23  C   UNL     1      12.880   7.462  18.869  0.00  0.00    +0.016 A 
ATOM     24  C   UNL     1      13.539   9.834  17.556  0.00  0.00    +0.039 A 
ATOM     25  C   UNL     1      12.123   7.889  17.777  0.00  0.00    +0.039 A 
ATOM     26  C   UNL     1      12.453   9.075  17.121  0.00  0.00    +0.123 A 
ENDBRANCH  15  18
ENDBRANCH  12   7
ENDBRANCH  10  12
TORSDOF 7
ENDMDL
