MODEL 1
REMARK VINA RESULT:      -7.1      0.000      0.000
REMARK  Name = 45783272
REMARK  8 active torsions:
REMARK  status: ('A' for Active; 'I' for Inactive)
REMARK    1  A    between atoms: O_3  and  C_29
REMARK    2  A    between atoms: O_3  and  C_30
REMARK    3  A    between atoms: N_4  and  C_10
REMARK    4  A    between atoms: N_9  and  C_28
REMARK    5  A    between atoms: C_11  and  C_19
REMARK    6  A    between atoms: C_20  and  C_21
REMARK    7  A    between atoms: C_22  and  C_23
REMARK    8  A    between atoms: C_28  and  C_29
REMARK                            x       y       z     vdW  Elec       q    Type
REMARK                         _______ _______ _______ _____ _____    ______ ____
ROOT
ATOM      1  O   UNL     1      -2.316 -10.828  15.106  0.00  0.00    -0.336 OA
ATOM      6  N   UNL     1      -4.550 -10.938  14.988  0.00  0.00    -0.190 NA
ATOM      7  N   UNL     1      -2.780 -10.730  16.424  0.00  0.00    -0.056 NA
ATOM     19  C   UNL     1      -3.421 -10.948  14.325  0.00  0.00    +0.245 A 
ATOM     22  C   UNL     1      -4.106 -10.804  16.271  0.00  0.00    +0.202 A 
ENDROOT
BRANCH  22  23
ATOM      8  N   UNL     1      -6.786 -10.631  19.539  0.00  0.00    -0.240 NA
ATOM      9  N   UNL     1      -8.327  -9.413  18.191  0.00  0.00    -0.327 N 
ATOM     23  C   UNL     1      -5.015 -10.745  17.380  0.00  0.00    +0.027 A 
ATOM     24  C   UNL     1      -6.240 -10.102  17.244  0.00  0.00    +0.055 A 
ATOM     25  C   UNL     1      -4.674 -11.330  18.594  0.00  0.00    +0.031 A 
ATOM     26  C   UNL     1      -7.082 -10.073  18.344  0.00  0.00    +0.119 A 
ATOM     27  C   UNL     1      -5.586 -11.246  19.633  0.00  0.00    +0.113 A 
ATOM     31  H   UNL     1      -8.935  -9.402  19.001  0.00  0.00    +0.148 HD
BRANCH   9  28
ATOM     28  C   UNL     1      -8.725  -8.794  16.968  0.00  0.00    +0.131 C 
BRANCH  28  29
ATOM     29  C   UNL     1      -9.953  -7.929  17.200  0.00  0.00    +0.178 C 
BRANCH  29   3
ATOM      3  O   UNL     1     -10.096  -7.009  16.126  0.00  0.00    -0.381 OA
ATOM     30  C   UNL     1     -11.224  -6.165  16.308  0.00  0.00    +0.194 C 
ENDBRANCH  29   3
ENDBRANCH  28  29
ENDBRANCH   9  28
ENDBRANCH  22  23
BRANCH  19  11
ATOM      4  N   UNL     1      -3.854 -10.005  12.063  0.00  0.00    -0.288 NA
ATOM     11  C   UNL     1      -3.184 -11.071  12.834  0.00  0.00    +0.146 C 
ATOM     12  C   UNL     1      -3.044  -9.792  10.863  0.00  0.00    +0.085 C 
ATOM     13  C   UNL     1      -1.696 -10.951  12.456  0.00  0.00    +0.030 C 
ATOM     16  C   UNL     1      -1.637  -9.834  11.423  0.00  0.00    +0.017 C 
BRANCH   4  10
ATOM      2  O   UNL     1      -8.388  -9.948   7.910  0.00  0.00    -0.276 OA
ATOM      5  N   UNL     1      -7.592  -9.915  10.091  0.00  0.00    -0.302 N 
ATOM     10  C   UNL     1      -5.245 -10.317  11.738  0.00  0.00    +0.060 C 
ATOM     14  C   UNL     1      -5.338 -10.888  10.317  0.00  0.00    +0.038 C 
ATOM     15  C   UNL     1      -6.111  -9.057  11.868  0.00  0.00    +0.038 C 
ATOM     17  C   UNL     1      -6.794 -11.131   9.921  0.00  0.00    +0.109 C 
ATOM     18  C   UNL     1      -7.551  -9.336  11.440  0.00  0.00    +0.109 C 
ATOM     20  C   UNL     1      -8.343  -9.422   9.025  0.00  0.00    +0.212 C 
ATOM     21  C   UNL     1      -9.136  -8.165   9.280  0.00  0.00    +0.109 C 
ENDBRANCH   4  10
ENDBRANCH  19  11
TORSDOF 6
ENDMDL
MODEL 2
REMARK VINA RESULT:      -7.0     27.595     30.431
REMARK  Name = 45783272
REMARK  8 active torsions:
REMARK  status: ('A' for Active; 'I' for Inactive)
REMARK    1  A    between atoms: O_3  and  C_29
REMARK    2  A    between atoms: O_3  and  C_30
REMARK    3  A    between atoms: N_4  and  C_10
REMARK    4  A    between atoms: N_9  and  C_28
REMARK    5  A    between atoms: C_11  and  C_19
REMARK    6  A    between atoms: C_20  and  C_21
REMARK    7  A    between atoms: C_22  and  C_23
REMARK    8  A    between atoms: C_28  and  C_29
REMARK                            x       y       z     vdW  Elec       q    Type
REMARK                         _______ _______ _______ _____ _____    ______ ____
ROOT
ATOM      1  O   UNL     1      18.083   5.951  19.914  0.00  0.00    -0.336 OA
ATOM      6  N   UNL     1      16.750   7.691  20.374  0.00  0.00    -0.190 NA
ATOM      7  N   UNL     1      16.917   5.756  19.163  0.00  0.00    -0.056 NA
ATOM     19  C   UNL     1      17.902   7.112  20.596  0.00  0.00    +0.245 A 
ATOM     22  C   UNL     1      16.180   6.824  19.487  0.00  0.00    +0.202 A 
ENDROOT
BRANCH  22  23
ATOM      8  N   UNL     1      12.321   7.496  17.891  0.00  0.00    -0.240 NA
ATOM      9  N   UNL     1      11.378   7.086  20.040  0.00  0.00    -0.327 N 
ATOM     23  C   UNL     1      14.872   7.051  18.946  0.00  0.00    +0.027 A 
ATOM     24  C   UNL     1      13.752   6.957  19.765  0.00  0.00    +0.055 A 
ATOM     25  C   UNL     1      14.718   7.367  17.601  0.00  0.00    +0.031 A 
ATOM     26  C   UNL     1      12.510   7.187  19.194  0.00  0.00    +0.119 A 
ATOM     27  C   UNL     1      13.433   7.578  17.127  0.00  0.00    +0.113 A 
ATOM     31  H   UNL     1      10.477   7.260  19.611  0.00  0.00    +0.148 HD
BRANCH   9  28
ATOM     28  C   UNL     1      11.480   6.763  21.426  0.00  0.00    +0.131 C 
BRANCH  28  29
ATOM     29  C   UNL     1      10.438   7.538  22.217  0.00  0.00    +0.178 C 
BRANCH  29   3
ATOM      3  O   UNL     1      10.556   8.924  21.927  0.00  0.00    -0.381 OA
ATOM     30  C   UNL     1      11.772   9.461  22.429  0.00  0.00    +0.194 C 
ENDBRANCH  29   3
ENDBRANCH  28  29
ENDBRANCH   9  28
ENDBRANCH  22  23
BRANCH  19  11
ATOM      4  N   UNL     1      20.343   7.555  20.801  0.00  0.00    -0.288 NA
ATOM     11  C   UNL     1      19.039   7.551  21.495  0.00  0.00    +0.146 C 
ATOM     12  C   UNL     1      21.152   8.589  21.445  0.00  0.00    +0.085 C 
ATOM     13  C   UNL     1      18.868   8.992  22.011  0.00  0.00    +0.030 C 
ATOM     16  C   UNL     1      20.149   9.712  21.613  0.00  0.00    +0.017 C 
BRANCH   4  10
ATOM      2  O   UNL     1      24.072   3.619  23.701  0.00  0.00    -0.276 OA
ATOM      5  N   UNL     1      23.102   4.509  21.788  0.00  0.00    -0.302 N 
ATOM     10  C   UNL     1      21.006   6.252  20.814  0.00  0.00    +0.060 C 
ATOM     14  C   UNL     1      20.963   5.654  22.226  0.00  0.00    +0.038 C 
ATOM     15  C   UNL     1      22.457   6.395  20.335  0.00  0.00    +0.038 C 
ATOM     17  C   UNL     1      21.735   4.336  22.284  0.00  0.00    +0.109 C 
ATOM     18  C   UNL     1      23.199   5.063  20.431  0.00  0.00    +0.109 C 
ATOM     20  C   UNL     1      24.182   4.117  22.578  0.00  0.00    +0.212 C 
ATOM     21  C   UNL     1      25.557   4.329  21.996  0.00  0.00    +0.109 C 
ENDBRANCH   4  10
ENDBRANCH  19  11
TORSDOF 6
ENDMDL
MODEL 3
REMARK VINA RESULT:      -6.5     27.075     29.817
REMARK  Name = 45783272
REMARK  8 active torsions:
REMARK  status: ('A' for Active; 'I' for Inactive)
REMARK    1  A    between atoms: O_3  and  C_29
REMARK    2  A    between atoms: O_3  and  C_30
REMARK    3  A    between atoms: N_4  and  C_10
REMARK    4  A    between atoms: N_9  and  C_28
REMARK    5  A    between atoms: C_11  and  C_19
REMARK    6  A    between atoms: C_20  and  C_21
REMARK    7  A    between atoms: C_22  and  C_23
REMARK    8  A    between atoms: C_28  and  C_29
REMARK                            x       y       z     vdW  Elec       q    Type
REMARK                         _______ _______ _______ _____ _____    ______ ____
ROOT
ATOM      1  O   UNL     1      14.809   7.049  19.757  0.00  0.00    -0.336 OA
ATOM      6  N   UNL     1      15.752   8.623  21.041  0.00  0.00    -0.190 NA
ATOM      7  N   UNL     1      16.183   6.777  19.759  0.00  0.00    -0.056 NA
ATOM     19  C   UNL     1      14.641   8.150  20.534  0.00  0.00    +0.245 A 
ATOM     22  C   UNL     1      16.670   7.748  20.538  0.00  0.00    +0.202 A 
ENDROOT
BRANCH  22  23
ATOM      8  N   UNL     1      20.795   8.116  21.401  0.00  0.00    -0.240 NA
ATOM      9  N   UNL     1      21.089   5.804  20.909  0.00  0.00    -0.327 N 
ATOM     23  C   UNL     1      18.069   7.873  20.832  0.00  0.00    +0.027 A 
ATOM     24  C   UNL     1      18.905   6.767  20.726  0.00  0.00    +0.055 A 
ATOM     25  C   UNL     1      18.593   9.100  21.222  0.00  0.00    +0.031 A 
ATOM     26  C   UNL     1      20.248   6.940  21.019  0.00  0.00    +0.119 A 
ATOM     27  C   UNL     1      19.950   9.168  21.494  0.00  0.00    +0.113 A 
ATOM     31  H   UNL     1      22.069   5.945  21.122  0.00  0.00    +0.148 HD
BRANCH   9  28
ATOM     28  C   UNL     1      20.601   4.522  20.514  0.00  0.00    +0.131 C 
BRANCH  28  29
ATOM     29  C   UNL     1      21.511   3.432  21.056  0.00  0.00    +0.178 C 
BRANCH  29   3
ATOM      3  O   UNL     1      22.279   3.948  22.136  0.00  0.00    -0.381 OA
ATOM     30  C   UNL     1      22.485   2.968  23.144  0.00  0.00    +0.194 C 
ENDBRANCH  29   3
ENDBRANCH  28  29
ENDBRANCH   9  28
ENDBRANCH  22  23
BRANCH  19  11
ATOM      4  N   UNL     1      12.351   8.264  19.568  0.00  0.00    -0.288 NA
ATOM     11  C   UNL     1      13.222   8.653  20.694  0.00  0.00    +0.146 C 
ATOM     12  C   UNL     1      10.997   8.154  20.110  0.00  0.00    +0.085 C 
ATOM     13  C   UNL     1      12.525   8.081  21.942  0.00  0.00    +0.030 C 
ATOM     16  C   UNL     1      11.243   7.443  21.425  0.00  0.00    +0.017 C 
BRANCH   4  10
ATOM      2  O   UNL     1      15.246  10.077  14.454  0.00  0.00    -0.276 OA
ATOM      5  N   UNL     1      13.921  10.469  16.321  0.00  0.00    -0.302 N 
ATOM     10  C   UNL     1      12.417   9.193  18.441  0.00  0.00    +0.060 C 
ATOM     14  C   UNL     1      12.799   8.440  17.160  0.00  0.00    +0.038 C 
ATOM     15  C   UNL     1      13.435  10.304  18.734  0.00  0.00    +0.038 C 
ATOM     17  C   UNL     1      12.969   9.407  15.989  0.00  0.00    +0.109 C 
ATOM     18  C   UNL     1      13.593  11.234  17.532  0.00  0.00    +0.109 C 
ATOM     20  C   UNL     1      15.011  10.710  15.486  0.00  0.00    +0.212 C 
ATOM     21  C   UNL     1      15.946  11.819  15.899  0.00  0.00    +0.109 C 
ENDBRANCH   4  10
ENDBRANCH  19  11
TORSDOF 6
ENDMDL
MODEL 4
REMARK VINA RESULT:      -6.5      3.026      4.971
REMARK  Name = 45783272
REMARK  8 active torsions:
REMARK  status: ('A' for Active; 'I' for Inactive)
REMARK    1  A    between atoms: O_3  and  C_29
REMARK    2  A    between atoms: O_3  and  C_30
REMARK    3  A    between atoms: N_4  and  C_10
REMARK    4  A    between atoms: N_9  and  C_28
REMARK    5  A    between atoms: C_11  and  C_19
REMARK    6  A    between atoms: C_20  and  C_21
REMARK    7  A    between atoms: C_22  and  C_23
REMARK    8  A    between atoms: C_28  and  C_29
REMARK                            x       y       z     vdW  Elec       q    Type
REMARK                         _______ _______ _______ _____ _____    ______ ____
ROOT
ATOM      1  O   UNL     1      -1.519 -10.846  15.118  0.00  0.00    -0.336 OA
ATOM      6  N   UNL     1      -3.678 -11.431  15.003  0.00  0.00    -0.190 NA
ATOM      7  N   UNL     1      -2.030 -10.700  16.413  0.00  0.00    -0.056 NA
ATOM     19  C   UNL     1      -2.553 -11.279  14.351  0.00  0.00    +0.245 A 
ATOM     22  C   UNL     1      -3.308 -11.065  16.264  0.00  0.00    +0.202 A 
ENDROOT
BRANCH  22  23
ATOM      8  N   UNL     1      -6.058 -11.087  19.478  0.00  0.00    -0.240 NA
ATOM      9  N   UNL     1      -7.525  -9.701  18.212  0.00  0.00    -0.327 N 
ATOM     23  C   UNL     1      -4.240 -11.072  17.354  0.00  0.00    +0.027 A 
ATOM     24  C   UNL     1      -5.440 -10.376  17.251  0.00  0.00    +0.055 A 
ATOM     25  C   UNL     1      -3.948 -11.774  18.518  0.00  0.00    +0.031 A 
ATOM     26  C   UNL     1      -6.307 -10.416  18.331  0.00  0.00    +0.119 A 
ATOM     27  C   UNL     1      -4.882 -11.750  19.541  0.00  0.00    +0.113 A 
ATOM     31  H   UNL     1      -8.152  -9.741  19.007  0.00  0.00    +0.148 HD
BRANCH   9  28
ATOM     28  C   UNL     1      -7.873  -8.963  17.041  0.00  0.00    +0.131 C 
BRANCH  28  29
ATOM     29  C   UNL     1      -9.383  -8.937  16.874  0.00  0.00    +0.178 C 
BRANCH  29   3
ATOM      3  O   UNL     1      -9.864  -7.619  17.106  0.00  0.00    -0.381 OA
ATOM     30  C   UNL     1     -10.311  -7.008  15.905  0.00  0.00    +0.194 C 
ENDBRANCH  29   3
ENDBRANCH  28  29
ENDBRANCH   9  28
ENDBRANCH  22  23
BRANCH  19  11
ATOM      4  N   UNL     1      -3.337 -12.244  12.195  0.00  0.00    -0.288 NA
ATOM     11  C   UNL     1      -2.253 -11.516  12.885  0.00  0.00    +0.146 C 
ATOM     12  C   UNL     1      -3.303 -11.809  10.799  0.00  0.00    +0.085 C 
ATOM     13  C   UNL     1      -2.094 -10.207  12.090  0.00  0.00    +0.030 C 
ATOM     16  C   UNL     1      -3.085 -10.317  10.940  0.00  0.00    +0.017 C 
BRANCH   4  10
ATOM      2  O   UNL     1      -3.661 -17.215  15.801  0.00  0.00    -0.276 OA
ATOM      5  N   UNL     1      -2.853 -16.055  13.957  0.00  0.00    -0.302 N 
ATOM     10  C   UNL     1      -3.227 -13.696  12.321  0.00  0.00    +0.060 C 
ATOM     14  C   UNL     1      -4.343 -14.232  13.227  0.00  0.00    +0.038 C 
ATOM     15  C   UNL     1      -1.850 -14.072  12.886  0.00  0.00    +0.038 C 
ATOM     17  C   UNL     1      -4.189 -15.736  13.451  0.00  0.00    +0.109 C 
ATOM     18  C   UNL     1      -1.746 -15.579  13.117  0.00  0.00    +0.109 C 
ATOM     20  C   UNL     1      -2.714 -16.795  15.131  0.00  0.00    +0.212 C 
ATOM     21  C   UNL     1      -1.305 -17.080  15.587  0.00  0.00    +0.109 C 
ENDBRANCH   4  10
ENDBRANCH  19  11
TORSDOF 6
ENDMDL
MODEL 5
REMARK VINA RESULT:      -6.4     27.384     29.962
REMARK  Name = 45783272
REMARK  8 active torsions:
REMARK  status: ('A' for Active; 'I' for Inactive)
REMARK    1  A    between atoms: O_3  and  C_29
REMARK    2  A    between atoms: O_3  and  C_30
REMARK    3  A    between atoms: N_4  and  C_10
REMARK    4  A    between atoms: N_9  and  C_28
REMARK    5  A    between atoms: C_11  and  C_19
REMARK    6  A    between atoms: C_20  and  C_21
REMARK    7  A    between atoms: C_22  and  C_23
REMARK    8  A    between atoms: C_28  and  C_29
REMARK                            x       y       z     vdW  Elec       q    Type
REMARK                         _______ _______ _______ _____ _____    ______ ____
ROOT
ATOM      1  O   UNL     1      14.404   6.796  19.467  0.00  0.00    -0.336 OA
ATOM      6  N   UNL     1      15.616   8.029  20.891  0.00  0.00    -0.190 NA
ATOM      7  N   UNL     1      15.713   6.307  19.387  0.00  0.00    -0.056 NA
ATOM     19  C   UNL     1      14.434   7.807  20.374  0.00  0.00    +0.245 A 
ATOM     22  C   UNL     1      16.368   7.083  20.256  0.00  0.00    +0.202 A 
ENDROOT
BRANCH  22  23
ATOM      8  N   UNL     1      20.509   6.666  21.010  0.00  0.00    -0.240 NA
ATOM      9  N   UNL     1      20.492   8.746  22.172  0.00  0.00    -0.327 N 
ATOM     23  C   UNL     1      17.773   6.942  20.511  0.00  0.00    +0.027 A 
ATOM     24  C   UNL     1      18.454   7.922  21.224  0.00  0.00    +0.055 A 
ATOM     25  C   UNL     1      18.457   5.825  20.046  0.00  0.00    +0.031 A 
ATOM     26  C   UNL     1      19.810   7.739  21.445  0.00  0.00    +0.119 A 
ATOM     27  C   UNL     1      19.813   5.736  20.320  0.00  0.00    +0.113 A 
ATOM     31  H   UNL     1      21.482   8.598  22.329  0.00  0.00    +0.148 HD
BRANCH   9  28
ATOM     28  C   UNL     1      19.837   9.913  22.668  0.00  0.00    +0.131 C 
BRANCH  28  29
ATOM     29  C   UNL     1      20.821  11.070  22.736  0.00  0.00    +0.178 C 
BRANCH  29   3
ATOM      3  O   UNL     1      21.848  10.877  21.772  0.00  0.00    -0.381 OA
ATOM     30  C   UNL     1      22.199  12.096  21.133  0.00  0.00    +0.194 C 
ENDBRANCH  29   3
ENDBRANCH  28  29
ENDBRANCH   9  28
ENDBRANCH  22  23
BRANCH  19  11
ATOM      4  N   UNL     1      12.135   8.309  19.563  0.00  0.00    -0.288 NA
ATOM     11  C   UNL     1      13.121   8.512  20.644  0.00  0.00    +0.146 C 
ATOM     12  C   UNL     1      10.815   8.381  20.189  0.00  0.00    +0.085 C 
ATOM     13  C   UNL     1      12.419   7.996  21.914  0.00  0.00    +0.030 C 
ATOM     16  C   UNL     1      11.026   7.583  21.459  0.00  0.00    +0.017 C 
BRANCH   4  10
ATOM      2  O   UNL     1      15.189  10.070  14.524  0.00  0.00    -0.276 OA
ATOM      5  N   UNL     1      13.884  10.498  16.398  0.00  0.00    -0.302 N 
ATOM     10  C   UNL     1      12.277   9.267  18.468  0.00  0.00    +0.060 C 
ATOM     14  C   UNL     1      12.611   8.530  17.164  0.00  0.00    +0.038 C 
ATOM     15  C   UNL     1      13.371  10.290  18.802  0.00  0.00    +0.038 C 
ATOM     17  C   UNL     1      12.859   9.520  16.027  0.00  0.00    +0.109 C 
ATOM     18  C   UNL     1      13.604  11.244  17.631  0.00  0.00    +0.109 C 
ATOM     20  C   UNL     1      14.994  10.685  15.576  0.00  0.00    +0.212 C 
ATOM     21  C   UNL     1      16.005  11.709  16.028  0.00  0.00    +0.109 C 
ENDBRANCH   4  10
ENDBRANCH  19  11
TORSDOF 6
ENDMDL
MODEL 6
REMARK VINA RESULT:      -6.4      2.534      7.051
REMARK  Name = 45783272
REMARK  8 active torsions:
REMARK  status: ('A' for Active; 'I' for Inactive)
REMARK    1  A    between atoms: O_3  and  C_29
REMARK    2  A    between atoms: O_3  and  C_30
REMARK    3  A    between atoms: N_4  and  C_10
REMARK    4  A    between atoms: N_9  and  C_28
REMARK    5  A    between atoms: C_11  and  C_19
REMARK    6  A    between atoms: C_20  and  C_21
REMARK    7  A    between atoms: C_22  and  C_23
REMARK    8  A    between atoms: C_28  and  C_29
REMARK                            x       y       z     vdW  Elec       q    Type
REMARK                         _______ _______ _______ _____ _____    ______ ____
ROOT
ATOM      1  O   UNL     1      -5.946 -12.233  17.773  0.00  0.00    -0.336 OA
ATOM      6  N   UNL     1      -5.452 -10.198  16.978  0.00  0.00    -0.190 NA
ATOM      7  N   UNL     1      -4.776 -12.384  17.019  0.00  0.00    -0.056 NA
ATOM     19  C   UNL     1      -6.276 -10.917  17.697  0.00  0.00    +0.245 A 
ATOM     22  C   UNL     1      -4.548 -11.141  16.583  0.00  0.00    +0.202 A 
ENDROOT
BRANCH  22  23
ATOM      8  N   UNL     1      -1.245 -10.157  14.130  0.00  0.00    -0.240 NA
ATOM      9  N   UNL     1      -2.649 -10.300  12.210  0.00  0.00    -0.327 N 
ATOM     23  C   UNL     1      -3.428 -10.808  15.751  0.00  0.00    +0.027 A 
ATOM     24  C   UNL     1      -3.585 -10.715  14.373  0.00  0.00    +0.055 A 
ATOM     25  C   UNL     1      -2.180 -10.577  16.320  0.00  0.00    +0.031 A 
ATOM     26  C   UNL     1      -2.473 -10.390  13.613  0.00  0.00    +0.119 A 
ATOM     27  C   UNL     1      -1.131 -10.258  15.473  0.00  0.00    +0.113 A 
ATOM     31  H   UNL     1      -1.828 -10.058  11.667  0.00  0.00    +0.148 HD
BRANCH   9  28
ATOM     28  C   UNL     1      -3.906 -10.530  11.576  0.00  0.00    +0.131 C 
BRANCH  28  29
ATOM     29  C   UNL     1      -3.778 -10.314  10.077  0.00  0.00    +0.178 C 
BRANCH  29   3
ATOM      3  O   UNL     1      -3.799  -8.921   9.794  0.00  0.00    -0.381 OA
ATOM     30  C   UNL     1      -5.012  -8.319  10.225  0.00  0.00    +0.194 C 
ENDBRANCH  29   3
ENDBRANCH  28  29
ENDBRANCH   9  28
ENDBRANCH  22  23
BRANCH  19  11
ATOM      4  N   UNL     1      -8.747 -10.632  17.627  0.00  0.00    -0.288 NA
ATOM     11  C   UNL     1      -7.524 -10.490  18.442  0.00  0.00    +0.146 C 
ATOM     12  C   UNL     1      -9.841 -10.887  18.565  0.00  0.00    +0.085 C 
ATOM     13  C   UNL     1      -7.789 -11.343  19.696  0.00  0.00    +0.030 C 
ATOM     16  C   UNL     1      -9.207 -11.871  19.526  0.00  0.00    +0.017 C 
BRANCH   4  10
ATOM      2  O   UNL     1     -12.788  -6.484  15.558  0.00  0.00    -0.276 OA
ATOM      5  N   UNL     1     -10.871  -7.779  15.344  0.00  0.00    -0.302 N 
ATOM     10  C   UNL     1      -9.012  -9.471  16.778  0.00  0.00    +0.060 C 
ATOM     14  C   UNL     1      -9.928  -8.482  17.510  0.00  0.00    +0.038 C 
ATOM     15  C   UNL     1      -9.652  -9.920  15.458  0.00  0.00    +0.038 C 
ATOM     17  C   UNL     1     -10.295  -7.307  16.605  0.00  0.00    +0.109 C 
ATOM     18  C   UNL     1     -10.026  -8.716  14.594  0.00  0.00    +0.109 C 
ATOM     20  C   UNL     1     -12.113  -7.301  14.926  0.00  0.00    +0.212 C 
ATOM     21  C   UNL     1     -12.638  -7.836  13.617  0.00  0.00    +0.109 C 
ENDBRANCH   4  10
ENDBRANCH  19  11
TORSDOF 6
ENDMDL
MODEL 7
REMARK VINA RESULT:      -6.4     21.168     25.560
REMARK  Name = 45783272
REMARK  8 active torsions:
REMARK  status: ('A' for Active; 'I' for Inactive)
REMARK    1  A    between atoms: O_3  and  C_29
REMARK    2  A    between atoms: O_3  and  C_30
REMARK    3  A    between atoms: N_4  and  C_10
REMARK    4  A    between atoms: N_9  and  C_28
REMARK    5  A    between atoms: C_11  and  C_19
REMARK    6  A    between atoms: C_20  and  C_21
REMARK    7  A    between atoms: C_22  and  C_23
REMARK    8  A    between atoms: C_28  and  C_29
REMARK                            x       y       z     vdW  Elec       q    Type
REMARK                         _______ _______ _______ _____ _____    ______ ____
ROOT
ATOM      1  O   UNL     1     -13.674   9.621  31.835  0.00  0.00    -0.336 OA
ATOM      6  N   UNL     1     -12.233   7.940  32.175  0.00  0.00    -0.190 NA
ATOM      7  N   UNL     1     -14.414   8.588  32.424  0.00  0.00    -0.056 NA
ATOM     19  C   UNL     1     -12.402   9.157  31.725  0.00  0.00    +0.245 A 
ATOM     22  C   UNL     1     -13.495   7.632  32.595  0.00  0.00    +0.202 A 
ENDROOT
BRANCH  22  23
ATOM      8  N   UNL     1     -14.406   3.878  34.319  0.00  0.00    -0.240 NA
ATOM      9  N   UNL     1     -13.877   2.818  32.252  0.00  0.00    -0.327 N 
ATOM     23  C   UNL     1     -13.804   6.360  33.180  0.00  0.00    +0.027 A 
ATOM     24  C   UNL     1     -13.688   5.198  32.424  0.00  0.00    +0.055 A 
ATOM     25  C   UNL     1     -14.221   6.282  34.504  0.00  0.00    +0.031 A 
ATOM     26  C   UNL     1     -13.998   3.994  33.035  0.00  0.00    +0.119 A 
ATOM     27  C   UNL     1     -14.507   5.029  35.021  0.00  0.00    +0.113 A 
ATOM     31  H   UNL     1     -14.103   1.944  32.712  0.00  0.00    +0.148 HD
BRANCH   9  28
ATOM     28  C   UNL     1     -13.456   2.842  30.889  0.00  0.00    +0.131 C 
BRANCH  28  29
ATOM     29  C   UNL     1     -14.167   1.750  30.107  0.00  0.00    +0.178 C 
BRANCH  29   3
ATOM      3  O   UNL     1     -13.892   0.487  30.699  0.00  0.00    -0.381 OA
ATOM     30  C   UNL     1     -13.654  -0.509  29.714  0.00  0.00    +0.194 C 
ENDBRANCH  29   3
ENDBRANCH  28  29
ENDBRANCH   9  28
ENDBRANCH  22  23
BRANCH  19  11
ATOM      4  N   UNL     1     -11.989  10.989  30.091  0.00  0.00    -0.288 NA
ATOM     11  C   UNL     1     -11.390  10.101  31.108  0.00  0.00    +0.146 C 
ATOM     12  C   UNL     1     -11.200  12.221  30.102  0.00  0.00    +0.085 C 
ATOM     13  C   UNL     1     -10.762  11.057  32.140  0.00  0.00    +0.030 C 
ATOM     16  C   UNL     1     -11.004  12.454  31.586  0.00  0.00    +0.017 C 
BRANCH   4  10
ATOM      2  O   UNL     1     -11.283  11.652  24.019  0.00  0.00    -0.276 OA
ATOM      5  N   UNL     1     -12.240  10.654  25.885  0.00  0.00    -0.302 N 
ATOM     10  C   UNL     1     -12.044  10.385  28.761  0.00  0.00    +0.060 C 
ATOM     14  C   UNL     1     -10.858  10.865  27.915  0.00  0.00    +0.038 C 
ATOM     15  C   UNL     1     -13.370  10.742  28.076  0.00  0.00    +0.038 C 
ATOM     17  C   UNL     1     -10.949  10.321  26.490  0.00  0.00    +0.109 C 
ATOM     18  C   UNL     1     -13.411  10.202  26.647  0.00  0.00    +0.109 C 
ATOM     20  C   UNL     1     -12.283  11.314  24.657  0.00  0.00    +0.212 C 
ATOM     21  C   UNL     1     -13.650  11.623  24.102  0.00  0.00    +0.109 C 
ENDBRANCH   4  10
ENDBRANCH  19  11
TORSDOF 6
ENDMDL
MODEL 8
REMARK VINA RESULT:      -6.4      3.346      6.749
REMARK  Name = 45783272
REMARK  8 active torsions:
REMARK  status: ('A' for Active; 'I' for Inactive)
REMARK    1  A    between atoms: O_3  and  C_29
REMARK    2  A    between atoms: O_3  and  C_30
REMARK    3  A    between atoms: N_4  and  C_10
REMARK    4  A    between atoms: N_9  and  C_28
REMARK    5  A    between atoms: C_11  and  C_19
REMARK    6  A    between atoms: C_20  and  C_21
REMARK    7  A    between atoms: C_22  and  C_23
REMARK    8  A    between atoms: C_28  and  C_29
REMARK                            x       y       z     vdW  Elec       q    Type
REMARK                         _______ _______ _______ _____ _____    ______ ____
ROOT
ATOM      1  O   UNL     1      -7.740  -9.172  17.390  0.00  0.00    -0.336 OA
ATOM      6  N   UNL     1      -9.523 -10.502  17.652  0.00  0.00    -0.190 NA
ATOM      7  N   UNL     1      -8.858  -8.392  17.069  0.00  0.00    -0.056 NA
ATOM     19  C   UNL     1      -8.220 -10.399  17.722  0.00  0.00    +0.245 A 
ATOM     22  C   UNL     1      -9.871  -9.246  17.248  0.00  0.00    +0.202 A 
ENDROOT
BRANCH  22  23
ATOM      8  N   UNL     1     -13.907  -8.158  16.604  0.00  0.00    -0.240 NA
ATOM      9  N   UNL     1     -13.182  -6.312  15.283  0.00  0.00    -0.327 N 
ATOM     23  C   UNL     1     -11.239  -8.876  17.031  0.00  0.00    +0.027 A 
ATOM     24  C   UNL     1     -11.547  -7.764  16.256  0.00  0.00    +0.055 A 
ATOM     25  C   UNL     1     -12.264  -9.630  17.593  0.00  0.00    +0.031 A 
ATOM     26  C   UNL     1     -12.884  -7.449  16.074  0.00  0.00    +0.119 A 
ATOM     27  C   UNL     1     -13.569  -9.232  17.351  0.00  0.00    +0.113 A 
ATOM     31  H   UNL     1     -14.164  -6.095  15.156  0.00  0.00    +0.148 HD
BRANCH   9  28
ATOM     28  C   UNL     1     -12.170  -5.504  14.686  0.00  0.00    +0.131 C 
BRANCH  28  29
ATOM     29  C   UNL     1     -12.555  -5.163  13.255  0.00  0.00    +0.178 C 
BRANCH  29   3
ATOM      3  O   UNL     1     -12.593  -3.751  13.097  0.00  0.00    -0.381 OA
ATOM     30  C   UNL     1     -12.301  -3.367  11.761  0.00  0.00    +0.194 C 
ENDBRANCH  29   3
ENDBRANCH  28  29
ENDBRANCH   9  28
ENDBRANCH  22  23
BRANCH  19  11
ATOM      4  N   UNL     1      -5.825 -11.075  17.701  0.00  0.00    -0.288 NA
ATOM     11  C   UNL     1      -7.194 -11.441  18.115  0.00  0.00    +0.146 C 
ATOM     12  C   UNL     1      -4.920 -11.693  18.670  0.00  0.00    +0.085 C 
ATOM     13  C   UNL     1      -7.101 -11.640  19.639  0.00  0.00    +0.030 C 
ATOM     16  C   UNL     1      -5.633 -11.425  19.979  0.00  0.00    +0.017 C 
BRANCH   4  10
ATOM      2  O   UNL     1      -1.562 -12.655  13.560  0.00  0.00    -0.276 OA
ATOM      5  N   UNL     1      -3.611 -11.742  14.162  0.00  0.00    -0.302 N 
ATOM     10  C   UNL     1      -5.513 -11.470  16.328  0.00  0.00    +0.060 C 
ATOM     14  C   UNL     1      -4.445 -12.572  16.328  0.00  0.00    +0.038 C 
ATOM     15  C   UNL     1      -5.028 -10.254  15.527  0.00  0.00    +0.038 C 
ATOM     17  C   UNL     1      -4.034 -12.933  14.902  0.00  0.00    +0.109 C 
ATOM     18  C   UNL     1      -4.604 -10.661  14.117  0.00  0.00    +0.109 C 
ATOM     20  C   UNL     1      -2.365 -11.718  13.537  0.00  0.00    +0.212 C 
ATOM     21  C   UNL     1      -2.003 -10.455  12.798  0.00  0.00    +0.109 C 
ENDBRANCH   4  10
ENDBRANCH  19  11
TORSDOF 6
ENDMDL
MODEL 9
REMARK VINA RESULT:      -6.3     19.867     21.607
REMARK  Name = 45783272
REMARK  8 active torsions:
REMARK  status: ('A' for Active; 'I' for Inactive)
REMARK    1  A    between atoms: O_3  and  C_29
REMARK    2  A    between atoms: O_3  and  C_30
REMARK    3  A    between atoms: N_4  and  C_10
REMARK    4  A    between atoms: N_9  and  C_28
REMARK    5  A    between atoms: C_11  and  C_19
REMARK    6  A    between atoms: C_20  and  C_21
REMARK    7  A    between atoms: C_22  and  C_23
REMARK    8  A    between atoms: C_28  and  C_29
REMARK                            x       y       z     vdW  Elec       q    Type
REMARK                         _______ _______ _______ _____ _____    ______ ____
ROOT
ATOM      1  O   UNL     1     -17.110   5.018  27.247  0.00  0.00    -0.336 OA
ATOM      6  N   UNL     1     -16.219   3.053  26.646  0.00  0.00    -0.190 NA
ATOM      7  N   UNL     1     -16.569   4.464  28.413  0.00  0.00    -0.056 NA
ATOM     19  C   UNL     1     -16.861   4.124  26.254  0.00  0.00    +0.245 A 
ATOM     22  C   UNL     1     -16.061   3.306  27.978  0.00  0.00    +0.202 A 
ENDROOT
BRANCH  22  23
ATOM      8  N   UNL     1     -14.092   0.579  30.542  0.00  0.00    -0.240 NA
ATOM      9  N   UNL     1     -13.195   2.409  31.775  0.00  0.00    -0.327 N 
ATOM     23  C   UNL     1     -15.393   2.381  28.847  0.00  0.00    +0.027 A 
ATOM     24  C   UNL     1     -14.612   2.850  29.897  0.00  0.00    +0.055 A 
ATOM     25  C   UNL     1     -15.524   1.012  28.642  0.00  0.00    +0.031 A 
ATOM     26  C   UNL     1     -13.988   1.916  30.709  0.00  0.00    +0.119 A 
ATOM     27  C   UNL     1     -14.859   0.161  29.510  0.00  0.00    +0.113 A 
ATOM     31  H   UNL     1     -12.747   1.716  32.362  0.00  0.00    +0.148 HD
BRANCH   9  28
ATOM     28  C   UNL     1     -13.025   3.803  32.027  0.00  0.00    +0.131 C 
BRANCH  28  29
ATOM     29  C   UNL     1     -13.912   4.232  33.185  0.00  0.00    +0.178 C 
BRANCH  29   3
ATOM      3  O   UNL     1     -15.018   4.972  32.686  0.00  0.00    -0.381 OA
ATOM     30  C   UNL     1     -16.253   4.366  33.039  0.00  0.00    +0.194 C 
ENDBRANCH  29   3
ENDBRANCH  28  29
ENDBRANCH   9  28
ENDBRANCH  22  23
BRANCH  19  11
ATOM      4  N   UNL     1     -16.396   4.128  23.810  0.00  0.00    -0.288 NA
ATOM     11  C   UNL     1     -17.353   4.496  24.872  0.00  0.00    +0.146 C 
ATOM     12  C   UNL     1     -17.190   3.866  22.609  0.00  0.00    +0.085 C 
ATOM     13  C   UNL     1     -18.657   3.772  24.489  0.00  0.00    +0.030 C 
ATOM     16  C   UNL     1     -18.354   3.075  23.170  0.00  0.00    +0.017 C 
BRANCH   4  10
ATOM      2  O   UNL     1     -14.655   9.198  20.796  0.00  0.00    -0.276 OA
ATOM      5  N   UNL     1     -14.212   7.210  21.914  0.00  0.00    -0.302 N 
ATOM     10  C   UNL     1     -15.372   5.146  23.579  0.00  0.00    +0.060 C 
ATOM     14  C   UNL     1     -16.026   6.527  23.436  0.00  0.00    +0.038 C 
ATOM     15  C   UNL     1     -14.563   4.803  22.321  0.00  0.00    +0.038 C 
ATOM     17  C   UNL     1     -14.984   7.592  23.098  0.00  0.00    +0.109 C 
ATOM     18  C   UNL     1     -13.550   5.903  22.005  0.00  0.00    +0.109 C 
ATOM     20  C   UNL     1     -14.119   8.087  20.834  0.00  0.00    +0.212 C 
ATOM     21  C   UNL     1     -13.307   7.621  19.651  0.00  0.00    +0.109 C 
ENDBRANCH   4  10
ENDBRANCH  19  11
TORSDOF 6
ENDMDL
MODEL 10
REMARK VINA RESULT:      -6.3     28.172     30.917
REMARK  Name = 45783272
REMARK  8 active torsions:
REMARK  status: ('A' for Active; 'I' for Inactive)
REMARK    1  A    between atoms: O_3  and  C_29
REMARK    2  A    between atoms: O_3  and  C_30
REMARK    3  A    between atoms: N_4  and  C_10
REMARK    4  A    between atoms: N_9  and  C_28
REMARK    5  A    between atoms: C_11  and  C_19
REMARK    6  A    between atoms: C_20  and  C_21
REMARK    7  A    between atoms: C_22  and  C_23
REMARK    8  A    between atoms: C_28  and  C_29
REMARK                            x       y       z     vdW  Elec       q    Type
REMARK                         _______ _______ _______ _____ _____    ______ ____
ROOT
ATOM      1  O   UNL     1      17.684   7.032  21.726  0.00  0.00    -0.336 OA
ATOM      6  N   UNL     1      17.329   6.546  19.569  0.00  0.00    -0.190 NA
ATOM      7  N   UNL     1      16.327   7.282  21.490  0.00  0.00    -0.056 NA
ATOM     19  C   UNL     1      18.199   6.603  20.544  0.00  0.00    +0.245 A 
ATOM     22  C   UNL     1      16.194   6.971  20.197  0.00  0.00    +0.202 A 
ENDROOT
BRANCH  22  23
ATOM      8  N   UNL     1      12.505   7.283  18.151  0.00  0.00    -0.240 NA
ATOM      9  N   UNL     1      11.353   6.892  20.199  0.00  0.00    -0.327 N 
ATOM     23  C   UNL     1      14.943   7.076  19.503  0.00  0.00    +0.027 A 
ATOM     24  C   UNL     1      13.746   6.931  20.196  0.00  0.00    +0.055 A 
ATOM     25  C   UNL     1      14.923   7.323  18.135  0.00  0.00    +0.031 A 
ATOM     26  C   UNL     1      12.565   7.043  19.480  0.00  0.00    +0.119 A 
ATOM     27  C   UNL     1      13.689   7.417  17.511  0.00  0.00    +0.113 A 
ATOM     31  H   UNL     1      10.497   6.979  19.664  0.00  0.00    +0.148 HD
BRANCH   9  28
ATOM     28  C   UNL     1      11.318   6.635  21.602  0.00  0.00    +0.131 C 
BRANCH  28  29
ATOM     29  C   UNL     1      10.556   7.741  22.313  0.00  0.00    +0.178 C 
BRANCH  29   3
ATOM      3  O   UNL     1      11.460   8.768  22.700  0.00  0.00    -0.381 OA
ATOM     30  C   UNL     1      10.914  10.059  22.467  0.00  0.00    +0.194 C 
ENDBRANCH  29   3
ENDBRANCH  28  29
ENDBRANCH   9  28
ENDBRANCH  22  23
BRANCH  19  11
ATOM      4  N   UNL     1      20.259   6.232  21.891  0.00  0.00    -0.288 NA
ATOM     11  C   UNL     1      19.675   6.262  20.535  0.00  0.00    +0.146 C 
ATOM     12  C   UNL     1      21.360   5.270  21.846  0.00  0.00    +0.085 C 
ATOM     13  C   UNL     1      19.959   4.863  19.957  0.00  0.00    +0.030 C 
ATOM     16  C   UNL     1      20.758   4.142  21.033  0.00  0.00    +0.017 C 
BRANCH   4  10
ATOM      2  O   UNL     1      24.557   9.609  24.707  0.00  0.00    -0.276 OA
ATOM      5  N   UNL     1      22.364   9.174  24.076  0.00  0.00    -0.302 N 
ATOM     10  C   UNL     1      20.697   7.546  22.359  0.00  0.00    +0.060 C 
ATOM     14  C   UNL     1      22.196   7.729  22.086  0.00  0.00    +0.038 C 
ATOM     15  C   UNL     1      20.402   7.696  23.857  0.00  0.00    +0.038 C 
ATOM     17  C   UNL     1      22.695   9.056  22.654  0.00  0.00    +0.109 C 
ATOM     18  C   UNL     1      20.938   9.024  24.390  0.00  0.00    +0.109 C 
ATOM     20  C   UNL     1      23.370   9.452  25.002  0.00  0.00    +0.212 C 
ATOM     21  C   UNL     1      22.948   9.556  26.446  0.00  0.00    +0.109 C 
ENDBRANCH   4  10
ENDBRANCH  19  11
TORSDOF 6
ENDMDL
