MODEL 1
REMARK VINA RESULT:      -7.8      0.000      0.000
REMARK  Name = 51137102
REMARK  3 active torsions:
REMARK  status: ('A' for Active; 'I' for Inactive)
REMARK    1  A    between atoms: N_3  and  C_11
REMARK    2  A    between atoms: C_6  and  C_10
REMARK    3  A    between atoms: C_11  and  C_12
REMARK                            x       y       z     vdW  Elec       q    Type
REMARK                         _______ _______ _______ _____ _____    ______ ____
ROOT
ATOM      3  N   UNL     1      11.851   4.315   1.872  0.00  0.00    -0.297 NA
ATOM      6  C   UNL     1      10.426   5.392   3.392  0.00  0.00    +0.070 C 
ATOM      7  C   UNL     1      11.500   6.380   2.904  0.00  0.00    +0.028 C 
ATOM      8  C   UNL     1      10.960   4.010   2.994  0.00  0.00    +0.096 C 
ATOM      9  C   UNL     1      12.586   5.508   2.289  0.00  0.00    +0.085 C 
ENDROOT
BRANCH   6  10
ATOM      2  F   UNL     1       9.287   4.286  10.481  0.00  0.00    -0.205 F 
ATOM      4  N   UNL     1      10.239   4.424   5.701  0.00  0.00    -0.341 N 
ATOM      5  N   UNL     1       9.636   6.553   5.493  0.00  0.00    -0.232 NA
ATOM     10  C   UNL     1      10.089   5.493   4.862  0.00  0.00    +0.113 A 
ATOM     13  C   UNL     1       9.857   4.820   6.957  0.00  0.00    +0.069 A 
ATOM     14  C   UNL     1       9.486   6.153   6.801  0.00  0.00    +0.089 A 
ATOM     17  C   UNL     1       9.808   4.148   8.179  0.00  0.00    +0.066 A 
ATOM     18  C   UNL     1       9.033   6.873   7.919  0.00  0.00    +0.032 A 
ATOM     19  C   UNL     1       9.356   4.881   9.281  0.00  0.00    +0.125 A 
ATOM     20  C   UNL     1       8.974   6.219   9.156  0.00  0.00    +0.040 A 
ATOM     24  H   UNL     1      10.572   3.504   5.444  0.00  0.00    +0.167 HD
ENDBRANCH   6  10
BRANCH   3  11
ATOM     11  C   UNL     1      12.733   3.205   1.546  0.00  0.00    +0.122 C 
BRANCH  11  12
ATOM      1  F   UNL     1      15.483   3.414   2.190  0.00  0.00    -0.205 F 
ATOM     12  C   UNL     1      13.784   3.600   0.543  0.00  0.00    +0.002 A 
ATOM     15  C   UNL     1      15.122   3.684   0.928  0.00  0.00    +0.128 A 
ATOM     16  C   UNL     1      13.418   3.883  -0.773  0.00  0.00    +0.008 A 
ATOM     21  C   UNL     1      16.094   4.049  -0.003  0.00  0.00    +0.038 A 
ATOM     22  C   UNL     1      14.389   4.248  -1.704  0.00  0.00    +0.000 A 
ATOM     23  C   UNL     1      15.728   4.332  -1.319  0.00  0.00    +0.003 A 
ENDBRANCH  11  12
ENDBRANCH   3  11
TORSDOF 3
ENDMDL
MODEL 2
REMARK VINA RESULT:      -7.0     21.952     24.982
REMARK  Name = 51137102
REMARK  3 active torsions:
REMARK  status: ('A' for Active; 'I' for Inactive)
REMARK    1  A    between atoms: N_3  and  C_11
REMARK    2  A    between atoms: C_6  and  C_10
REMARK    3  A    between atoms: C_11  and  C_12
REMARK                            x       y       z     vdW  Elec       q    Type
REMARK                         _______ _______ _______ _____ _____    ______ ____
ROOT
ATOM      3  N   UNL     1      -2.142 -11.036  13.424  0.00  0.00    -0.297 NA
ATOM      6  C   UNL     1      -2.971 -10.304  15.492  0.00  0.00    +0.070 C 
ATOM      7  C   UNL     1      -1.637 -11.042  15.704  0.00  0.00    +0.028 C 
ATOM      8  C   UNL     1      -3.409 -10.692  14.074  0.00  0.00    +0.096 C 
ATOM      9  C   UNL     1      -1.411 -11.823  14.416  0.00  0.00    +0.085 C 
ENDROOT
BRANCH   6  10
ATOM      2  F   UNL     1      -8.964 -10.625  19.586  0.00  0.00    -0.205 F 
ATOM      4  N   UNL     1      -5.264 -10.007  16.471  0.00  0.00    -0.341 N 
ATOM      5  N   UNL     1      -3.911 -11.382  17.576  0.00  0.00    -0.232 NA
ATOM     10  C   UNL     1      -4.027 -10.589  16.534  0.00  0.00    +0.113 A 
ATOM     13  C   UNL     1      -5.993 -10.455  17.542  0.00  0.00    +0.069 A 
ATOM     14  C   UNL     1      -5.127 -11.312  18.215  0.00  0.00    +0.089 A 
ATOM     17  C   UNL     1      -7.296 -10.193  17.966  0.00  0.00    +0.066 A 
ATOM     18  C   UNL     1      -5.569 -11.953  19.385  0.00  0.00    +0.032 A 
ATOM     19  C   UNL     1      -7.720 -10.840  19.131  0.00  0.00    +0.125 A 
ATOM     20  C   UNL     1      -6.874 -11.704  19.830  0.00  0.00    +0.040 A 
ATOM     24  H   UNL     1      -5.586  -9.362  15.762  0.00  0.00    +0.167 HD
ENDBRANCH   6  10
BRANCH   3  11
ATOM     11  C   UNL     1      -2.336 -11.758  12.177  0.00  0.00    +0.122 C 
BRANCH  11  12
ATOM      1  F   UNL     1      -1.459  -9.281  11.118  0.00  0.00    -0.205 F 
ATOM     12  C   UNL     1      -3.138 -10.958  11.184  0.00  0.00    +0.002 A 
ATOM     15  C   UNL     1      -2.646  -9.745  10.703  0.00  0.00    +0.128 A 
ATOM     16  C   UNL     1      -4.374 -11.433  10.745  0.00  0.00    +0.008 A 
ATOM     21  C   UNL     1      -3.389  -9.007   9.783  0.00  0.00    +0.038 A 
ATOM     22  C   UNL     1      -5.118 -10.694   9.826  0.00  0.00    +0.000 A 
ATOM     23  C   UNL     1      -4.626  -9.480   9.345  0.00  0.00    +0.003 A 
ENDBRANCH  11  12
ENDBRANCH   3  11
TORSDOF 3
ENDMDL
MODEL 3
REMARK VINA RESULT:      -6.9     29.017     33.403
REMARK  Name = 51137102
REMARK  3 active torsions:
REMARK  status: ('A' for Active; 'I' for Inactive)
REMARK    1  A    between atoms: N_3  and  C_11
REMARK    2  A    between atoms: C_6  and  C_10
REMARK    3  A    between atoms: C_11  and  C_12
REMARK                            x       y       z     vdW  Elec       q    Type
REMARK                         _______ _______ _______ _____ _____    ______ ____
ROOT
ATOM      3  N   UNL     1     -14.954   5.879  22.046  0.00  0.00    -0.297 NA
ATOM      6  C   UNL     1     -15.723   3.946  23.129  0.00  0.00    +0.070 C 
ATOM      7  C   UNL     1     -16.915   4.700  22.514  0.00  0.00    +0.028 C 
ATOM      8  C   UNL     1     -14.575   4.964  23.125  0.00  0.00    +0.096 C 
ATOM      9  C   UNL     1     -16.389   6.100  22.226  0.00  0.00    +0.085 C 
ENDROOT
BRANCH   6  10
ATOM      2  F   UNL     1     -16.548   2.623  30.224  0.00  0.00    -0.205 F 
ATOM      4  N   UNL     1     -15.830   4.098  25.633  0.00  0.00    -0.341 N 
ATOM      5  N   UNL     1     -16.361   2.124  24.760  0.00  0.00    -0.232 NA
ATOM     10  C   UNL     1     -15.981   3.354  24.495  0.00  0.00    +0.113 A 
ATOM     13  C   UNL     1     -16.133   3.295  26.702  0.00  0.00    +0.069 A 
ATOM     14  C   UNL     1     -16.461   2.069  26.131  0.00  0.00    +0.089 A 
ATOM     17  C   UNL     1     -16.149   3.530  28.077  0.00  0.00    +0.066 A 
ATOM     18  C   UNL     1     -16.828   1.000  26.967  0.00  0.00    +0.032 A 
ATOM     19  C   UNL     1     -16.516   2.455  28.894  0.00  0.00    +0.125 A 
ATOM     20  C   UNL     1     -16.849   1.212  28.351  0.00  0.00    +0.040 A 
ATOM     24  H   UNL     1     -15.547   5.068  25.680  0.00  0.00    +0.167 HD
ENDBRANCH   6  10
BRANCH   3  11
ATOM     11  C   UNL     1     -14.194   7.118  22.076  0.00  0.00    +0.122 C 
BRANCH  11  12
ATOM      1  F   UNL     1     -11.582   6.159  21.546  0.00  0.00    -0.205 F 
ATOM     12  C   UNL     1     -13.474   7.367  20.777  0.00  0.00    +0.002 A 
ATOM     15  C   UNL     1     -12.188   6.866  20.582  0.00  0.00    +0.128 A 
ATOM     16  C   UNL     1     -14.097   8.101  19.768  0.00  0.00    +0.008 A 
ATOM     21  C   UNL     1     -11.524   7.096  19.378  0.00  0.00    +0.038 A 
ATOM     22  C   UNL     1     -13.434   8.333  18.563  0.00  0.00    +0.000 A 
ATOM     23  C   UNL     1     -12.146   7.831  18.368  0.00  0.00    +0.003 A 
ENDBRANCH  11  12
ENDBRANCH   3  11
TORSDOF 3
ENDMDL
MODEL 4
REMARK VINA RESULT:      -6.9      5.436      6.033
REMARK  Name = 51137102
REMARK  3 active torsions:
REMARK  status: ('A' for Active; 'I' for Inactive)
REMARK    1  A    between atoms: N_3  and  C_11
REMARK    2  A    between atoms: C_6  and  C_10
REMARK    3  A    between atoms: C_11  and  C_12
REMARK                            x       y       z     vdW  Elec       q    Type
REMARK                         _______ _______ _______ _____ _____    ______ ____
ROOT
ATOM      3  N   UNL     1      16.391   8.512   5.132  0.00  0.00    -0.297 NA
ATOM      6  C   UNL     1      14.273   7.507   5.087  0.00  0.00    +0.070 C 
ATOM      7  C   UNL     1      14.325   8.646   4.053  0.00  0.00    +0.028 C 
ATOM      8  C   UNL     1      15.485   7.751   5.995  0.00  0.00    +0.096 C 
ATOM      9  C   UNL     1      15.535   9.481   4.448  0.00  0.00    +0.085 C 
ENDROOT
BRANCH   6  10
ATOM      2  F   UNL     1       8.701   5.587   9.335  0.00  0.00    -0.205 F 
ATOM      4  N   UNL     1      12.722   6.344   6.682  0.00  0.00    -0.341 N 
ATOM      5  N   UNL     1      11.975   8.255   5.827  0.00  0.00    -0.232 NA
ATOM     10  C   UNL     1      12.975   7.401   5.852  0.00  0.00    +0.113 A 
ATOM     13  C   UNL     1      11.478   6.528   7.228  0.00  0.00    +0.069 A 
ATOM     14  C   UNL     1      11.034   7.727   6.679  0.00  0.00    +0.089 A 
ATOM     17  C   UNL     1      10.727   5.771   8.128  0.00  0.00    +0.066 A 
ATOM     18  C   UNL     1       9.765   8.216   7.037  0.00  0.00    +0.032 A 
ATOM     19  C   UNL     1       9.468   6.273   8.474  0.00  0.00    +0.125 A 
ATOM     20  C   UNL     1       8.993   7.473   7.939  0.00  0.00    +0.040 A 
ATOM     24  H   UNL     1      13.340   5.564   6.863  0.00  0.00    +0.167 HD
ENDBRANCH   6  10
BRANCH   3  11
ATOM     11  C   UNL     1      17.464   9.150   5.879  0.00  0.00    +0.122 C 
BRANCH  11  12
ATOM      1  F   UNL     1      19.565   9.085   7.778  0.00  0.00    -0.205 F 
ATOM     12  C   UNL     1      18.798   8.505   5.608  0.00  0.00    +0.002 A 
ATOM     15  C   UNL     1      19.789   8.509   6.589  0.00  0.00    +0.128 A 
ATOM     16  C   UNL     1      19.040   7.902   4.374  0.00  0.00    +0.008 A 
ATOM     21  C   UNL     1      21.022   7.909   6.336  0.00  0.00    +0.038 A 
ATOM     22  C   UNL     1      20.273   7.303   4.121  0.00  0.00    +0.000 A 
ATOM     23  C   UNL     1      21.266   7.307   5.102  0.00  0.00    +0.003 A 
ENDBRANCH  11  12
ENDBRANCH   3  11
TORSDOF 3
ENDMDL
MODEL 5
REMARK VINA RESULT:      -6.8     22.928     26.005
REMARK  Name = 51137102
REMARK  3 active torsions:
REMARK  status: ('A' for Active; 'I' for Inactive)
REMARK    1  A    between atoms: N_3  and  C_11
REMARK    2  A    between atoms: C_6  and  C_10
REMARK    3  A    between atoms: C_11  and  C_12
REMARK                            x       y       z     vdW  Elec       q    Type
REMARK                         _______ _______ _______ _____ _____    ______ ____
ROOT
ATOM      3  N   UNL     1      -4.077 -10.738  14.547  0.00  0.00    -0.297 NA
ATOM      6  C   UNL     1      -5.368  -9.739  16.230  0.00  0.00    +0.070 C 
ATOM      7  C   UNL     1      -4.239 -10.566  16.870  0.00  0.00    +0.028 C 
ATOM      8  C   UNL     1      -5.429 -10.224  14.776  0.00  0.00    +0.096 C 
ATOM      9  C   UNL     1      -3.747 -11.485  15.760  0.00  0.00    +0.085 C 
ENDROOT
BRANCH   6  10
ATOM      2  F   UNL     1     -12.227  -9.022  18.515  0.00  0.00    -0.205 F 
ATOM      4  N   UNL     1      -7.767  -9.068  16.545  0.00  0.00    -0.341 N 
ATOM      5  N   UNL     1      -6.997 -10.599  17.961  0.00  0.00    -0.232 NA
ATOM     10  C   UNL     1      -6.700  -9.828  16.938  0.00  0.00    +0.113 A 
ATOM     13  C   UNL     1      -8.821  -9.367  17.369  0.00  0.00    +0.069 A 
ATOM     14  C   UNL     1      -8.315 -10.325  18.243  0.00  0.00    +0.089 A 
ATOM     17  C   UNL     1     -10.134  -8.898  17.421  0.00  0.00    +0.066 A 
ATOM     18  C   UNL     1      -9.155 -10.856  19.237  0.00  0.00    +0.032 A 
ATOM     19  C   UNL     1     -10.955  -9.438  18.417  0.00  0.00    +0.125 A 
ATOM     20  C   UNL     1     -10.477 -10.399  19.310  0.00  0.00    +0.040 A 
ATOM     24  H   UNL     1      -7.779  -8.403  15.783  0.00  0.00    +0.167 HD
ENDBRANCH   6  10
BRANCH   3  11
ATOM     11  C   UNL     1      -3.991 -11.559  13.349  0.00  0.00    +0.122 C 
BRANCH  11  12
ATOM      1  F   UNL     1      -1.558 -10.334  12.570  0.00  0.00    -0.205 F 
ATOM     12  C   UNL     1      -3.853 -10.723  12.104  0.00  0.00    +0.002 A 
ATOM     15  C   UNL     1      -2.625 -10.148  11.779  0.00  0.00    +0.128 A 
ATOM     16  C   UNL     1      -4.957 -10.524  11.276  0.00  0.00    +0.008 A 
ATOM     21  C   UNL     1      -2.500  -9.375  10.626  0.00  0.00    +0.038 A 
ATOM     22  C   UNL     1      -4.833  -9.750  10.122  0.00  0.00    +0.000 A 
ATOM     23  C   UNL     1      -3.604  -9.175   9.797  0.00  0.00    +0.003 A 
ENDBRANCH  11  12
ENDBRANCH   3  11
TORSDOF 3
ENDMDL
MODEL 6
REMARK VINA RESULT:      -6.7     16.884     19.532
REMARK  Name = 51137102
REMARK  3 active torsions:
REMARK  status: ('A' for Active; 'I' for Inactive)
REMARK    1  A    between atoms: N_3  and  C_11
REMARK    2  A    between atoms: C_6  and  C_10
REMARK    3  A    between atoms: C_11  and  C_12
REMARK                            x       y       z     vdW  Elec       q    Type
REMARK                         _______ _______ _______ _____ _____    ______ ____
ROOT
ATOM      3  N   UNL     1      15.891   7.767  20.721  0.00  0.00    -0.297 NA
ATOM      6  C   UNL     1      18.049   7.021  20.186  0.00  0.00    +0.070 C 
ATOM      7  C   UNL     1      17.008   6.126  19.491  0.00  0.00    +0.028 C 
ATOM      8  C   UNL     1      17.254   7.783  21.255  0.00  0.00    +0.096 C 
ATOM      9  C   UNL     1      15.699   6.407  20.217  0.00  0.00    +0.085 C 
ENDROOT
BRANCH   6  10
ATOM      2  F   UNL     1      23.564   2.503  21.582  0.00  0.00    -0.205 F 
ATOM      4  N   UNL     1      19.753   5.178  20.134  0.00  0.00    -0.341 N 
ATOM      5  N   UNL     1      19.909   6.591  21.843  0.00  0.00    -0.232 NA
ATOM     10  C   UNL     1      19.242   6.286  20.752  0.00  0.00    +0.113 A 
ATOM     13  C   UNL     1      20.820   4.739  20.876  0.00  0.00    +0.069 A 
ATOM     14  C   UNL     1      20.896   5.638  21.936  0.00  0.00    +0.089 A 
ATOM     17  C   UNL     1      21.698   3.667  20.714  0.00  0.00    +0.066 A 
ATOM     18  C   UNL     1      21.902   5.472  22.904  0.00  0.00    +0.032 A 
ATOM     19  C   UNL     1      22.692   3.517  21.686  0.00  0.00    +0.125 A 
ATOM     20  C   UNL     1      22.794   4.401  22.763  0.00  0.00    +0.040 A 
ATOM     24  H   UNL     1      19.409   4.756  19.282  0.00  0.00    +0.167 HD
ENDBRANCH   6  10
BRANCH   3  11
ATOM     11  C   UNL     1      14.899   8.134  21.719  0.00  0.00    +0.122 C 
BRANCH  11  12
ATOM      1  F   UNL     1      14.283   9.990  19.670  0.00  0.00    -0.205 F 
ATOM     12  C   UNL     1      13.524   8.271  21.121  0.00  0.00    +0.002 A 
ATOM     15  C   UNL     1      13.290   9.207  20.114  0.00  0.00    +0.128 A 
ATOM     16  C   UNL     1      12.484   7.461  21.575  0.00  0.00    +0.008 A 
ATOM     21  C   UNL     1      12.016   9.332  19.560  0.00  0.00    +0.038 A 
ATOM     22  C   UNL     1      11.210   7.585  21.022  0.00  0.00    +0.000 A 
ATOM     23  C   UNL     1      10.975   8.522  20.014  0.00  0.00    +0.003 A 
ENDBRANCH  11  12
ENDBRANCH   3  11
TORSDOF 3
ENDMDL
MODEL 7
REMARK VINA RESULT:      -6.7     34.635     37.858
REMARK  Name = 51137102
REMARK  3 active torsions:
REMARK  status: ('A' for Active; 'I' for Inactive)
REMARK    1  A    between atoms: N_3  and  C_11
REMARK    2  A    between atoms: C_6  and  C_10
REMARK    3  A    between atoms: C_11  and  C_12
REMARK                            x       y       z     vdW  Elec       q    Type
REMARK                         _______ _______ _______ _____ _____    ______ ____
ROOT
ATOM      3  N   UNL     1     -14.615   2.368  31.038  0.00  0.00    -0.297 NA
ATOM      6  C   UNL     1     -16.144   2.099  29.281  0.00  0.00    +0.070 C 
ATOM      7  C   UNL     1     -15.565   0.728  29.673  0.00  0.00    +0.028 C 
ATOM      8  C   UNL     1     -15.197   3.120  29.925  0.00  0.00    +0.096 C 
ATOM      9  C   UNL     1     -14.317   1.047  30.485  0.00  0.00    +0.085 C 
ENDROOT
BRANCH   6  10
ATOM      2  F   UNL     1     -15.970   4.418  22.398  0.00  0.00    -0.205 F 
ATOM      4  N   UNL     1     -15.698   3.344  27.147  0.00  0.00    -0.341 N 
ATOM      5  N   UNL     1     -17.048   1.587  26.977  0.00  0.00    -0.232 NA
ATOM     10  C   UNL     1     -16.320   2.314  27.795  0.00  0.00    +0.113 A 
ATOM     13  C   UNL     1     -16.047   3.278  25.823  0.00  0.00    +0.069 A 
ATOM     14  C   UNL     1     -16.890   2.173  25.742  0.00  0.00    +0.089 A 
ATOM     17  C   UNL     1     -15.707   4.065  24.722  0.00  0.00    +0.066 A 
ATOM     18  C   UNL     1     -17.437   1.818  24.498  0.00  0.00    +0.032 A 
ATOM     19  C   UNL     1     -16.261   3.696  23.491  0.00  0.00    +0.125 A 
ATOM     20  C   UNL     1     -17.111   2.594  23.378  0.00  0.00    +0.040 A 
ATOM     24  H   UNL     1     -15.088   4.033  27.566  0.00  0.00    +0.167 HD
ENDBRANCH   6  10
BRANCH   3  11
ATOM     11  C   UNL     1     -13.436   3.017  31.590  0.00  0.00    +0.122 C 
BRANCH  11  12
ATOM      1  F   UNL     1     -14.474   2.358  34.142  0.00  0.00    -0.205 F 
ATOM     12  C   UNL     1     -13.797   4.052  32.623  0.00  0.00    +0.002 A 
ATOM     15  C   UNL     1     -14.304   3.657  33.861  0.00  0.00    +0.128 A 
ATOM     16  C   UNL     1     -13.624   5.406  32.340  0.00  0.00    +0.008 A 
ATOM     21  C   UNL     1     -14.637   4.617  34.816  0.00  0.00    +0.038 A 
ATOM     22  C   UNL     1     -13.957   6.366  33.294  0.00  0.00    +0.000 A 
ATOM     23  C   UNL     1     -14.464   5.972  34.533  0.00  0.00    +0.003 A 
ENDBRANCH  11  12
ENDBRANCH   3  11
TORSDOF 3
ENDMDL
MODEL 8
REMARK VINA RESULT:      -6.7     14.172     15.848
REMARK  Name = 51137102
REMARK  3 active torsions:
REMARK  status: ('A' for Active; 'I' for Inactive)
REMARK    1  A    between atoms: N_3  and  C_11
REMARK    2  A    between atoms: C_6  and  C_10
REMARK    3  A    between atoms: C_11  and  C_12
REMARK                            x       y       z     vdW  Elec       q    Type
REMARK                         _______ _______ _______ _____ _____    ______ ____
ROOT
ATOM      3  N   UNL     1       2.509   4.532  -5.475  0.00  0.00    -0.297 NA
ATOM      6  C   UNL     1       1.629   2.361  -5.574  0.00  0.00    +0.070 C 
ATOM      7  C   UNL     1       2.865   2.457  -6.486  0.00  0.00    +0.028 C 
ATOM      8  C   UNL     1       1.245   3.818  -5.284  0.00  0.00    +0.096 C 
ATOM      9  C   UNL     1       3.093   3.949  -6.683  0.00  0.00    +0.085 C 
ENDROOT
BRANCH   6  10
ATOM      2  F   UNL     1      -3.390  -2.650  -7.151  0.00  0.00    -0.205 F 
ATOM      4  N   UNL     1       0.186   0.307  -5.653  0.00  0.00    -0.341 N 
ATOM      5  N   UNL     1      -0.327   1.906  -7.109  0.00  0.00    -0.232 NA
ATOM     10  C   UNL     1       0.484   1.551  -6.138  0.00  0.00    +0.113 A 
ATOM     13  C   UNL     1      -0.890  -0.170  -6.357  0.00  0.00    +0.069 A 
ATOM     14  C   UNL     1      -1.191   0.847  -7.259  0.00  0.00    +0.089 A 
ATOM     17  C   UNL     1      -1.603  -1.367  -6.283  0.00  0.00    +0.066 A 
ATOM     18  C   UNL     1      -2.264   0.676  -8.150  0.00  0.00    +0.032 A 
ATOM     19  C   UNL     1      -2.669  -1.519  -7.177  0.00  0.00    +0.125 A 
ATOM     20  C   UNL     1      -2.995  -0.519  -8.095  0.00  0.00    +0.040 A 
ATOM     24  H   UNL     1       0.669  -0.176  -4.907  0.00  0.00    +0.167 HD
ENDBRANCH   6  10
BRANCH   3  11
ATOM     11  C   UNL     1       2.323   5.970  -5.587  0.00  0.00    +0.122 C 
BRANCH  11  12
ATOM      1  F   UNL     1       2.358   8.798  -5.419  0.00  0.00    -0.205 F 
ATOM     12  C   UNL     1       3.206   6.726  -4.629  0.00  0.00    +0.002 A 
ATOM     15  C   UNL     1       3.173   8.120  -4.599  0.00  0.00    +0.128 A 
ATOM     16  C   UNL     1       4.056   6.030  -3.771  0.00  0.00    +0.008 A 
ATOM     21  C   UNL     1       3.990   8.818  -3.710  0.00  0.00    +0.038 A 
ATOM     22  C   UNL     1       4.874   6.727  -2.882  0.00  0.00    +0.000 A 
ATOM     23  C   UNL     1       4.841   8.122  -2.852  0.00  0.00    +0.003 A 
ENDBRANCH  11  12
ENDBRANCH   3  11
TORSDOF 3
ENDMDL
MODEL 9
REMARK VINA RESULT:      -6.5     25.158     28.564
REMARK  Name = 51137102
REMARK  3 active torsions:
REMARK  status: ('A' for Active; 'I' for Inactive)
REMARK    1  A    between atoms: N_3  and  C_11
REMARK    2  A    between atoms: C_6  and  C_10
REMARK    3  A    between atoms: C_11  and  C_12
REMARK                            x       y       z     vdW  Elec       q    Type
REMARK                         _______ _______ _______ _____ _____    ______ ____
ROOT
ATOM      3  N   UNL     1      -5.135 -11.177  17.578  0.00  0.00    -0.297 NA
ATOM      6  C   UNL     1      -7.035 -10.437  18.737  0.00  0.00    +0.070 C 
ATOM      7  C   UNL     1      -5.861 -10.592  19.720  0.00  0.00    +0.028 C 
ATOM      8  C   UNL     1      -6.597 -11.204  17.482  0.00  0.00    +0.096 C 
ATOM      9  C   UNL     1      -4.844 -11.455  18.984  0.00  0.00    +0.085 C 
ENDROOT
BRANCH   6  10
ATOM      2  F   UNL     1     -13.920 -11.063  20.971  0.00  0.00    -0.205 F 
ATOM      4  N   UNL     1      -9.440 -10.040  19.338  0.00  0.00    -0.341 N 
ATOM      5  N   UNL     1      -8.677 -12.094  19.711  0.00  0.00    -0.232 NA
ATOM     10  C   UNL     1      -8.374 -10.893  19.269  0.00  0.00    +0.113 A 
ATOM     13  C   UNL     1     -10.501 -10.736  19.857  0.00  0.00    +0.069 A 
ATOM     14  C   UNL     1      -9.999 -12.015  20.081  0.00  0.00    +0.089 A 
ATOM     17  C   UNL     1     -11.817 -10.369  20.141  0.00  0.00    +0.066 A 
ATOM     18  C   UNL     1     -10.845 -12.999  20.622  0.00  0.00    +0.032 A 
ATOM     19  C   UNL     1     -12.645 -11.361  20.678  0.00  0.00    +0.125 A 
ATOM     20  C   UNL     1     -12.170 -12.652  20.915  0.00  0.00    +0.040 A 
ATOM     24  H   UNL     1      -9.449  -9.069  19.056  0.00  0.00    +0.167 HD
ENDBRANCH   6  10
BRANCH   3  11
ATOM     11  C   UNL     1      -4.503 -12.131  16.681  0.00  0.00    +0.122 C 
BRANCH  11  12
ATOM      1  F   UNL     1      -1.970 -11.070  17.377  0.00  0.00    -0.205 F 
ATOM     12  C   UNL     1      -3.595 -11.453  15.689  0.00  0.00    +0.002 A 
ATOM     15  C   UNL     1      -2.360 -10.952  16.100  0.00  0.00    +0.128 A 
ATOM     16  C   UNL     1      -3.992 -11.326  14.359  0.00  0.00    +0.008 A 
ATOM     21  C   UNL     1      -1.521 -10.325  15.179  0.00  0.00    +0.038 A 
ATOM     22  C   UNL     1      -3.154 -10.698  13.438  0.00  0.00    +0.000 A 
ATOM     23  C   UNL     1      -1.918 -10.197  13.848  0.00  0.00    +0.003 A 
ENDBRANCH  11  12
ENDBRANCH   3  11
TORSDOF 3
ENDMDL
MODEL 10
REMARK VINA RESULT:      -6.5     31.611     36.372
REMARK  Name = 51137102
REMARK  3 active torsions:
REMARK  status: ('A' for Active; 'I' for Inactive)
REMARK    1  A    between atoms: N_3  and  C_11
REMARK    2  A    between atoms: C_6  and  C_10
REMARK    3  A    between atoms: C_11  and  C_12
REMARK                            x       y       z     vdW  Elec       q    Type
REMARK                         _______ _______ _______ _____ _____    ______ ____
ROOT
ATOM      3  N   UNL     1     -16.588   1.816  27.980  0.00  0.00    -0.297 NA
ATOM      6  C   UNL     1     -16.922   3.463  26.344  0.00  0.00    +0.070 C 
ATOM      7  C   UNL     1     -17.695   2.190  25.958  0.00  0.00    +0.028 C 
ATOM      8  C   UNL     1     -15.937   3.006  27.428  0.00  0.00    +0.096 C 
ATOM      9  C   UNL     1     -17.090   1.087  26.816  0.00  0.00    +0.085 C 
ENDROOT
BRANCH   6  10
ATOM      2  F   UNL     1     -12.412   5.828  21.163  0.00  0.00    -0.205 F 
ATOM      4  N   UNL     1     -14.978   3.836  24.799  0.00  0.00    -0.341 N 
ATOM      5  N   UNL     1     -16.747   5.139  24.460  0.00  0.00    -0.232 NA
ATOM     10  C   UNL     1     -16.245   4.170  25.193  0.00  0.00    +0.113 A 
ATOM     13  C   UNL     1     -14.642   4.643  23.743  0.00  0.00    +0.069 A 
ATOM     14  C   UNL     1     -15.762   5.446  23.551  0.00  0.00    +0.089 A 
ATOM     17  C   UNL     1     -13.489   4.734  22.962  0.00  0.00    +0.066 A 
ATOM     18  C   UNL     1     -15.749   6.406  22.524  0.00  0.00    +0.032 A 
ATOM     19  C   UNL     1     -13.494   5.695  21.944  0.00  0.00    +0.125 A 
ATOM     20  C   UNL     1     -14.602   6.517  21.728  0.00  0.00    +0.040 A 
ATOM     24  H   UNL     1     -14.393   3.122  25.211  0.00  0.00    +0.167 HD
ENDBRANCH   6  10
BRANCH   3  11
ATOM     11  C   UNL     1     -15.685   1.014  28.791  0.00  0.00    +0.122 C 
BRANCH  11  12
ATOM      1  F   UNL     1     -14.369  -0.381  30.876  0.00  0.00    -0.205 F 
ATOM     12  C   UNL     1     -15.550   1.560  30.188  0.00  0.00    +0.002 A 
ATOM     15  C   UNL     1     -14.889   0.820  31.167  0.00  0.00    +0.128 A 
ATOM     16  C   UNL     1     -16.087   2.808  30.501  0.00  0.00    +0.008 A 
ATOM     21  C   UNL     1     -14.764   1.328  32.460  0.00  0.00    +0.038 A 
ATOM     22  C   UNL     1     -15.963   3.317  31.793  0.00  0.00    +0.000 A 
ATOM     23  C   UNL     1     -15.302   2.576  32.774  0.00  0.00    +0.003 A 
ENDBRANCH  11  12
ENDBRANCH   3  11
TORSDOF 3
ENDMDL
