MODEL 1
REMARK VINA RESULT:      -8.8      0.000      0.000
REMARK  Name = 11879864
REMARK  6 active torsions:
REMARK  status: ('A' for Active; 'I' for Inactive)
REMARK    1  A    between atoms: S_1  and  N_9
REMARK    2  A    between atoms: S_1  and  C_29
REMARK    3  A    between atoms: N_9  and  C_21
REMARK    4  A    between atoms: N_10  and  C_38
REMARK    5  A    between atoms: C_20  and  C_23
REMARK    6  A    between atoms: C_39  and  C_40
REMARK                            x       y       z     vdW  Elec       q    Type
REMARK                         _______ _______ _______ _____ _____    ______ ____
ROOT
ATOM      2  O   UNL     1      -8.125  -9.336  15.881  0.00  0.00    -0.266 OA
ATOM      3  O   UNL     1      -5.679 -14.137  14.483  0.00  0.00    -0.270 OA
ATOM      7  N   UNL     1      -4.546 -12.819  16.052  0.00  0.00    -0.297 N 
ATOM      8  N   UNL     1      -6.836 -10.882  17.081  0.00  0.00    -0.310 N 
ATOM     11  C   UNL     1      -4.294 -10.691  17.318  0.00  0.00    +0.027 C 
ATOM     12  C   UNL     1      -5.480 -12.591  18.342  0.00  0.00    +0.054 C 
ATOM     13  C   UNL     1      -4.500 -11.453  18.623  0.00  0.00    +0.018 C 
ATOM     14  C   UNL     1      -3.722 -11.626  16.236  0.00  0.00    +0.113 C 
ATOM     15  C   UNL     1      -5.629 -10.066  16.895  0.00  0.00    +0.130 C 
ATOM     16  C   UNL     1      -4.875 -13.544  17.290  0.00  0.00    +0.117 C 
ATOM     17  C   UNL     1      -6.809 -12.058  17.843  0.00  0.00    +0.027 A 
ATOM     18  C   UNL     1      -7.947 -12.730  18.099  0.00  0.00    +0.024 A 
ATOM     19  C   UNL     1      -8.036 -10.370  16.544  0.00  0.00    +0.274 A 
ATOM     20  C   UNL     1      -4.970 -13.173  14.769  0.00  0.00    +0.247 C 
ATOM     21  C   UNL     1      -9.252 -11.169  16.839  0.00  0.00    +0.112 A 
ATOM     22  C   UNL     1      -9.209 -12.276  17.582  0.00  0.00    +0.031 A 
ENDROOT
BRANCH  20  23
ATOM     23  C   UNL     1      -4.524 -12.342  13.645  0.00  0.00    +0.037 A 
ATOM     24  C   UNL     1      -5.267 -11.224  13.273  0.00  0.00    +0.021 A 
ATOM     25  C   UNL     1      -3.363 -12.674  12.959  0.00  0.00    +0.013 A 
ATOM     26  C   UNL     1      -4.854 -10.417  12.201  0.00  0.00    -0.017 A 
ATOM     27  C   UNL     1      -2.937 -11.883  11.891  0.00  0.00    +0.009 A 
ATOM     28  C   UNL     1      -3.671 -10.752  11.499  0.00  0.00    -0.018 A 
ATOM     30  C   UNL     1      -5.587  -9.285  11.809  0.00  0.00    +0.008 A 
ATOM     31  C   UNL     1      -3.257  -9.946  10.426  0.00  0.00    +0.008 A 
ATOM     34  C   UNL     1      -5.162  -8.496  10.740  0.00  0.00    +0.001 A 
ATOM     35  C   UNL     1      -3.999  -8.825  10.051  0.00  0.00    +0.001 A 
ENDBRANCH  20  23
BRANCH  21   9
ATOM      9  N   UNL     1     -10.503 -10.764  16.341  0.00  0.00    -0.211 N 
ATOM     41  H   UNL     1     -11.078 -11.535  15.979  0.00  0.00    +0.174 HD
BRANCH   9   1
ATOM      1  S   UNL     1     -11.343  -9.630  17.298  0.00  0.00    +0.072 S 
ATOM      4  O   UNL     1     -12.696 -10.091  17.540  0.00  0.00    -0.150 OA
ATOM      5  O   UNL     1     -10.481  -9.199  18.382  0.00  0.00    -0.150 OA
BRANCH   1  29
ATOM     29  C   UNL     1     -11.578  -8.167  16.288  0.00  0.00    +0.109 A 
ATOM     32  C   UNL     1     -10.604  -7.201  16.305  0.00  0.00    +0.030 A 
ATOM     33  C   UNL     1     -12.722  -8.072  15.539  0.00  0.00    +0.030 A 
ATOM     36  C   UNL     1     -10.787  -6.063  15.520  0.00  0.00    +0.025 A 
ATOM     37  C   UNL     1     -12.906  -6.935  14.752  0.00  0.00    +0.025 A 
ATOM     38  C   UNL     1     -11.938  -5.930  14.743  0.00  0.00    +0.033 A 
BRANCH  38  10
ATOM      6  O   UNL     1     -12.236  -5.643  11.761  0.00  0.00    -0.276 OA
ATOM     10  N   UNL     1     -12.120  -4.793  13.957  0.00  0.00    -0.286 N 
ATOM     39  C   UNL     1     -12.251  -4.715  12.563  0.00  0.00    +0.214 C 
ATOM     40  C   UNL     1     -12.433  -3.293  12.097  0.00  0.00    +0.109 C 
ATOM     42  H   UNL     1     -12.163  -3.914  14.468  0.00  0.00    +0.155 HD
ENDBRANCH  38  10
ENDBRANCH   1  29
ENDBRANCH   9   1
ENDBRANCH  21   9
TORSDOF 5
ENDMDL
MODEL 2
REMARK VINA RESULT:      -8.5     26.196     29.999
REMARK  Name = 11879864
REMARK  6 active torsions:
REMARK  status: ('A' for Active; 'I' for Inactive)
REMARK    1  A    between atoms: S_1  and  N_9
REMARK    2  A    between atoms: S_1  and  C_29
REMARK    3  A    between atoms: N_9  and  C_21
REMARK    4  A    between atoms: N_10  and  C_38
REMARK    5  A    between atoms: C_20  and  C_23
REMARK    6  A    between atoms: C_39  and  C_40
REMARK                            x       y       z     vdW  Elec       q    Type
REMARK                         _______ _______ _______ _____ _____    ______ ____
ROOT
ATOM      2  O   UNL     1      13.826   7.834   6.998  0.00  0.00    -0.266 OA
ATOM      3  O   UNL     1       9.568   8.042   3.419  0.00  0.00    -0.270 OA
ATOM      7  N   UNL     1       9.303   6.616   5.257  0.00  0.00    -0.297 N 
ATOM      8  N   UNL     1      11.503   7.698   7.269  0.00  0.00    -0.310 N 
ATOM     11  C   UNL     1      10.226   5.479   7.269  0.00  0.00    +0.027 C 
ATOM     12  C   UNL     1       8.997   7.598   7.517  0.00  0.00    +0.054 C 
ATOM     13  C   UNL     1       9.218   6.221   8.140  0.00  0.00    +0.018 C 
ATOM     14  C   UNL     1       9.688   5.329   5.834  0.00  0.00    +0.113 C 
ATOM     15  C   UNL     1      11.562   6.231   7.309  0.00  0.00    +0.130 C 
ATOM     16  C   UNL     1       8.415   7.434   6.098  0.00  0.00    +0.117 C 
ATOM     17  C   UNL     1      10.294   8.383   7.450  0.00  0.00    +0.027 A 
ATOM     18  C   UNL     1      10.275   9.727   7.525  0.00  0.00    +0.024 A 
ATOM     19  C   UNL     1      12.732   8.379   7.143  0.00  0.00    +0.274 A 
ATOM     20  C   UNL     1       9.798   6.984   4.004  0.00  0.00    +0.247 C 
ATOM     21  C   UNL     1      12.644   9.859   7.208  0.00  0.00    +0.112 A 
ATOM     22  C   UNL     1      11.486  10.492   7.399  0.00  0.00    +0.031 A 
ENDROOT
BRANCH  20  23
ATOM     23  C   UNL     1      10.657   6.028   3.297  0.00  0.00    +0.037 A 
ATOM     24  C   UNL     1      11.984   6.355   3.029  0.00  0.00    +0.021 A 
ATOM     25  C   UNL     1      10.143   4.800   2.901  0.00  0.00    +0.013 A 
ATOM     26  C   UNL     1      12.821   5.451   2.355  0.00  0.00    -0.017 A 
ATOM     27  C   UNL     1      10.959   3.889   2.230  0.00  0.00    +0.009 A 
ATOM     28  C   UNL     1      12.300   4.199   1.949  0.00  0.00    -0.018 A 
ATOM     30  C   UNL     1      14.161   5.760   2.075  0.00  0.00    +0.008 A 
ATOM     31  C   UNL     1      13.136   3.294   1.274  0.00  0.00    +0.008 A 
ATOM     34  C   UNL     1      14.977   4.850   1.403  0.00  0.00    +0.001 A 
ATOM     35  C   UNL     1      14.465   3.619   1.004  0.00  0.00    +0.001 A 
ENDBRANCH  20  23
BRANCH  21   9
ATOM      9  N   UNL     1      13.804  10.644   7.078  0.00  0.00    -0.211 N 
ATOM     41  H   UNL     1      14.568  10.367   7.708  0.00  0.00    +0.174 HD
BRANCH   9   1
ATOM      1  S   UNL     1      14.281  10.992   5.480  0.00  0.00    +0.072 S 
ATOM      4  O   UNL     1      13.284  10.505   4.547  0.00  0.00    -0.150 OA
ATOM      5  O   UNL     1      14.774  12.355   5.423  0.00  0.00    -0.150 OA
BRANCH   1  29
ATOM     29  C   UNL     1      15.713   9.971   5.128  0.00  0.00    +0.109 A 
ATOM     32  C   UNL     1      15.651   9.108   4.064  0.00  0.00    +0.030 A 
ATOM     33  C   UNL     1      16.812  10.093   5.939  0.00  0.00    +0.030 A 
ATOM     36  C   UNL     1      16.765   8.314   3.791  0.00  0.00    +0.025 A 
ATOM     37  C   UNL     1      17.926   9.299   5.666  0.00  0.00    +0.025 A 
ATOM     38  C   UNL     1      17.902   8.410   4.592  0.00  0.00    +0.033 A 
BRANCH  38  10
ATOM      6  O   UNL     1      20.533   9.110   3.306  0.00  0.00    -0.276 OA
ATOM     10  N   UNL     1      19.016   7.616   4.318  0.00  0.00    -0.286 N 
ATOM     39  C   UNL     1      20.222   7.995   3.712  0.00  0.00    +0.214 C 
ATOM     40  C   UNL     1      21.178   6.836   3.596  0.00  0.00    +0.109 C 
ATOM     42  H   UNL     1      18.934   6.641   4.599  0.00  0.00    +0.155 HD
ENDBRANCH  38  10
ENDBRANCH   1  29
ENDBRANCH   9   1
ENDBRANCH  21   9
TORSDOF 5
ENDMDL
MODEL 3
REMARK VINA RESULT:      -7.8      3.815      6.676
REMARK  Name = 11879864
REMARK  6 active torsions:
REMARK  status: ('A' for Active; 'I' for Inactive)
REMARK    1  A    between atoms: S_1  and  N_9
REMARK    2  A    between atoms: S_1  and  C_29
REMARK    3  A    between atoms: N_9  and  C_21
REMARK    4  A    between atoms: N_10  and  C_38
REMARK    5  A    between atoms: C_20  and  C_23
REMARK    6  A    between atoms: C_39  and  C_40
REMARK                            x       y       z     vdW  Elec       q    Type
REMARK                         _______ _______ _______ _____ _____    ______ ____
ROOT
ATOM      2  O   UNL     1      -7.008 -10.919  12.237  0.00  0.00    -0.266 OA
ATOM      3  O   UNL     1      -2.355  -9.936  15.131  0.00  0.00    -0.270 OA
ATOM      7  N   UNL     1      -2.772 -12.171  14.575  0.00  0.00    -0.297 N 
ATOM      8  N   UNL     1      -4.878 -11.897  12.220  0.00  0.00    -0.310 N 
ATOM     11  C   UNL     1      -4.267 -13.932  13.648  0.00  0.00    +0.027 C 
ATOM     12  C   UNL     1      -2.562 -12.891  12.207  0.00  0.00    +0.054 C 
ATOM     13  C   UNL     1      -3.242 -14.214  12.554  0.00  0.00    +0.018 C 
ATOM     14  C   UNL     1      -3.575 -13.351  14.895  0.00  0.00    +0.113 C 
ATOM     15  C   UNL     1      -5.339 -12.988  13.088  0.00  0.00    +0.130 C 
ATOM     16  C   UNL     1      -1.836 -12.343  13.453  0.00  0.00    +0.117 C 
ATOM     17  C   UNL     1      -3.571 -11.870  11.715  0.00  0.00    +0.027 A 
ATOM     18  C   UNL     1      -3.201 -10.926  10.829  0.00  0.00    +0.024 A 
ATOM     19  C   UNL     1      -5.842 -10.938  11.840  0.00  0.00    +0.274 A 
ATOM     20  C   UNL     1      -2.950 -10.997  15.310  0.00  0.00    +0.247 C 
ATOM     21  C   UNL     1      -5.368  -9.909  10.882  0.00  0.00    +0.112 A 
ATOM     22  C   UNL     1      -4.124  -9.912  10.398  0.00  0.00    +0.031 A 
ENDROOT
BRANCH  20  23
ATOM     23  C   UNL     1      -3.917 -11.018  16.413  0.00  0.00    +0.037 A 
ATOM     24  C   UNL     1      -5.238 -10.637  16.184  0.00  0.00    +0.021 A 
ATOM     25  C   UNL     1      -3.511 -11.417  17.680  0.00  0.00    +0.013 A 
ATOM     26  C   UNL     1      -6.176 -10.653  17.228  0.00  0.00    -0.017 A 
ATOM     27  C   UNL     1      -4.430 -11.439  18.730  0.00  0.00    +0.009 A 
ATOM     28  C   UNL     1      -5.766 -11.059  18.521  0.00  0.00    -0.018 A 
ATOM     30  C   UNL     1      -7.512 -10.274  17.019  0.00  0.00    +0.008 A 
ATOM     31  C   UNL     1      -6.704 -11.074  19.566  0.00  0.00    +0.008 A 
ATOM     34  C   UNL     1      -8.431 -10.294  18.069  0.00  0.00    +0.001 A 
ATOM     35  C   UNL     1      -8.027 -10.694  19.340  0.00  0.00    +0.001 A 
ENDBRANCH  20  23
BRANCH  21   9
ATOM      9  N   UNL     1      -6.237  -8.894  10.445  0.00  0.00    -0.211 N 
ATOM     41  H   UNL     1      -5.861  -7.944  10.561  0.00  0.00    +0.174 HD
BRANCH   9   1
ATOM      1  S   UNL     1      -7.015  -9.182   8.956  0.00  0.00    +0.072 S 
ATOM      4  O   UNL     1      -6.148  -8.794   7.861  0.00  0.00    -0.150 OA
ATOM      5  O   UNL     1      -7.647 -10.487   9.000  0.00  0.00    -0.150 OA
BRANCH   1  29
ATOM     29  C   UNL     1      -8.373  -8.017   8.844  0.00  0.00    +0.109 A 
ATOM     32  C   UNL     1      -8.175  -6.850   8.151  0.00  0.00    +0.030 A 
ATOM     33  C   UNL     1      -9.557  -8.338   9.457  0.00  0.00    +0.030 A 
ATOM     36  C   UNL     1      -9.232  -5.944   8.063  0.00  0.00    +0.025 A 
ATOM     37  C   UNL     1     -10.614  -7.434   9.370  0.00  0.00    +0.025 A 
ATOM     38  C   UNL     1     -10.451  -6.236   8.674  0.00  0.00    +0.033 A 
BRANCH  38  10
ATOM      6  O   UNL     1     -10.834  -3.545   9.968  0.00  0.00    -0.276 OA
ATOM     10  N   UNL     1     -11.509  -5.331   8.585  0.00  0.00    -0.286 N 
ATOM     39  C   UNL     1     -11.637  -4.085   9.214  0.00  0.00    +0.214 C 
ATOM     40  C   UNL     1     -12.938  -3.410   8.859  0.00  0.00    +0.109 C 
ATOM     42  H   UNL     1     -12.279  -5.619   7.985  0.00  0.00    +0.155 HD
ENDBRANCH  38  10
ENDBRANCH   1  29
ENDBRANCH   9   1
ENDBRANCH  21   9
TORSDOF 5
ENDMDL
MODEL 4
REMARK VINA RESULT:      -7.7      3.018      7.038
REMARK  Name = 11879864
REMARK  6 active torsions:
REMARK  status: ('A' for Active; 'I' for Inactive)
REMARK    1  A    between atoms: S_1  and  N_9
REMARK    2  A    between atoms: S_1  and  C_29
REMARK    3  A    between atoms: N_9  and  C_21
REMARK    4  A    between atoms: N_10  and  C_38
REMARK    5  A    between atoms: C_20  and  C_23
REMARK    6  A    between atoms: C_39  and  C_40
REMARK                            x       y       z     vdW  Elec       q    Type
REMARK                         _______ _______ _______ _____ _____    ______ ____
ROOT
ATOM      2  O   UNL     1      -6.141 -13.160  15.483  0.00  0.00    -0.266 OA
ATOM      3  O   UNL     1      -8.521  -8.713  17.838  0.00  0.00    -0.270 OA
ATOM      7  N   UNL     1      -9.590 -10.765  18.193  0.00  0.00    -0.297 N 
ATOM      8  N   UNL     1      -7.300 -12.846  17.496  0.00  0.00    -0.310 N 
ATOM     11  C   UNL     1      -9.826 -13.197  17.720  0.00  0.00    +0.027 C 
ATOM     12  C   UNL     1      -8.516 -12.451  19.667  0.00  0.00    +0.054 C 
ATOM     13  C   UNL     1      -9.511 -13.504  19.180  0.00  0.00    +0.018 C 
ATOM     14  C   UNL     1     -10.438 -11.791  17.586  0.00  0.00    +0.113 C 
ATOM     15  C   UNL     1      -8.542 -13.350  16.895  0.00  0.00    +0.130 C 
ATOM     16  C   UNL     1      -9.158 -11.052  19.571  0.00  0.00    +0.117 C 
ATOM     17  C   UNL     1      -7.240 -12.485  18.848  0.00  0.00    +0.027 A 
ATOM     18  C   UNL     1      -6.067 -12.135  19.409  0.00  0.00    +0.024 A 
ATOM     19  C   UNL     1      -6.154 -12.840  16.672  0.00  0.00    +0.274 A 
ATOM     20  C   UNL     1      -9.240  -9.634  17.453  0.00  0.00    +0.247 C 
ATOM     21  C   UNL     1      -4.897 -12.421  17.340  0.00  0.00    +0.112 A 
ATOM     22  C   UNL     1      -4.857 -12.099  18.635  0.00  0.00    +0.031 A 
ENDROOT
BRANCH  20  23
ATOM     23  C   UNL     1      -9.784  -9.506  16.096  0.00  0.00    +0.037 A 
ATOM     24  C   UNL     1      -9.023  -9.912  15.003  0.00  0.00    +0.021 A 
ATOM     25  C   UNL     1     -11.057  -8.981  15.910  0.00  0.00    +0.013 A 
ATOM     26  C   UNL     1      -9.529  -9.797  13.698  0.00  0.00    -0.017 A 
ATOM     27  C   UNL     1     -11.576  -8.860  14.621  0.00  0.00    +0.009 A 
ATOM     28  C   UNL     1     -10.825  -9.263  13.504  0.00  0.00    -0.018 A 
ATOM     30  C   UNL     1      -8.779 -10.201  12.582  0.00  0.00    +0.008 A 
ATOM     31  C   UNL     1     -11.332  -9.147  12.200  0.00  0.00    +0.008 A 
ATOM     34  C   UNL     1      -9.298 -10.078  11.293  0.00  0.00    +0.001 A 
ATOM     35  C   UNL     1     -10.572  -9.553  11.103  0.00  0.00    +0.001 A 
ENDBRANCH  20  23
BRANCH  21   9
ATOM      9  N   UNL     1      -3.695 -12.362  16.614  0.00  0.00    -0.211 N 
ATOM     41  H   UNL     1      -3.609 -13.086  15.889  0.00  0.00    +0.174 HD
BRANCH   9   1
ATOM      1  S   UNL     1      -3.201 -10.803  16.134  0.00  0.00    +0.072 S 
ATOM      4  O   UNL     1      -4.079  -9.804  16.712  0.00  0.00    -0.150 OA
ATOM      5  O   UNL     1      -1.758 -10.708  16.256  0.00  0.00    -0.150 OA
BRANCH   1  29
ATOM     29  C   UNL     1      -3.523 -10.672  14.375  0.00  0.00    +0.109 A 
ATOM     32  C   UNL     1      -2.460 -10.745  13.512  0.00  0.00    +0.030 A 
ATOM     33  C   UNL     1      -4.820 -10.502  13.963  0.00  0.00    +0.030 A 
ATOM     36  C   UNL     1      -2.711 -10.643  12.143  0.00  0.00    +0.025 A 
ATOM     37  C   UNL     1      -5.071 -10.401  12.595  0.00  0.00    +0.025 A 
ATOM     38  C   UNL     1      -4.017 -10.470  11.685  0.00  0.00    +0.033 A 
BRANCH  38  10
ATOM      6  O   UNL     1      -4.867  -8.109  10.022  0.00  0.00    -0.276 OA
ATOM     10  N   UNL     1      -4.268 -10.369  10.317  0.00  0.00    -0.286 N 
ATOM     39  C   UNL     1      -4.666  -9.239   9.590  0.00  0.00    +0.214 C 
ATOM     40  C   UNL     1      -4.832  -9.547   8.124  0.00  0.00    +0.109 C 
ATOM     42  H   UNL     1      -4.142 -11.230   9.788  0.00  0.00    +0.155 HD
ENDBRANCH  38  10
ENDBRANCH   1  29
ENDBRANCH   9   1
ENDBRANCH  21   9
TORSDOF 5
ENDMDL
MODEL 5
REMARK VINA RESULT:      -7.6     25.400     28.909
REMARK  Name = 11879864
REMARK  6 active torsions:
REMARK  status: ('A' for Active; 'I' for Inactive)
REMARK    1  A    between atoms: S_1  and  N_9
REMARK    2  A    between atoms: S_1  and  C_29
REMARK    3  A    between atoms: N_9  and  C_21
REMARK    4  A    between atoms: N_10  and  C_38
REMARK    5  A    between atoms: C_20  and  C_23
REMARK    6  A    between atoms: C_39  and  C_40
REMARK                            x       y       z     vdW  Elec       q    Type
REMARK                         _______ _______ _______ _____ _____    ______ ____
ROOT
ATOM      2  O   UNL     1      12.648   6.904   3.259  0.00  0.00    -0.266 OA
ATOM      3  O   UNL     1       9.145   9.783   6.488  0.00  0.00    -0.270 OA
ATOM      7  N   UNL     1       8.742   7.483   6.322  0.00  0.00    -0.297 N 
ATOM      8  N   UNL     1      11.519   6.390   5.247  0.00  0.00    -0.310 N 
ATOM     11  C   UNL     1       9.218   5.267   5.293  0.00  0.00    +0.027 C 
ATOM     12  C   UNL     1      10.316   5.896   7.406  0.00  0.00    +0.054 C 
ATOM     13  C   UNL     1       9.660   4.740   6.654  0.00  0.00    +0.018 C 
ATOM     14  C   UNL     1       8.215   6.422   5.465  0.00  0.00    +0.113 C 
ATOM     15  C   UNL     1      10.461   5.695   4.502  0.00  0.00    +0.130 C 
ATOM     16  C   UNL     1       9.287   7.027   7.611  0.00  0.00    +0.117 C 
ATOM     17  C   UNL     1      11.517   6.430   6.647  0.00  0.00    +0.027 A 
ATOM     18  C   UNL     1      12.552   6.972   7.315  0.00  0.00    +0.024 A 
ATOM     19  C   UNL     1      12.583   6.923   4.488  0.00  0.00    +0.274 A 
ATOM     20  C   UNL     1       8.717   8.806   5.876  0.00  0.00    +0.247 C 
ATOM     21  C   UNL     1      13.682   7.529   5.280  0.00  0.00    +0.112 A 
ATOM     22  C   UNL     1      13.671   7.540   6.614  0.00  0.00    +0.031 A 
ENDROOT
BRANCH  20  23
ATOM     23  C   UNL     1       8.113   9.077   4.566  0.00  0.00    +0.037 A 
ATOM     24  C   UNL     1       8.808   8.757   3.402  0.00  0.00    +0.021 A 
ATOM     25  C   UNL     1       6.850   9.650   4.495  0.00  0.00    +0.013 A 
ATOM     26  C   UNL     1       8.244   9.009   2.142  0.00  0.00    -0.017 A 
ATOM     27  C   UNL     1       6.273   9.908   3.251  0.00  0.00    +0.009 A 
ATOM     28  C   UNL     1       6.956   9.593   2.065  0.00  0.00    -0.018 A 
ATOM     30  C   UNL     1       8.926   8.694   0.956  0.00  0.00    +0.008 A 
ATOM     31  C   UNL     1       6.391   9.846   0.804  0.00  0.00    +0.008 A 
ATOM     34  C   UNL     1       8.350   8.952  -0.288  0.00  0.00    +0.001 A 
ATOM     35  C   UNL     1       7.085   9.526  -0.363  0.00  0.00    +0.001 A 
ENDBRANCH  20  23
BRANCH  21   9
ATOM      9  N   UNL     1      14.788   8.105   4.631  0.00  0.00    -0.211 N 
ATOM     41  H   UNL     1      14.939   7.757   3.675  0.00  0.00    +0.174 HD
BRANCH   9   1
ATOM      1  S   UNL     1      14.952   9.792   4.815  0.00  0.00    +0.072 S 
ATOM      4  O   UNL     1      15.084  10.127   6.219  0.00  0.00    -0.150 OA
ATOM      5  O   UNL     1      15.891  10.284   3.824  0.00  0.00    -0.150 OA
BRANCH   1  29
ATOM     29  C   UNL     1      13.379  10.522   4.359  0.00  0.00    +0.109 A 
ATOM     32  C   UNL     1      12.666  11.186   5.325  0.00  0.00    +0.030 A 
ATOM     33  C   UNL     1      12.950  10.386   3.064  0.00  0.00    +0.030 A 
ATOM     36  C   UNL     1      11.442  11.754   4.970  0.00  0.00    +0.025 A 
ATOM     37  C   UNL     1      11.727  10.953   2.709  0.00  0.00    +0.025 A 
ATOM     38  C   UNL     1      10.973  11.637   3.662  0.00  0.00    +0.033 A 
BRANCH  38  10
ATOM      6  O   UNL     1       9.820  12.262   0.952  0.00  0.00    -0.276 OA
ATOM     10  N   UNL     1       9.750  12.206   3.307  0.00  0.00    -0.286 N 
ATOM     39  C   UNL     1       9.261  12.479   2.022  0.00  0.00    +0.214 C 
ATOM     40  C   UNL     1       7.888  13.100   2.066  0.00  0.00    +0.109 C 
ATOM     42  H   UNL     1       9.142  12.449   4.087  0.00  0.00    +0.155 HD
ENDBRANCH  38  10
ENDBRANCH   1  29
ENDBRANCH   9   1
ENDBRANCH  21   9
TORSDOF 5
ENDMDL
MODEL 6
REMARK VINA RESULT:      -7.5     20.851     23.683
REMARK  Name = 11879864
REMARK  6 active torsions:
REMARK  status: ('A' for Active; 'I' for Inactive)
REMARK    1  A    between atoms: S_1  and  N_9
REMARK    2  A    between atoms: S_1  and  C_29
REMARK    3  A    between atoms: N_9  and  C_21
REMARK    4  A    between atoms: N_10  and  C_38
REMARK    5  A    between atoms: C_20  and  C_23
REMARK    6  A    between atoms: C_39  and  C_40
REMARK                            x       y       z     vdW  Elec       q    Type
REMARK                         _______ _______ _______ _____ _____    ______ ____
ROOT
ATOM      2  O   UNL     1      -8.082  -9.456  38.575  0.00  0.00    -0.266 OA
ATOM      3  O   UNL     1      -9.568 -14.797  38.074  0.00  0.00    -0.270 OA
ATOM      7  N   UNL     1      -8.007 -14.010  36.517  0.00  0.00    -0.297 N 
ATOM      8  N   UNL     1      -6.919 -11.384  37.926  0.00  0.00    -0.310 N 
ATOM     11  C   UNL     1      -6.725 -12.141  35.488  0.00  0.00    +0.027 C 
ATOM     12  C   UNL     1      -5.699 -13.490  37.274  0.00  0.00    +0.054 C 
ATOM     13  C   UNL     1      -5.424 -12.794  35.942  0.00  0.00    +0.018 C 
ATOM     14  C   UNL     1      -7.826 -13.203  35.311  0.00  0.00    +0.113 C 
ATOM     15  C   UNL     1      -7.119 -11.064  36.506  0.00  0.00    +0.130 C 
ATOM     16  C   UNL     1      -6.770 -14.582  37.074  0.00  0.00    +0.117 C 
ATOM     17  C   UNL     1      -6.169 -12.499  38.322  0.00  0.00    +0.027 A 
ATOM     18  C   UNL     1      -5.900 -12.713  39.623  0.00  0.00    +0.024 A 
ATOM     19  C   UNL     1      -7.431 -10.460  38.862  0.00  0.00    +0.274 A 
ATOM     20  C   UNL     1      -9.285 -14.164  37.058  0.00  0.00    +0.247 C 
ATOM     21  C   UNL     1      -7.123 -10.763  40.282  0.00  0.00    +0.112 A 
ATOM     22  C   UNL     1      -6.391 -11.821  40.638  0.00  0.00    +0.031 A 
ENDROOT
BRANCH  20  23
ATOM     23  C   UNL     1     -10.409 -13.536  36.353  0.00  0.00    +0.037 A 
ATOM     24  C   UNL     1     -10.984 -14.176  35.258  0.00  0.00    +0.021 A 
ATOM     25  C   UNL     1     -10.892 -12.307  36.782  0.00  0.00    +0.013 A 
ATOM     26  C   UNL     1     -12.061 -13.590  34.573  0.00  0.00    -0.017 A 
ATOM     27  C   UNL     1     -11.962 -11.709  36.114  0.00  0.00    +0.009 A 
ATOM     28  C   UNL     1     -12.557 -12.337  35.008  0.00  0.00    -0.018 A 
ATOM     30  C   UNL     1     -12.656 -14.218  33.467  0.00  0.00    +0.008 A 
ATOM     31  C   UNL     1     -13.633 -11.749  34.323  0.00  0.00    +0.008 A 
ATOM     34  C   UNL     1     -13.724 -13.619  32.798  0.00  0.00    +0.001 A 
ATOM     35  C   UNL     1     -14.211 -12.388  33.226  0.00  0.00    +0.001 A 
ENDBRANCH  20  23
BRANCH  21   9
ATOM      9  N   UNL     1      -7.595  -9.921  41.304  0.00  0.00    -0.211 N 
ATOM     41  H   UNL     1      -8.046 -10.420  42.082  0.00  0.00    +0.174 HD
BRANCH   9   1
ATOM      1  S   UNL     1      -6.537  -8.669  41.772  0.00  0.00    +0.072 S 
ATOM      4  O   UNL     1      -6.543  -8.527  43.215  0.00  0.00    -0.150 OA
ATOM      5  O   UNL     1      -5.300  -8.794  41.025  0.00  0.00    -0.150 OA
BRANCH   1  29
ATOM     29  C   UNL     1      -7.264  -7.132  41.201  0.00  0.00    +0.109 A 
ATOM     32  C   UNL     1      -6.820  -6.602  40.017  0.00  0.00    +0.030 A 
ATOM     33  C   UNL     1      -8.235  -6.546  41.973  0.00  0.00    +0.030 A 
ATOM     36  C   UNL     1      -7.385  -5.406  39.573  0.00  0.00    +0.025 A 
ATOM     37  C   UNL     1      -8.801  -5.352  41.530  0.00  0.00    +0.025 A 
ATOM     38  C   UNL     1      -8.376  -4.781  40.330  0.00  0.00    +0.033 A 
BRANCH  38  10
ATOM      6  O   UNL     1     -10.930  -4.271  38.819  0.00  0.00    -0.276 OA
ATOM     10  N   UNL     1      -8.942  -3.586  39.886  0.00  0.00    -0.286 N 
ATOM     39  C   UNL     1     -10.140  -3.405  39.180  0.00  0.00    +0.214 C 
ATOM     40  C   UNL     1     -10.400  -1.949  38.885  0.00  0.00    +0.109 C 
ATOM     42  H   UNL     1      -8.413  -2.746  40.108  0.00  0.00    +0.155 HD
ENDBRANCH  38  10
ENDBRANCH   1  29
ENDBRANCH   9   1
ENDBRANCH  21   9
TORSDOF 5
ENDMDL
MODEL 7
REMARK VINA RESULT:      -7.5     28.550     30.606
REMARK  Name = 11879864
REMARK  6 active torsions:
REMARK  status: ('A' for Active; 'I' for Inactive)
REMARK    1  A    between atoms: S_1  and  N_9
REMARK    2  A    between atoms: S_1  and  C_29
REMARK    3  A    between atoms: N_9  and  C_21
REMARK    4  A    between atoms: N_10  and  C_38
REMARK    5  A    between atoms: C_20  and  C_23
REMARK    6  A    between atoms: C_39  and  C_40
REMARK                            x       y       z     vdW  Elec       q    Type
REMARK                         _______ _______ _______ _____ _____    ______ ____
ROOT
ATOM      2  O   UNL     1      10.963   9.543  17.627  0.00  0.00    -0.266 OA
ATOM      3  O   UNL     1      14.867  10.612  21.450  0.00  0.00    -0.270 OA
ATOM      7  N   UNL     1      13.349   8.908  21.973  0.00  0.00    -0.297 N 
ATOM      8  N   UNL     1      12.143   8.185  19.129  0.00  0.00    -0.310 N 
ATOM     11  C   UNL     1      11.279   7.619  21.472  0.00  0.00    +0.027 C 
ATOM     12  C   UNL     1      13.465   6.759  20.732  0.00  0.00    +0.054 C 
ATOM     13  C   UNL     1      12.115   6.352  21.320  0.00  0.00    +0.018 C 
ATOM     14  C   UNL     1      11.984   8.617  22.408  0.00  0.00    +0.113 C 
ATOM     15  C   UNL     1      11.025   8.213  20.081  0.00  0.00    +0.130 C 
ATOM     16  C   UNL     1      14.180   7.723  21.701  0.00  0.00    +0.117 C 
ATOM     17  C   UNL     1      13.295   7.427  19.380  0.00  0.00    +0.027 A 
ATOM     18  C   UNL     1      14.259   7.323  18.448  0.00  0.00    +0.024 A 
ATOM     19  C   UNL     1      11.957   8.875  17.912  0.00  0.00    +0.274 A 
ATOM     20  C   UNL     1      13.758  10.235  21.826  0.00  0.00    +0.247 C 
ATOM     21  C   UNL     1      13.066   8.742  16.934  0.00  0.00    +0.112 A 
ATOM     22  C   UNL     1      14.146   8.000  17.185  0.00  0.00    +0.031 A 
ENDROOT
BRANCH  20  23
ATOM     23  C   UNL     1      12.796  11.291  22.165  0.00  0.00    +0.037 A 
ATOM     24  C   UNL     1      12.825  11.875  23.429  0.00  0.00    +0.021 A 
ATOM     25  C   UNL     1      11.863  11.702  21.222  0.00  0.00    +0.013 A 
ATOM     26  C   UNL     1      11.913  12.887  23.769  0.00  0.00    -0.017 A 
ATOM     27  C   UNL     1      10.949  12.707  21.542  0.00  0.00    +0.009 A 
ATOM     28  C   UNL     1      10.960  13.309  22.810  0.00  0.00    -0.018 A 
ATOM     30  C   UNL     1      11.925  13.490  25.036  0.00  0.00    +0.008 A 
ATOM     31  C   UNL     1      10.047  14.321  23.150  0.00  0.00    +0.008 A 
ATOM     34  C   UNL     1      11.010  14.493  25.357  0.00  0.00    +0.001 A 
ATOM     35  C   UNL     1      10.074  14.908  24.415  0.00  0.00    +0.001 A 
ENDBRANCH  20  23
BRANCH  21   9
ATOM      9  N   UNL     1      12.998   9.399  15.693  0.00  0.00    -0.211 N 
ATOM     41  H   UNL     1      12.051   9.709  15.436  0.00  0.00    +0.174 HD
BRANCH   9   1
ATOM      1  S   UNL     1      14.232  10.535  15.393  0.00  0.00    +0.072 S 
ATOM      4  O   UNL     1      15.497   9.854  15.201  0.00  0.00    -0.150 OA
ATOM      5  O   UNL     1      13.746  11.518  14.443  0.00  0.00    -0.150 OA
BRANCH   1  29
ATOM     29  C   UNL     1      14.479  11.451  16.915  0.00  0.00    +0.109 A 
ATOM     32  C   UNL     1      15.697  11.358  17.539  0.00  0.00    +0.030 A 
ATOM     33  C   UNL     1      13.440  12.206  17.395  0.00  0.00    +0.030 A 
ATOM     36  C   UNL     1      15.889  12.070  18.723  0.00  0.00    +0.025 A 
ATOM     37  C   UNL     1      13.632  12.919  18.578  0.00  0.00    +0.025 A 
ATOM     38  C   UNL     1      14.856  12.850  19.242  0.00  0.00    +0.033 A 
BRANCH  38  10
ATOM      6  O   UNL     1      13.232  15.065  20.477  0.00  0.00    -0.276 OA
ATOM     10  N   UNL     1      15.049  13.563  20.426  0.00  0.00    -0.286 N 
ATOM     39  C   UNL     1      14.258  14.593  20.955  0.00  0.00    +0.214 C 
ATOM     40  C   UNL     1      14.810  15.106  22.261  0.00  0.00    +0.109 C 
ATOM     42  H   UNL     1      15.868  13.295  20.966  0.00  0.00    +0.155 HD
ENDBRANCH  38  10
ENDBRANCH   1  29
ENDBRANCH   9   1
ENDBRANCH  21   9
TORSDOF 5
ENDMDL
MODEL 8
REMARK VINA RESULT:      -7.4     26.055     28.897
REMARK  Name = 11879864
REMARK  6 active torsions:
REMARK  status: ('A' for Active; 'I' for Inactive)
REMARK    1  A    between atoms: S_1  and  N_9
REMARK    2  A    between atoms: S_1  and  C_29
REMARK    3  A    between atoms: N_9  and  C_21
REMARK    4  A    between atoms: N_10  and  C_38
REMARK    5  A    between atoms: C_20  and  C_23
REMARK    6  A    between atoms: C_39  and  C_40
REMARK                            x       y       z     vdW  Elec       q    Type
REMARK                         _______ _______ _______ _____ _____    ______ ____
ROOT
ATOM      2  O   UNL     1      11.170   6.310   1.970  0.00  0.00    -0.266 OA
ATOM      3  O   UNL     1      10.004  10.525   5.413  0.00  0.00    -0.270 OA
ATOM      7  N   UNL     1       9.291   8.403   6.100  0.00  0.00    -0.297 N 
ATOM      8  N   UNL     1      11.066   6.484   4.304  0.00  0.00    -0.310 N 
ATOM     11  C   UNL     1       8.944   5.981   5.647  0.00  0.00    +0.027 C 
ATOM     12  C   UNL     1      10.981   6.729   6.811  0.00  0.00    +0.054 C 
ATOM     13  C   UNL     1       9.910   5.640   6.777  0.00  0.00    +0.018 C 
ATOM     14  C   UNL     1       8.294   7.354   5.893  0.00  0.00    +0.113 C 
ATOM     15  C   UNL     1       9.704   5.932   4.315  0.00  0.00    +0.130 C 
ATOM     16  C   UNL     1      10.321   8.092   7.104  0.00  0.00    +0.117 C 
ATOM     17  C   UNL     1      11.734   6.798   5.495  0.00  0.00    +0.027 A 
ATOM     18  C   UNL     1      13.020   7.194   5.471  0.00  0.00    +0.024 A 
ATOM     19  C   UNL     1      11.698   6.585   3.047  0.00  0.00    +0.274 A 
ATOM     20  C   UNL     1       9.220   9.579   5.349  0.00  0.00    +0.247 C 
ATOM     21  C   UNL     1      13.107   7.051   3.084  0.00  0.00    +0.112 A 
ATOM     22  C   UNL     1      13.732   7.327   4.230  0.00  0.00    +0.031 A 
ENDROOT
BRANCH  20  23
ATOM     23  C   UNL     1       8.105   9.725   4.407  0.00  0.00    +0.037 A 
ATOM     24  C   UNL     1       8.284   9.397   3.065  0.00  0.00    +0.021 A 
ATOM     25  C   UNL     1       6.876  10.190   4.858  0.00  0.00    +0.013 A 
ATOM     26  C   UNL     1       7.227   9.530   2.150  0.00  0.00    -0.017 A 
ATOM     27  C   UNL     1       5.814  10.328   3.963  0.00  0.00    +0.009 A 
ATOM     28  C   UNL     1       5.973  10.003   2.606  0.00  0.00    -0.018 A 
ATOM     30  C   UNL     1       7.386   9.204   0.794  0.00  0.00    +0.008 A 
ATOM     31  C   UNL     1       4.916  10.137   1.692  0.00  0.00    +0.008 A 
ATOM     34  C   UNL     1       6.325   9.344  -0.101  0.00  0.00    +0.001 A 
ATOM     35  C   UNL     1       5.093   9.809   0.347  0.00  0.00    +0.001 A 
ENDBRANCH  20  23
BRANCH  21   9
ATOM      9  N   UNL     1      13.833   7.205   1.890  0.00  0.00    -0.211 N 
ATOM     41  H   UNL     1      14.369   8.081   1.836  0.00  0.00    +0.174 HD
BRANCH   9   1
ATOM      1  S   UNL     1      14.668   5.819   1.352  0.00  0.00    +0.072 S 
ATOM      4  O   UNL     1      15.888   6.207   0.672  0.00  0.00    -0.150 OA
ATOM      5  O   UNL     1      14.670   4.830   2.414  0.00  0.00    -0.150 OA
BRANCH   1  29
ATOM     29  C   UNL     1      13.679   5.088   0.047  0.00  0.00    +0.109 A 
ATOM     32  C   UNL     1      13.425   3.741   0.099  0.00  0.00    +0.030 A 
ATOM     33  C   UNL     1      13.217   5.905  -0.953  0.00  0.00    +0.030 A 
ATOM     36  C   UNL     1      12.656   3.173  -0.917  0.00  0.00    +0.025 A 
ATOM     37  C   UNL     1      12.448   5.338  -1.969  0.00  0.00    +0.025 A 
ATOM     38  C   UNL     1      12.168   3.972  -1.951  0.00  0.00    +0.033 A 
BRANCH  38  10
ATOM      6  O   UNL     1       9.256   4.327  -2.628  0.00  0.00    -0.276 OA
ATOM     10  N   UNL     1      11.398   3.404  -2.966  0.00  0.00    -0.286 N 
ATOM     39  C   UNL     1      10.038   3.604  -3.236  0.00  0.00    +0.214 C 
ATOM     40  C   UNL     1       9.580   2.801  -4.428  0.00  0.00    +0.109 C 
ATOM     42  H   UNL     1      11.897   2.767  -3.584  0.00  0.00    +0.155 HD
ENDBRANCH  38  10
ENDBRANCH   1  29
ENDBRANCH   9   1
ENDBRANCH  21   9
TORSDOF 5
ENDMDL
MODEL 9
REMARK VINA RESULT:      -7.4     28.868     31.191
REMARK  Name = 11879864
REMARK  6 active torsions:
REMARK  status: ('A' for Active; 'I' for Inactive)
REMARK    1  A    between atoms: S_1  and  N_9
REMARK    2  A    between atoms: S_1  and  C_29
REMARK    3  A    between atoms: N_9  and  C_21
REMARK    4  A    between atoms: N_10  and  C_38
REMARK    5  A    between atoms: C_20  and  C_23
REMARK    6  A    between atoms: C_39  and  C_40
REMARK                            x       y       z     vdW  Elec       q    Type
REMARK                         _______ _______ _______ _____ _____    ______ ____
ROOT
ATOM      2  O   UNL     1      11.862   9.850  17.276  0.00  0.00    -0.266 OA
ATOM      3  O   UNL     1      14.805  10.397  21.970  0.00  0.00    -0.270 OA
ATOM      7  N   UNL     1      13.049   8.850  22.027  0.00  0.00    -0.297 N 
ATOM      8  N   UNL     1      12.506   8.335  18.944  0.00  0.00    -0.310 N 
ATOM     11  C   UNL     1      11.049   7.801  20.981  0.00  0.00    +0.027 C 
ATOM     12  C   UNL     1      13.256   6.735  20.741  0.00  0.00    +0.054 C 
ATOM     13  C   UNL     1      11.770   6.458  20.968  0.00  0.00    +0.018 C 
ATOM     14  C   UNL     1      11.597   8.694  22.109  0.00  0.00    +0.113 C 
ATOM     15  C   UNL     1      11.198   8.455  19.602  0.00  0.00    +0.130 C 
ATOM     16  C   UNL     1      13.803   7.592  21.901  0.00  0.00    +0.117 C 
ATOM     17  C   UNL     1      13.483   7.453  19.424  0.00  0.00    +0.027 A 
ATOM     18  C   UNL     1      14.631   7.272  18.745  0.00  0.00    +0.024 A 
ATOM     19  C   UNL     1      12.688   9.073  17.755  0.00  0.00    +0.274 A 
ATOM     20  C   UNL     1      13.607  10.130  22.051  0.00  0.00    +0.247 C 
ATOM     21  C   UNL     1      13.983   8.849  17.065  0.00  0.00    +0.112 A 
ATOM     22  C   UNL     1      14.893   7.991  17.528  0.00  0.00    +0.031 A 
ENDROOT
BRANCH  20  23
ATOM     23  C   UNL     1      12.699  11.272  22.204  0.00  0.00    +0.037 A 
ATOM     24  C   UNL     1      12.355  11.718  23.478  0.00  0.00    +0.021 A 
ATOM     25  C   UNL     1      12.187  11.902  21.077  0.00  0.00    +0.013 A 
ATOM     26  C   UNL     1      11.488  12.810  23.642  0.00  0.00    -0.017 A 
ATOM     27  C   UNL     1      11.324  12.990  21.220  0.00  0.00    +0.009 A 
ATOM     28  C   UNL     1      10.964  13.456  22.496  0.00  0.00    -0.018 A 
ATOM     30  C   UNL     1      11.129  13.277  24.916  0.00  0.00    +0.008 A 
ATOM     31  C   UNL     1      10.096  14.548  22.659  0.00  0.00    +0.008 A 
ATOM     34  C   UNL     1      10.265  14.363  25.060  0.00  0.00    +0.001 A 
ATOM     35  C   UNL     1       9.750  14.997  23.933  0.00  0.00    +0.001 A 
ENDBRANCH  20  23
BRANCH  21   9
ATOM      9  N   UNL     1      14.281   9.542  15.879  0.00  0.00    -0.211 N 
ATOM     41  H   UNL     1      13.625   9.355  15.109  0.00  0.00    +0.174 HD
BRANCH   9   1
ATOM      1  S   UNL     1      14.713  11.180  16.072  0.00  0.00    +0.072 S 
ATOM      4  O   UNL     1      13.563  12.028  15.827  0.00  0.00    -0.150 OA
ATOM      5  O   UNL     1      15.517  11.316  17.271  0.00  0.00    -0.150 OA
BRANCH   1  29
ATOM     29  C   UNL     1      15.824  11.588  14.725  0.00  0.00    +0.109 A 
ATOM     32  C   UNL     1      15.312  11.649  13.454  0.00  0.00    +0.030 A 
ATOM     33  C   UNL     1      17.143  11.822  15.019  0.00  0.00    +0.030 A 
ATOM     36  C   UNL     1      16.177  11.967  12.407  0.00  0.00    +0.025 A 
ATOM     37  C   UNL     1      18.008  12.141  13.973  0.00  0.00    +0.025 A 
ATOM     38  C   UNL     1      17.526  12.212  12.667  0.00  0.00    +0.033 A 
BRANCH  38  10
ATOM      6  O   UNL     1      18.617  14.873  11.774  0.00  0.00    -0.276 OA
ATOM     10  N   UNL     1      18.390  12.531  11.619  0.00  0.00    -0.286 N 
ATOM     39  C   UNL     1      18.867  13.795  11.245  0.00  0.00    +0.214 C 
ATOM     40  C   UNL     1      19.786  13.714  10.052  0.00  0.00    +0.109 C 
ATOM     42  H   UNL     1      18.710  11.741  11.064  0.00  0.00    +0.155 HD
ENDBRANCH  38  10
ENDBRANCH   1  29
ENDBRANCH   9   1
ENDBRANCH  21   9
TORSDOF 5
ENDMDL
MODEL 10
REMARK VINA RESULT:      -7.4     20.956     24.779
REMARK  Name = 11879864
REMARK  6 active torsions:
REMARK  status: ('A' for Active; 'I' for Inactive)
REMARK    1  A    between atoms: S_1  and  N_9
REMARK    2  A    between atoms: S_1  and  C_29
REMARK    3  A    between atoms: N_9  and  C_21
REMARK    4  A    between atoms: N_10  and  C_38
REMARK    5  A    between atoms: C_20  and  C_23
REMARK    6  A    between atoms: C_39  and  C_40
REMARK                            x       y       z     vdW  Elec       q    Type
REMARK                         _______ _______ _______ _____ _____    ______ ____
ROOT
ATOM      2  O   UNL     1     -16.160   6.954  32.152  0.00  0.00    -0.266 OA
ATOM      3  O   UNL     1     -10.854   8.596  31.783  0.00  0.00    -0.270 OA
ATOM      7  N   UNL     1     -12.331  10.098  32.803  0.00  0.00    -0.297 N 
ATOM      8  N   UNL     1     -14.781   8.228  33.553  0.00  0.00    -0.310 N 
ATOM     11  C   UNL     1     -14.642  10.782  33.426  0.00  0.00    +0.027 C 
ATOM     12  C   UNL     1     -13.249   9.559  35.047  0.00  0.00    +0.054 C 
ATOM     13  C   UNL     1     -14.262  10.693  34.901  0.00  0.00    +0.018 C 
ATOM     14  C   UNL     1     -13.397  11.071  32.567  0.00  0.00    +0.113 C 
ATOM     15  C   UNL     1     -15.336   9.477  33.016  0.00  0.00    +0.130 C 
ATOM     16  C   UNL     1     -11.989   9.883  34.219  0.00  0.00    +0.117 C 
ATOM     17  C   UNL     1     -13.836   8.238  34.588  0.00  0.00    +0.027 A 
ATOM     18  C   UNL     1     -13.424   7.084  35.145  0.00  0.00    +0.024 A 
ATOM     19  C   UNL     1     -15.318   7.025  33.047  0.00  0.00    +0.274 A 
ATOM     20  C   UNL     1     -11.742   9.445  31.719  0.00  0.00    +0.247 C 
ATOM     21  C   UNL     1     -14.806   5.787  33.684  0.00  0.00    +0.112 A 
ATOM     22  C   UNL     1     -13.921   5.818  34.681  0.00  0.00    +0.031 A 
ENDROOT
BRANCH  20  23
ATOM     23  C   UNL     1     -12.197   9.805  30.371  0.00  0.00    +0.037 A 
ATOM     24  C   UNL     1     -11.270   9.953  29.342  0.00  0.00    +0.021 A 
ATOM     25  C   UNL     1     -13.552   9.994  30.128  0.00  0.00    +0.013 A 
ATOM     26  C   UNL     1     -11.689  10.296  28.047  0.00  0.00    -0.017 A 
ATOM     27  C   UNL     1     -13.987  10.335  28.847  0.00  0.00    +0.009 A 
ATOM     28  C   UNL     1     -13.069  10.489  27.795  0.00  0.00    -0.018 A 
ATOM     30  C   UNL     1     -10.772  10.450  26.995  0.00  0.00    +0.008 A 
ATOM     31  C   UNL     1     -13.490  10.833  26.500  0.00  0.00    +0.008 A 
ATOM     34  C   UNL     1     -11.207  10.792  25.715  0.00  0.00    +0.001 A 
ATOM     35  C   UNL     1     -12.563  10.982  25.468  0.00  0.00    +0.001 A 
ENDBRANCH  20  23
BRANCH  21   9
ATOM      9  N   UNL     1     -15.259   4.528  33.251  0.00  0.00    -0.211 N 
ATOM     41  H   UNL     1     -16.175   4.552  32.784  0.00  0.00    +0.174 HD
BRANCH   9   1
ATOM      1  S   UNL     1     -14.091   3.548  32.489  0.00  0.00    +0.072 S 
ATOM      4  O   UNL     1     -12.953   4.353  32.088  0.00  0.00    -0.150 OA
ATOM      5  O   UNL     1     -13.927   2.329  33.258  0.00  0.00    -0.150 OA
BRANCH   1  29
ATOM     29  C   UNL     1     -14.794   3.016  30.928  0.00  0.00    +0.109 A 
ATOM     32  C   UNL     1     -14.756   1.680  30.618  0.00  0.00    +0.030 A 
ATOM     33  C   UNL     1     -15.340   3.966  30.104  0.00  0.00    +0.030 A 
ATOM     36  C   UNL     1     -15.303   1.266  29.404  0.00  0.00    +0.025 A 
ATOM     37  C   UNL     1     -15.888   3.553  28.890  0.00  0.00    +0.025 A 
ATOM     38  C   UNL     1     -15.868   2.204  28.539  0.00  0.00    +0.033 A 
BRANCH  38  10
ATOM      6  O   UNL     1     -18.043   0.204  27.956  0.00  0.00    -0.276 OA
ATOM     10  N   UNL     1     -16.416   1.790  27.325  0.00  0.00    -0.286 N 
ATOM     39  C   UNL     1     -17.432   0.848  27.109  0.00  0.00    +0.214 C 
ATOM     40  C   UNL     1     -17.739   0.683  25.642  0.00  0.00    +0.109 C 
ATOM     42  H   UNL     1     -16.023   2.234  26.497  0.00  0.00    +0.155 HD
ENDBRANCH  38  10
ENDBRANCH   1  29
ENDBRANCH   9   1
ENDBRANCH  21   9
TORSDOF 5
ENDMDL
