MODEL 1
REMARK VINA RESULT:      -7.0      0.000      0.000
REMARK  Name = 25314925
REMARK  4 active torsions:
REMARK  status: ('A' for Active; 'I' for Inactive)
REMARK    1  A    between atoms: O_3  and  C_10
REMARK    2  A    between atoms: N_6  and  C_9
REMARK    3  A    between atoms: N_7  and  C_11
REMARK    4  A    between atoms: N_8  and  C_20
REMARK                            x       y       z     vdW  Elec       q    Type
REMARK                         _______ _______ _______ _____ _____    ______ ____
ROOT
ATOM      1  O   UNL     1      13.096   9.143  18.941  0.00  0.00    -0.342 OA
ATOM      2  O   UNL     1      11.371   7.820  18.135  0.00  0.00    -0.347 OA
ATOM      9  C   UNL     1      11.496   8.253  20.511  0.00  0.00    +0.144 C 
ATOM     10  C   UNL     1      12.369   6.995  20.717  0.00  0.00    +0.159 C 
ATOM     11  C   UNL     1      13.720   7.055  19.971  0.00  0.00    +0.136 C 
ATOM     12  C   UNL     1      13.652   7.857  18.656  0.00  0.00    +0.170 C 
ATOM     13  C   UNL     1      11.705   8.832  19.099  0.00  0.00    +0.270 C 
ATOM     14  C   UNL     1      12.635   7.332  17.660  0.00  0.00    +0.196 C 
ENDROOT
BRANCH   9   6
ATOM      4  O   UNL     1      11.232  11.588  23.046  0.00  0.00    -0.377 OA
ATOM      6  N   UNL     1      11.827   9.265  21.513  0.00  0.00    -0.288 NA
ATOM     15  C   UNL     1      10.873   9.225  22.629  0.00  0.00    +0.113 C 
ATOM     16  C   UNL     1      11.845  10.607  20.914  0.00  0.00    +0.113 C 
ATOM     17  C   UNL     1      11.231  10.297  23.656  0.00  0.00    +0.175 C 
ATOM     18  C   UNL     1      12.181  11.646  21.980  0.00  0.00    +0.175 C 
ENDBRANCH   9   6
BRANCH  11   7
ATOM      5  O   UNL     1      16.555   6.879  19.603  0.00  0.00    -0.252 OA
ATOM      7  N   UNL     1      14.740   7.612  20.832  0.00  0.00    -0.291 N 
ATOM      8  N   UNL     1      16.849   8.116  21.576  0.00  0.00    -0.269 N 
ATOM     19  C   UNL     1      16.107   7.479  20.577  0.00  0.00    +0.304 C 
ATOM     26  H   UNL     1      14.449   8.052  21.701  0.00  0.00    +0.151 HD
ATOM     28  H   UNL     1      16.320   8.569  22.318  0.00  0.00    +0.156 HD
BRANCH   8  20
ATOM     20  C   UNL     1      18.256   8.212  21.686  0.00  0.00    +0.035 A 
ATOM     21  C   UNL     1      18.886   9.446  21.534  0.00  0.00    +0.023 A 
ATOM     22  C   UNL     1      19.013   7.069  21.944  0.00  0.00    +0.023 A 
ATOM     23  C   UNL     1      20.273   9.539  21.642  0.00  0.00    +0.002 A 
ATOM     24  C   UNL     1      20.401   7.161  22.051  0.00  0.00    +0.002 A 
ATOM     25  C   UNL     1      21.031   8.397  21.900  0.00  0.00    +0.000 A 
ENDBRANCH   8  20
ENDBRANCH  11   7
BRANCH  10   3
ATOM      3  O   UNL     1      11.627   5.866  20.237  0.00  0.00    -0.388 OA
ATOM     27  H   UNL     1      11.259   6.103  19.370  0.00  0.00    +0.210 HD
ENDBRANCH  10   3
TORSDOF 4
ENDMDL
MODEL 2
REMARK VINA RESULT:      -6.9      2.103      6.300
REMARK  Name = 25314925
REMARK  4 active torsions:
REMARK  status: ('A' for Active; 'I' for Inactive)
REMARK    1  A    between atoms: O_3  and  C_10
REMARK    2  A    between atoms: N_6  and  C_9
REMARK    3  A    between atoms: N_7  and  C_11
REMARK    4  A    between atoms: N_8  and  C_20
REMARK                            x       y       z     vdW  Elec       q    Type
REMARK                         _______ _______ _______ _____ _____    ______ ____
ROOT
ATOM      1  O   UNL     1      12.612   7.283  19.304  0.00  0.00    -0.342 OA
ATOM      2  O   UNL     1      12.961   7.727  17.055  0.00  0.00    -0.347 OA
ATOM      9  C   UNL     1      14.613   8.465  18.660  0.00  0.00    +0.144 C 
ATOM     10  C   UNL     1      13.888   9.820  18.817  0.00  0.00    +0.159 C 
ATOM     11  C   UNL     1      12.453   9.688  19.373  0.00  0.00    +0.136 C 
ATOM     12  C   UNL     1      11.758   8.376  18.955  0.00  0.00    +0.170 C 
ATOM     13  C   UNL     1      13.613   7.356  18.281  0.00  0.00    +0.270 C 
ATOM     14  C   UNL     1      11.657   8.178  17.454  0.00  0.00    +0.196 C 
ENDROOT
BRANCH   9   6
ATOM      4  O   UNL     1      17.635   7.665  21.461  0.00  0.00    -0.377 OA
ATOM      6  N   UNL     1      15.294   8.111  19.903  0.00  0.00    -0.288 NA
ATOM     15  C   UNL     1      16.126   9.226  20.378  0.00  0.00    +0.113 C 
ATOM     16  C   UNL     1      16.120   6.909  19.723  0.00  0.00    +0.113 C 
ATOM     17  C   UNL     1      16.836   8.830  21.670  0.00  0.00    +0.175 C 
ATOM     18  C   UNL     1      16.829   6.567  21.030  0.00  0.00    +0.175 C 
ENDBRANCH   9   6
BRANCH  11   7
ATOM      5  O   UNL     1      11.927  12.044  20.915  0.00  0.00    -0.252 OA
ATOM      7  N   UNL     1      12.465   9.798  20.815  0.00  0.00    -0.291 N 
ATOM      8  N   UNL     1      12.280  10.795  22.871  0.00  0.00    -0.269 N 
ATOM     19  C   UNL     1      12.196  10.991  21.490  0.00  0.00    +0.304 C 
ATOM     26  H   UNL     1      12.758   8.990  21.358  0.00  0.00    +0.151 HD
ATOM     28  H   UNL     1      12.515   9.856  23.185  0.00  0.00    +0.156 HD
BRANCH   8  20
ATOM     20  C   UNL     1      12.079  11.747  23.898  0.00  0.00    +0.035 A 
ATOM     21  C   UNL     1      13.175  12.322  24.540  0.00  0.00    +0.023 A 
ATOM     22  C   UNL     1      10.783  12.107  24.269  0.00  0.00    +0.023 A 
ATOM     23  C   UNL     1      12.976  13.259  25.554  0.00  0.00    +0.002 A 
ATOM     24  C   UNL     1      10.584  13.044  25.283  0.00  0.00    +0.002 A 
ATOM     25  C   UNL     1      11.681  13.621  25.926  0.00  0.00    +0.000 A 
ENDBRANCH   8  20
ENDBRANCH  11   7
BRANCH  10   3
ATOM      3  O   UNL     1      13.826  10.436  17.524  0.00  0.00    -0.388 OA
ATOM     27  H   UNL     1      13.402   9.805  16.918  0.00  0.00    +0.210 HD
ENDBRANCH  10   3
TORSDOF 4
ENDMDL
MODEL 3
REMARK VINA RESULT:      -6.7     14.255     17.587
REMARK  Name = 25314925
REMARK  4 active torsions:
REMARK  status: ('A' for Active; 'I' for Inactive)
REMARK    1  A    between atoms: O_3  and  C_10
REMARK    2  A    between atoms: N_6  and  C_9
REMARK    3  A    between atoms: N_7  and  C_11
REMARK    4  A    between atoms: N_8  and  C_20
REMARK                            x       y       z     vdW  Elec       q    Type
REMARK                         _______ _______ _______ _____ _____    ______ ____
ROOT
ATOM      1  O   UNL     1      10.198   8.291   5.677  0.00  0.00    -0.342 OA
ATOM      2  O   UNL     1       9.518   7.875   7.855  0.00  0.00    -0.347 OA
ATOM      9  C   UNL     1      11.874   7.749   7.324  0.00  0.00    +0.144 C 
ATOM     10  C   UNL     1      11.741   6.245   6.993  0.00  0.00    +0.159 C 
ATOM     11  C   UNL     1      10.790   5.958   5.810  0.00  0.00    +0.136 C 
ATOM     12  C   UNL     1       9.637   6.976   5.697  0.00  0.00    +0.170 C 
ATOM     13  C   UNL     1      10.547   8.482   7.055  0.00  0.00    +0.270 C 
ATOM     14  C   UNL     1       8.766   7.067   6.937  0.00  0.00    +0.196 C 
ENDROOT
BRANCH   9   6
ATOM      4  O   UNL     1      15.507   9.542   6.226  0.00  0.00    -0.377 OA
ATOM      6  N   UNL     1      12.940   8.348   6.523  0.00  0.00    -0.288 NA
ATOM     15  C   UNL     1      14.173   7.553   6.617  0.00  0.00    +0.113 C 
ATOM     16  C   UNL     1      13.199   9.730   6.950  0.00  0.00    +0.113 C 
ATOM     17  C   UNL     1      15.274   8.205   5.784  0.00  0.00    +0.175 C 
ATOM     18  C   UNL     1      14.322  10.330   6.108  0.00  0.00    +0.175 C 
ENDBRANCH   9   6
BRANCH  11   7
ATOM      5  O   UNL     1      10.201   4.362   3.506  0.00  0.00    -0.252 OA
ATOM      7  N   UNL     1      11.535   5.921   4.570  0.00  0.00    -0.291 N 
ATOM      8  N   UNL     1      12.075   5.285   2.435  0.00  0.00    -0.269 N 
ATOM     19  C   UNL     1      11.176   5.110   3.491  0.00  0.00    +0.304 C 
ATOM     26  H   UNL     1      12.399   6.452   4.511  0.00  0.00    +0.151 HD
ATOM     28  H   UNL     1      12.833   5.947   2.586  0.00  0.00    +0.156 HD
BRANCH   8  20
ATOM     20  C   UNL     1      12.064   4.651   1.171  0.00  0.00    +0.035 A 
ATOM     21  C   UNL     1      13.076   3.753   0.833  0.00  0.00    +0.023 A 
ATOM     22  C   UNL     1      11.043   4.927   0.261  0.00  0.00    +0.023 A 
ATOM     23  C   UNL     1      13.066   3.129  -0.415  0.00  0.00    +0.002 A 
ATOM     24  C   UNL     1      11.033   4.304  -0.986  0.00  0.00    +0.002 A 
ATOM     25  C   UNL     1      12.045   3.404  -1.325  0.00  0.00    +0.000 A 
ENDBRANCH   8  20
ENDBRANCH  11   7
BRANCH  10   3
ATOM      3  O   UNL     1      11.238   5.583   8.160  0.00  0.00    -0.388 OA
ATOM     27  H   UNL     1      11.033   6.267   8.820  0.00  0.00    +0.210 HD
ENDBRANCH  10   3
TORSDOF 4
ENDMDL
MODEL 4
REMARK VINA RESULT:      -6.4     27.259     29.859
REMARK  Name = 25314925
REMARK  4 active torsions:
REMARK  status: ('A' for Active; 'I' for Inactive)
REMARK    1  A    between atoms: O_3  and  C_10
REMARK    2  A    between atoms: N_6  and  C_9
REMARK    3  A    between atoms: N_7  and  C_11
REMARK    4  A    between atoms: N_8  and  C_20
REMARK                            x       y       z     vdW  Elec       q    Type
REMARK                         _______ _______ _______ _____ _____    ______ ____
ROOT
ATOM      1  O   UNL     1      -4.953 -10.237  18.173  0.00  0.00    -0.342 OA
ATOM      2  O   UNL     1      -4.559 -12.236  19.280  0.00  0.00    -0.347 OA
ATOM      9  C   UNL     1      -4.834 -12.268  16.877  0.00  0.00    +0.144 C 
ATOM     10  C   UNL     1      -6.357 -12.480  17.033  0.00  0.00    +0.159 C 
ATOM     11  C   UNL     1      -7.069 -11.315  17.756  0.00  0.00    +0.136 C 
ATOM     12  C   UNL     1      -6.180 -10.617  18.804  0.00  0.00    +0.170 C 
ATOM     13  C   UNL     1      -4.269 -11.494  18.084  0.00  0.00    +0.270 C 
ATOM     14  C   UNL     1      -5.657 -11.540  19.889  0.00  0.00    +0.196 C 
ENDROOT
BRANCH   9   6
ATOM      4  O   UNL     1      -3.500 -11.344  13.007  0.00  0.00    -0.377 OA
ATOM      6  N   UNL     1      -4.551 -11.535  15.645  0.00  0.00    -0.288 NA
ATOM     15  C   UNL     1      -5.230 -12.158  14.500  0.00  0.00    +0.113 C 
ATOM     16  C   UNL     1      -3.104 -11.469  15.397  0.00  0.00    +0.113 C 
ATOM     17  C   UNL     1      -4.910 -11.384  13.224  0.00  0.00    +0.175 C 
ATOM     18  C   UNL     1      -2.835 -10.710  14.100  0.00  0.00    +0.175 C 
ENDBRANCH   9   6
BRANCH  11   7
ATOM      5  O   UNL     1      -9.591  -9.957  17.792  0.00  0.00    -0.252 OA
ATOM      7  N   UNL     1      -7.543 -10.347  16.792  0.00  0.00    -0.291 N 
ATOM      8  N   UNL     1      -8.976  -8.844  15.819  0.00  0.00    -0.269 N 
ATOM     19  C   UNL     1      -8.793  -9.729  16.885  0.00  0.00    +0.304 C 
ATOM     26  H   UNL     1      -6.973 -10.166  15.970  0.00  0.00    +0.151 HD
ATOM     28  H   UNL     1      -8.212  -8.772  15.150  0.00  0.00    +0.156 HD
BRANCH   8  20
ATOM     20  C   UNL     1     -10.099  -8.029  15.549  0.00  0.00    +0.035 A 
ATOM     21  C   UNL     1     -10.352  -6.906  16.336  0.00  0.00    +0.023 A 
ATOM     22  C   UNL     1     -10.956  -8.351  14.496  0.00  0.00    +0.023 A 
ATOM     23  C   UNL     1     -11.462  -6.104  16.070  0.00  0.00    +0.002 A 
ATOM     24  C   UNL     1     -12.066  -7.548  14.230  0.00  0.00    +0.002 A 
ATOM     25  C   UNL     1     -12.318  -6.424  15.017  0.00  0.00    +0.000 A 
ENDBRANCH   8  20
ENDBRANCH  11   7
BRANCH  10   3
ATOM      3  O   UNL     1      -6.556 -13.682  17.789  0.00  0.00    -0.388 OA
ATOM     27  H   UNL     1      -7.214 -13.490  18.478  0.00  0.00    +0.210 HD
ENDBRANCH  10   3
TORSDOF 4
ENDMDL
MODEL 5
REMARK VINA RESULT:      -6.2     28.288     29.640
REMARK  Name = 25314925
REMARK  4 active torsions:
REMARK  status: ('A' for Active; 'I' for Inactive)
REMARK    1  A    between atoms: O_3  and  C_10
REMARK    2  A    between atoms: N_6  and  C_9
REMARK    3  A    between atoms: N_7  and  C_11
REMARK    4  A    between atoms: N_8  and  C_20
REMARK                            x       y       z     vdW  Elec       q    Type
REMARK                         _______ _______ _______ _____ _____    ______ ____
ROOT
ATOM      1  O   UNL     1      -9.304  -8.210  16.836  0.00  0.00    -0.342 OA
ATOM      2  O   UNL     1     -11.260  -9.386  17.246  0.00  0.00    -0.347 OA
ATOM      9  C   UNL     1      -9.170 -10.599  17.144  0.00  0.00    +0.144 C 
ATOM     10  C   UNL     1      -9.350 -10.824  15.626  0.00  0.00    +0.159 C 
ATOM     11  C   UNL     1      -9.384  -9.514  14.810  0.00  0.00    +0.136 C 
ATOM     12  C   UNL     1      -9.991  -8.329  15.588  0.00  0.00    +0.170 C 
ATOM     13  C   UNL     1      -9.866  -9.297  17.584  0.00  0.00    +0.270 C 
ATOM     14  C   UNL     1     -11.408  -8.568  16.075  0.00  0.00    +0.196 C 
ENDROOT
BRANCH   9   6
ATOM      4  O   UNL     1      -5.357 -11.645  18.552  0.00  0.00    -0.377 OA
ATOM      6  N   UNL     1      -7.749 -10.536  17.479  0.00  0.00    -0.288 NA
ATOM     15  C   UNL     1      -6.999 -11.579  16.767  0.00  0.00    +0.113 C 
ATOM     16  C   UNL     1      -7.548 -10.672  18.928  0.00  0.00    +0.113 C 
ATOM     17  C   UNL     1      -5.521 -11.502  17.141  0.00  0.00    +0.175 C 
ATOM     18  C   UNL     1      -6.057 -10.615  19.251  0.00  0.00    +0.175 C 
ENDBRANCH   9   6
BRANCH  11   7
ATOM      5  O   UNL     1      -8.201 -10.195  12.291  0.00  0.00    -0.252 OA
ATOM      7  N   UNL     1      -8.052  -9.173  14.359  0.00  0.00    -0.291 N 
ATOM      8  N   UNL     1      -6.244  -9.079  12.952  0.00  0.00    -0.269 N 
ATOM     19  C   UNL     1      -7.552  -9.547  13.110  0.00  0.00    +0.304 C 
ATOM     26  H   UNL     1      -7.427  -8.708  15.012  0.00  0.00    +0.151 HD
ATOM     28  H   UNL     1      -5.851  -8.555  13.731  0.00  0.00    +0.156 HD
BRANCH   8  20
ATOM     20  C   UNL     1      -5.390  -9.244  11.838  0.00  0.00    +0.035 A 
ATOM     21  C   UNL     1      -5.534  -8.422  10.721  0.00  0.00    +0.023 A 
ATOM     22  C   UNL     1      -4.406 -10.233  11.855  0.00  0.00    +0.023 A 
ATOM     23  C   UNL     1      -4.692  -8.587   9.620  0.00  0.00    +0.002 A 
ATOM     24  C   UNL     1      -3.564 -10.398  10.755  0.00  0.00    +0.002 A 
ATOM     25  C   UNL     1      -3.707  -9.575   9.637  0.00  0.00    +0.000 A 
ENDBRANCH   8  20
ENDBRANCH  11   7
BRANCH  10   3
ATOM      3  O   UNL     1     -10.588 -11.521  15.431  0.00  0.00    -0.388 OA
ATOM     27  H   UNL     1     -11.055 -11.090  14.695  0.00  0.00    +0.210 HD
ENDBRANCH  10   3
TORSDOF 4
ENDMDL
MODEL 6
REMARK VINA RESULT:      -6.1     27.262     29.877
REMARK  Name = 25314925
REMARK  4 active torsions:
REMARK  status: ('A' for Active; 'I' for Inactive)
REMARK    1  A    between atoms: O_3  and  C_10
REMARK    2  A    between atoms: N_6  and  C_9
REMARK    3  A    between atoms: N_7  and  C_11
REMARK    4  A    between atoms: N_8  and  C_20
REMARK                            x       y       z     vdW  Elec       q    Type
REMARK                         _______ _______ _______ _____ _____    ______ ____
ROOT
ATOM      1  O   UNL     1     -10.119 -12.250  17.104  0.00  0.00    -0.342 OA
ATOM      2  O   UNL     1     -11.238 -12.518  19.117  0.00  0.00    -0.347 OA
ATOM      9  C   UNL     1     -10.811 -10.279  18.308  0.00  0.00    +0.144 C 
ATOM     10  C   UNL     1      -9.462 -10.241  19.061  0.00  0.00    +0.159 C 
ATOM     11  C   UNL     1      -8.458 -11.311  18.578  0.00  0.00    +0.136 C 
ATOM     12  C   UNL     1      -9.139 -12.604  18.084  0.00  0.00    +0.170 C 
ATOM     13  C   UNL     1     -11.174 -11.725  17.920  0.00  0.00    +0.270 C 
ATOM     14  C   UNL     1     -10.018 -13.277  19.122  0.00  0.00    +0.196 C 
ENDROOT
BRANCH   9   6
ATOM      4  O   UNL     1     -11.375  -7.107  15.618  0.00  0.00    -0.377 OA
ATOM      6  N   UNL     1     -10.742  -9.449  17.108  0.00  0.00    -0.288 NA
ATOM     15  C   UNL     1     -10.111  -8.155  17.404  0.00  0.00    +0.113 C 
ATOM     16  C   UNL     1     -12.081  -9.237  16.541  0.00  0.00    +0.113 C 
ATOM     17  C   UNL     1     -10.060  -7.301  16.139  0.00  0.00    +0.175 C 
ATOM     18  C   UNL     1     -11.984  -8.359  15.296  0.00  0.00    +0.175 C 
ENDBRANCH   9   6
BRANCH  11   7
ATOM      5  O   UNL     1      -5.725 -11.989  18.053  0.00  0.00    -0.252 OA
ATOM      7  N   UNL     1      -7.618 -10.769  17.532  0.00  0.00    -0.291 N 
ATOM      8  N   UNL     1      -5.732 -10.471  16.263  0.00  0.00    -0.269 N 
ATOM     19  C   UNL     1      -6.290 -11.158  17.345  0.00  0.00    +0.304 C 
ATOM     26  H   UNL     1      -7.989 -10.018  16.956  0.00  0.00    +0.151 HD
ATOM     28  H   UNL     1      -6.339  -9.812  15.780  0.00  0.00    +0.156 HD
BRANCH   8  20
ATOM     20  C   UNL     1      -4.419 -10.576  15.750  0.00  0.00    +0.035 A 
ATOM     21  C   UNL     1      -3.327 -10.552  16.618  0.00  0.00    +0.023 A 
ATOM     22  C   UNL     1      -4.215 -10.700  14.376  0.00  0.00    +0.023 A 
ATOM     23  C   UNL     1      -2.031 -10.654  16.111  0.00  0.00    +0.002 A 
ATOM     24  C   UNL     1      -2.919 -10.802  13.869  0.00  0.00    +0.002 A 
ATOM     25  C   UNL     1      -1.827 -10.779  14.737  0.00  0.00    +0.000 A 
ENDBRANCH   8  20
ENDBRANCH  11   7
BRANCH  10   3
ATOM      3  O   UNL     1      -9.731 -10.456  20.452  0.00  0.00    -0.388 OA
ATOM     27  H   UNL     1      -9.467 -11.367  20.665  0.00  0.00    +0.210 HD
ENDBRANCH  10   3
TORSDOF 4
ENDMDL
MODEL 7
REMARK VINA RESULT:      -6.1     27.956     29.507
REMARK  Name = 25314925
REMARK  4 active torsions:
REMARK  status: ('A' for Active; 'I' for Inactive)
REMARK    1  A    between atoms: O_3  and  C_10
REMARK    2  A    between atoms: N_6  and  C_9
REMARK    3  A    between atoms: N_7  and  C_11
REMARK    4  A    between atoms: N_8  and  C_20
REMARK                            x       y       z     vdW  Elec       q    Type
REMARK                         _______ _______ _______ _____ _____    ______ ____
ROOT
ATOM      1  O   UNL     1      -8.683 -12.132  16.770  0.00  0.00    -0.342 OA
ATOM      2  O   UNL     1      -8.296 -12.311  19.050  0.00  0.00    -0.347 OA
ATOM      9  C   UNL     1      -8.940 -10.164  18.140  0.00  0.00    +0.144 C 
ATOM     10  C   UNL     1      -7.458  -9.791  17.915  0.00  0.00    +0.159 C 
ATOM     11  C   UNL     1      -6.731 -10.727  16.925  0.00  0.00    +0.136 C 
ATOM     12  C   UNL     1      -7.265 -12.173  16.953  0.00  0.00    +0.170 C 
ATOM     13  C   UNL     1      -9.132 -11.691  18.058  0.00  0.00    +0.270 C 
ATOM     14  C   UNL     1      -7.182 -12.840  18.313  0.00  0.00    +0.196 C 
ENDROOT
BRANCH   9   6
ATOM      4  O   UNL     1     -11.735  -7.592  16.355  0.00  0.00    -0.377 OA
ATOM      6  N   UNL     1      -9.782  -9.507  17.143  0.00  0.00    -0.288 NA
ATOM     15  C   UNL     1      -9.462  -8.076  17.052  0.00  0.00    +0.113 C 
ATOM     16  C   UNL     1     -11.205  -9.685  17.462  0.00  0.00    +0.113 C 
ATOM     17  C   UNL     1     -10.361  -7.409  16.014  0.00  0.00    +0.175 C 
ATOM     18  C   UNL     1     -12.063  -8.981  16.414  0.00  0.00    +0.175 C 
ENDBRANCH   9   6
BRANCH  11   7
ATOM      5  O   UNL     1      -4.651 -10.690  14.956  0.00  0.00    -0.252 OA
ATOM      7  N   UNL     1      -6.821 -10.197  15.582  0.00  0.00    -0.291 N 
ATOM      8  N   UNL     1      -6.132  -9.641  13.467  0.00  0.00    -0.269 N 
ATOM     19  C   UNL     1      -5.753 -10.219  14.682  0.00  0.00    +0.304 C 
ATOM     26  H   UNL     1      -7.675  -9.719  15.309  0.00  0.00    +0.151 HD
ATOM     28  H   UNL     1      -7.088  -9.298  13.404  0.00  0.00    +0.156 HD
BRANCH   8  20
ATOM     20  C   UNL     1      -5.347  -9.471  12.303  0.00  0.00    +0.035 A 
ATOM     21  C   UNL     1      -4.161 -10.187  12.151  0.00  0.00    +0.023 A 
ATOM     22  C   UNL     1      -5.759  -8.582  11.309  0.00  0.00    +0.023 A 
ATOM     23  C   UNL     1      -3.386 -10.017  11.003  0.00  0.00    +0.002 A 
ATOM     24  C   UNL     1      -4.984  -8.412  10.162  0.00  0.00    +0.002 A 
ATOM     25  C   UNL     1      -3.797  -9.130  10.009  0.00  0.00    +0.000 A 
ENDBRANCH   8  20
ENDBRANCH  11   7
BRANCH  10   3
ATOM      3  O   UNL     1      -6.793  -9.857  19.184  0.00  0.00    -0.388 OA
ATOM     27  H   UNL     1      -6.211  -9.081  19.251  0.00  0.00    +0.210 HD
ENDBRANCH  10   3
TORSDOF 4
ENDMDL
MODEL 8
REMARK VINA RESULT:      -6.0     24.625     26.717
REMARK  Name = 25314925
REMARK  4 active torsions:
REMARK  status: ('A' for Active; 'I' for Inactive)
REMARK    1  A    between atoms: O_3  and  C_10
REMARK    2  A    between atoms: N_6  and  C_9
REMARK    3  A    between atoms: N_7  and  C_11
REMARK    4  A    between atoms: N_8  and  C_20
REMARK                            x       y       z     vdW  Elec       q    Type
REMARK                         _______ _______ _______ _____ _____    ______ ____
ROOT
ATOM      1  O   UNL     1      -9.904   9.263  18.903  0.00  0.00    -0.342 OA
ATOM      2  O   UNL     1     -10.944   8.148  17.156  0.00  0.00    -0.347 OA
ATOM      9  C   UNL     1     -11.211  10.545  17.334  0.00  0.00    +0.144 C 
ATOM     10  C   UNL     1     -12.474  10.361  18.205  0.00  0.00    +0.159 C 
ATOM     11  C   UNL     1     -12.198   9.635  19.541  0.00  0.00    +0.136 C 
ATOM     12  C   UNL     1     -11.052   8.608  19.448  0.00  0.00    +0.170 C 
ATOM     13  C   UNL     1     -10.251   9.355  17.515  0.00  0.00    +0.270 C 
ATOM     14  C   UNL     1     -11.271   7.525  18.408  0.00  0.00    +0.196 C 
ENDROOT
BRANCH   9   6
ATOM      4  O   UNL     1      -9.685  14.450  17.141  0.00  0.00    -0.377 OA
ATOM      6  N   UNL     1     -10.530  11.788  17.690  0.00  0.00    -0.288 NA
ATOM     15  C   UNL     1     -11.474  12.913  17.709  0.00  0.00    +0.113 C 
ATOM     16  C   UNL     1      -9.433  12.068  16.754  0.00  0.00    +0.113 C 
ATOM     17  C   UNL     1     -10.739  14.201  18.072  0.00  0.00    +0.175 C 
ATOM     18  C   UNL     1      -8.744  13.375  17.139  0.00  0.00    +0.175 C 
ENDBRANCH   9   6
BRANCH  11   7
ATOM      5  O   UNL     1     -13.071   9.523  22.266  0.00  0.00    -0.252 OA
ATOM      7  N   UNL     1     -11.911  10.598  20.581  0.00  0.00    -0.291 N 
ATOM      8  N   UNL     1     -11.943  11.542  22.670  0.00  0.00    -0.269 N 
ATOM     19  C   UNL     1     -12.378  10.466  21.891  0.00  0.00    +0.304 C 
ATOM     26  H   UNL     1     -11.411  11.446  20.328  0.00  0.00    +0.151 HD
ATOM     28  H   UNL     1     -11.372  12.243  22.202  0.00  0.00    +0.156 HD
BRANCH   8  20
ATOM     20  C   UNL     1     -12.199  11.782  24.040  0.00  0.00    +0.035 A 
ATOM     21  C   UNL     1     -11.547  11.027  25.015  0.00  0.00    +0.023 A 
ATOM     22  C   UNL     1     -13.106  12.773  24.416  0.00  0.00    +0.023 A 
ATOM     23  C   UNL     1     -11.801  11.263  26.366  0.00  0.00    +0.002 A 
ATOM     24  C   UNL     1     -13.360  13.010  25.767  0.00  0.00    +0.002 A 
ATOM     25  C   UNL     1     -12.708  12.255  26.742  0.00  0.00    +0.000 A 
ENDBRANCH   8  20
ENDBRANCH  11   7
BRANCH  10   3
ATOM      3  O   UNL     1     -13.419   9.593  17.450  0.00  0.00    -0.388 OA
ATOM     27  H   UNL     1     -13.833  10.190  16.804  0.00  0.00    +0.210 HD
ENDBRANCH  10   3
TORSDOF 4
ENDMDL
MODEL 9
REMARK VINA RESULT:      -6.0     27.606     29.591
REMARK  Name = 25314925
REMARK  4 active torsions:
REMARK  status: ('A' for Active; 'I' for Inactive)
REMARK    1  A    between atoms: O_3  and  C_10
REMARK    2  A    between atoms: N_6  and  C_9
REMARK    3  A    between atoms: N_7  and  C_11
REMARK    4  A    between atoms: N_8  and  C_20
REMARK                            x       y       z     vdW  Elec       q    Type
REMARK                         _______ _______ _______ _____ _____    ______ ____
ROOT
ATOM      1  O   UNL     1      -8.981 -12.814  18.000  0.00  0.00    -0.342 OA
ATOM      2  O   UNL     1      -9.159 -11.933  20.138  0.00  0.00    -0.347 OA
ATOM      9  C   UNL     1      -8.952 -10.417  18.265  0.00  0.00    +0.144 C 
ATOM     10  C   UNL     1      -7.413 -10.430  18.397  0.00  0.00    +0.159 C 
ATOM     11  C   UNL     1      -6.789 -11.826  18.178  0.00  0.00    +0.136 C 
ATOM     12  C   UNL     1      -7.707 -12.979  18.630  0.00  0.00    +0.170 C 
ATOM     13  C   UNL     1      -9.550 -11.745  18.768  0.00  0.00    +0.270 C 
ATOM     14  C   UNL     1      -8.111 -12.915  20.091  0.00  0.00    +0.196 C 
ENDROOT
BRANCH   9   6
ATOM      4  O   UNL     1     -10.388  -8.600  14.765  0.00  0.00    -0.377 OA
ATOM      6  N   UNL     1      -9.337 -10.199  16.873  0.00  0.00    -0.288 NA
ATOM     15  C   UNL     1      -8.563  -9.097  16.284  0.00  0.00    +0.113 C 
ATOM     16  C   UNL     1     -10.775  -9.916  16.766  0.00  0.00    +0.113 C 
ATOM     17  C   UNL     1      -8.990  -8.880  14.835  0.00  0.00    +0.175 C 
ATOM     18  C   UNL     1     -11.150  -9.681  15.305  0.00  0.00    +0.175 C 
ENDBRANCH   9   6
BRANCH  11   7
ATOM      5  O   UNL     1      -4.343 -11.021  16.923  0.00  0.00    -0.252 OA
ATOM      7  N   UNL     1      -6.433 -11.999  16.786  0.00  0.00    -0.291 N 
ATOM      8  N   UNL     1      -5.150 -11.875  14.891  0.00  0.00    -0.269 N 
ATOM     19  C   UNL     1      -5.213 -11.575  16.254  0.00  0.00    +0.304 C 
ATOM     26  H   UNL     1      -7.133 -12.377  16.154  0.00  0.00    +0.151 HD
ATOM     28  H   UNL     1      -5.961 -12.339  14.488  0.00  0.00    +0.156 HD
BRANCH   8  20
ATOM     20  C   UNL     1      -4.091 -11.612  13.991  0.00  0.00    +0.035 A 
ATOM     21  C   UNL     1      -4.206 -10.579  13.061  0.00  0.00    +0.023 A 
ATOM     22  C   UNL     1      -2.932 -12.389  14.032  0.00  0.00    +0.023 A 
ATOM     23  C   UNL     1      -3.162 -10.322  12.173  0.00  0.00    +0.002 A 
ATOM     24  C   UNL     1      -1.888 -12.131  13.144  0.00  0.00    +0.002 A 
ATOM     25  C   UNL     1      -2.003 -11.097  12.214  0.00  0.00    +0.000 A 
ENDBRANCH   8  20
ENDBRANCH  11   7
BRANCH  10   3
ATOM      3  O   UNL     1      -7.083  -9.980  19.718  0.00  0.00    -0.388 OA
ATOM     27  H   UNL     1      -6.272 -10.441  19.991  0.00  0.00    +0.210 HD
ENDBRANCH  10   3
TORSDOF 4
ENDMDL
MODEL 10
REMARK VINA RESULT:      -5.9     33.475     36.652
REMARK  Name = 25314925
REMARK  4 active torsions:
REMARK  status: ('A' for Active; 'I' for Inactive)
REMARK    1  A    between atoms: O_3  and  C_10
REMARK    2  A    between atoms: N_6  and  C_9
REMARK    3  A    between atoms: N_7  and  C_11
REMARK    4  A    between atoms: N_8  and  C_20
REMARK                            x       y       z     vdW  Elec       q    Type
REMARK                         _______ _______ _______ _____ _____    ______ ____
ROOT
ATOM      1  O   UNL     1      -1.351 -15.157  -6.193  0.00  0.00    -0.342 OA
ATOM      2  O   UNL     1      -2.613 -13.305  -6.786  0.00  0.00    -0.347 OA
ATOM      9  C   UNL     1      -0.219 -13.057  -6.547  0.00  0.00    +0.144 C 
ATOM     10  C   UNL     1      -0.384 -12.695  -5.054  0.00  0.00    +0.159 C 
ATOM     11  C   UNL     1      -1.009 -13.828  -4.212  0.00  0.00    +0.136 C 
ATOM     12  C   UNL     1      -2.004 -14.698  -5.007  0.00  0.00    +0.170 C 
ATOM     13  C   UNL     1      -1.364 -13.979  -7.010  0.00  0.00    +0.270 C 
ATOM     14  C   UNL     1      -3.160 -13.924  -5.611  0.00  0.00    +0.196 C 
ENDROOT
BRANCH   9   6
ATOM      4  O   UNL     1       3.712 -13.809  -7.810  0.00  0.00    -0.377 OA
ATOM      6  N   UNL     1       1.065 -13.719  -6.766  0.00  0.00    -0.288 NA
ATOM     15  C   UNL     1       2.159 -12.948  -6.157  0.00  0.00    +0.113 C 
ATOM     16  C   UNL     1       1.320 -13.903  -8.202  0.00  0.00    +0.113 C 
ATOM     17  C   UNL     1       3.491 -13.651  -6.408  0.00  0.00    +0.175 C 
ATOM     18  C   UNL     1       2.671 -14.584  -8.405  0.00  0.00    +0.175 C 
ENDBRANCH   9   6
BRANCH  11   7
ATOM      5  O   UNL     1       0.815 -13.114  -2.122  0.00  0.00    -0.252 OA
ATOM      7  N   UNL     1       0.030 -14.662  -3.649  0.00  0.00    -0.291 N 
ATOM      8  N   UNL     1       1.779 -15.248  -2.287  0.00  0.00    -0.269 N 
ATOM     19  C   UNL     1       0.880 -14.233  -2.626  0.00  0.00    +0.304 C 
ATOM     26  H   UNL     1       0.198 -15.572  -4.069  0.00  0.00    +0.151 HD
ATOM     28  H   UNL     1       1.698 -16.120  -2.805  0.00  0.00    +0.156 HD
BRANCH   8  20
ATOM     20  C   UNL     1       2.797 -15.215  -1.306  0.00  0.00    +0.035 A 
ATOM     21  C   UNL     1       2.551 -15.717  -0.028  0.00  0.00    +0.023 A 
ATOM     22  C   UNL     1       4.046 -14.677  -1.616  0.00  0.00    +0.023 A 
ATOM     23  C   UNL     1       3.555 -15.683   0.939  0.00  0.00    +0.002 A 
ATOM     24  C   UNL     1       5.050 -14.643  -0.649  0.00  0.00    +0.002 A 
ATOM     25  C   UNL     1       4.805 -15.146   0.629  0.00  0.00    +0.000 A 
ENDBRANCH   8  20
ENDBRANCH  11   7
BRANCH  10   3
ATOM      3  O   UNL     1      -1.231 -11.541  -4.975  0.00  0.00    -0.388 OA
ATOM     27  H   UNL     1      -1.585 -11.497  -4.072  0.00  0.00    +0.210 HD
ENDBRANCH  10   3
TORSDOF 4
ENDMDL
