REMARK  Name = 75536086
REMARK  8 active torsions:
REMARK  status: ('A' for Active; 'I' for Inactive)
REMARK    1  A    between atoms: O_1  and  C_10
REMARK    2  A    between atoms: O_2  and  C_12
REMARK    3  A    between atoms: N_5  and  C_9
REMARK    4  A    between atoms: N_7  and  C_19
REMARK    5  A    between atoms: C_8  and  C_13
REMARK    6  A    between atoms: C_16  and  C_17
REMARK    7  A    between atoms: C_17  and  C_22
REMARK    8  A    between atoms: C_17  and  C_23
REMARK                            x       y       z     vdW  Elec       q    Type
REMARK                         _______ _______ _______ _____ _____    ______ ____
ROOT
ATOM      8  C   UNL     1       1.785  -1.063   1.025  0.00  0.00    +0.046 C 
ATOM      9  C   UNL     1       2.691  -0.556  -0.119  0.00  0.00    +0.111 C 
ATOM     10  C   UNL     1       3.855  -1.546  -0.117  0.00  0.00    +0.164 C 
ATOM     11  C   UNL     1       2.131  -2.564   1.205  0.00  0.00    +0.044 C 
ATOM     12  C   UNL     1       3.170  -2.885   0.131  0.00  0.00    +0.145 C 
ENDROOT
BRANCH   8  13
ATOM      6  N   UNL     1      -1.642  -1.089  -0.601  0.00  0.00    -0.240 NA
ATOM     13  C   UNL     1       0.316  -0.786   0.785  0.00  0.00    -0.024 A 
ATOM     14  C   UNL     1      -0.422  -0.009   1.670  0.00  0.00    +0.009 A 
ATOM     15  C   UNL     1      -0.335  -1.299  -0.326  0.00  0.00    +0.116 A 
ATOM     18  C   UNL     1      -1.769   0.230   1.421  0.00  0.00    +0.044 A 
ATOM     19  C   UNL     1      -2.327  -0.328   0.282  0.00  0.00    +0.121 A 
BRANCH  19   7
ATOM      4  O   UNL     1      -6.343   0.429  -0.704  0.00  0.00    -0.377 OA
ATOM      7  N   UNL     1      -3.682  -0.079   0.044  0.00  0.00    -0.311 N 
ATOM     20  C   UNL     1      -4.459  -1.098  -0.676  0.00  0.00    +0.134 C 
ATOM     21  C   UNL     1      -4.155   1.300  -0.122  0.00  0.00    +0.134 C 
ATOM     24  C   UNL     1      -5.945  -0.906  -0.395  0.00  0.00    +0.178 C 
ATOM     25  C   UNL     1      -5.657   1.363   0.129  0.00  0.00    +0.178 C 
ENDBRANCH  19   7
ENDBRANCH   8  13
BRANCH   9   5
ATOM      3  O   UNL     1       1.444   1.850  -1.086  0.00  0.00    -0.276 OA
ATOM      5  N   UNL     1       3.136   0.797   0.102  0.00  0.00    -0.309 N 
ATOM     16  C   UNL     1       2.467   1.904  -0.406  0.00  0.00    +0.216 C 
ATOM     26  H   UNL     1       3.938   0.943   0.708  0.00  0.00    +0.149 HD
BRANCH  16  17
ATOM     17  C   UNL     1       3.143   3.221  -0.032  0.00  0.00    +0.069 C 
ATOM     22  C   UNL     1       2.923   4.257  -1.132  0.00  0.00    +0.017 C 
ATOM     23  C   UNL     1       2.624   3.746   1.305  0.00  0.00    +0.017 C 
ENDBRANCH  16  17
ENDBRANCH   9   5
BRANCH  10   1
ATOM      1  O   UNL     1       4.556  -1.552  -1.346  0.00  0.00    -0.387 OA
ATOM     27  H   UNL     1       5.215  -2.266  -1.303  0.00  0.00    +0.210 HD
ENDBRANCH  10   1
BRANCH  12   2
ATOM      2  O   UNL     1       2.492  -3.336  -1.038  0.00  0.00    -0.389 OA
ATOM     28  H   UNL     1       2.043  -4.168  -0.812  0.00  0.00    +0.210 HD
ENDBRANCH  12   2
TORSDOF 6
