MODEL 1
REMARK VINA RESULT:      -7.7      0.000      0.000
REMARK  Name = 40776919
REMARK  6 active torsions:
REMARK  status: ('A' for Active; 'I' for Inactive)
REMARK    1  A    between atoms: N_5  and  C_15
REMARK    2  A    between atoms: C_9  and  C_16
REMARK    3  A    between atoms: C_10  and  C_15
REMARK    4  A    between atoms: C_18  and  C_21
REMARK    5  A    between atoms: C_19  and  C_22
REMARK    6  A    between atoms: C_20  and  C_23
REMARK                            x       y       z     vdW  Elec       q    Type
REMARK                         _______ _______ _______ _____ _____    ______ ____
ROOT
ATOM      4  N   UNL     1      12.691   7.033  19.553  0.00  0.00    -0.297 NA
ATOM      8  C   UNL     1      14.100   9.123  18.903  0.00  0.00    +0.002 C 
ATOM      9  C   UNL     1      15.028   7.921  19.227  0.00  0.00    +0.055 C 
ATOM     10  C   UNL     1      12.238   8.214  20.334  0.00  0.00    +0.074 C 
ATOM     11  C   UNL     1      13.191   9.409  20.117  0.00  0.00    +0.024 C 
ATOM     12  C   UNL     1      13.183   8.677  17.744  0.00  0.00    +0.019 C 
ATOM     13  C   UNL     1      14.134   6.784  19.797  0.00  0.00    +0.094 C 
ATOM     14  C   UNL     1      12.511   7.343  18.115  0.00  0.00    +0.085 C 
ENDROOT
BRANCH   9  16
ATOM      6  N   UNL     1      16.341   9.382  20.686  0.00  0.00    -0.237 NA
ATOM      7  N   UNL     1      18.440   8.689  21.645  0.00  0.00    -0.232 NA
ATOM     16  C   UNL     1      16.258   8.175  20.089  0.00  0.00    +0.050 A 
ATOM     17  C   UNL     1      17.212   7.187  20.219  0.00  0.00    +0.052 A 
ATOM     18  C   UNL     1      18.294   7.503  21.018  0.00  0.00    +0.075 A 
ATOM     19  C   UNL     1      17.442   9.569  21.439  0.00  0.00    +0.127 A 
ATOM     22  C   UNL     1      17.571  10.892  22.113  0.00  0.00    +0.088 C 
BRANCH  18  21
ATOM      1  F   UNL     1      22.418   3.852  21.859  0.00  0.00    -0.205 F 
ATOM     21  C   UNL     1      19.362   6.557  21.235  0.00  0.00    +0.001 A 
ATOM     24  C   UNL     1      19.608   5.555  20.298  0.00  0.00    +0.013 A 
ATOM     25  C   UNL     1      20.148   6.646  22.384  0.00  0.00    +0.013 A 
ATOM     27  C   UNL     1      20.641   4.641  20.508  0.00  0.00    +0.039 A 
ATOM     28  C   UNL     1      21.180   5.732  22.595  0.00  0.00    +0.039 A 
ATOM     31  C   UNL     1      21.426   4.729  21.657  0.00  0.00    +0.123 A 
ENDBRANCH  18  21
ENDBRANCH   9  16
BRANCH  10  15
ATOM     15  C   UNL     1      12.053   7.894  21.819  0.00  0.00    +0.123 C 
BRANCH  15   5
ATOM      2  O   UNL     1      10.012   9.640  22.835  0.00  0.00    -0.267 OA
ATOM      5  N   UNL     1      12.250   9.062  22.621  0.00  0.00    -0.307 N 
ATOM     20  C   UNL     1      11.197   9.857  23.074  0.00  0.00    +0.279 C 
ATOM     32  H   UNL     1      13.201   9.326  22.860  0.00  0.00    +0.149 HD
BRANCH  20  23
ATOM      3  O   UNL     1      12.637  11.786  23.461  0.00  0.00    -0.458 OA
ATOM     23  C   UNL     1      11.570  11.052  23.874  0.00  0.00    +0.189 A 
ATOM     26  C   UNL     1      11.020  11.595  25.012  0.00  0.00    +0.054 A 
ATOM     29  C   UNL     1      11.799  12.736  25.319  0.00  0.00    +0.042 A 
ATOM     30  C   UNL     1      12.770  12.809  24.345  0.00  0.00    +0.196 A 
ENDBRANCH  20  23
ENDBRANCH  15   5
ENDBRANCH  10  15
TORSDOF 5
ENDMDL
MODEL 2
REMARK VINA RESULT:      -7.7      2.124      5.104
REMARK  Name = 40776919
REMARK  6 active torsions:
REMARK  status: ('A' for Active; 'I' for Inactive)
REMARK    1  A    between atoms: N_5  and  C_15
REMARK    2  A    between atoms: C_9  and  C_16
REMARK    3  A    between atoms: C_10  and  C_15
REMARK    4  A    between atoms: C_18  and  C_21
REMARK    5  A    between atoms: C_19  and  C_22
REMARK    6  A    between atoms: C_20  and  C_23
REMARK                            x       y       z     vdW  Elec       q    Type
REMARK                         _______ _______ _______ _____ _____    ______ ____
ROOT
ATOM      4  N   UNL     1      13.030  13.492  24.166  0.00  0.00    -0.297 NA
ATOM      8  C   UNL     1      15.160  11.996  24.148  0.00  0.00    +0.002 C 
ATOM      9  C   UNL     1      14.818  12.473  22.710  0.00  0.00    +0.055 C 
ATOM     10  C   UNL     1      12.772  12.234  24.913  0.00  0.00    +0.074 C 
ATOM     11  C   UNL     1      13.947  11.247  24.740  0.00  0.00    +0.024 C 
ATOM     12  C   UNL     1      15.369  13.266  25.000  0.00  0.00    +0.019 C 
ATOM     13  C   UNL     1      13.436  13.184  22.772  0.00  0.00    +0.094 C 
ATOM     14  C   UNL     1      14.154  14.194  24.832  0.00  0.00    +0.085 C 
ENDROOT
BRANCH   9  16
ATOM      6  N   UNL     1      14.037  11.627  20.551  0.00  0.00    -0.237 NA
ATOM      7  N   UNL     1      14.980   9.661  19.525  0.00  0.00    -0.232 NA
ATOM     16  C   UNL     1      14.893  11.455  21.579  0.00  0.00    +0.050 A 
ATOM     17  C   UNL     1      15.809  10.425  21.652  0.00  0.00    +0.052 A 
ATOM     18  C   UNL     1      15.808   9.549  20.584  0.00  0.00    +0.075 A 
ATOM     19  C   UNL     1      14.134  10.707  19.572  0.00  0.00    +0.127 A 
ATOM     22  C   UNL     1      13.202  10.862  18.419  0.00  0.00    +0.088 C 
BRANCH  18  21
ATOM      1  F   UNL     1      19.319   5.227  20.411  0.00  0.00    -0.205 F 
ATOM     21  C   UNL     1      16.716   8.429  20.539  0.00  0.00    +0.001 A 
ATOM     24  C   UNL     1      16.403   7.306  19.774  0.00  0.00    +0.013 A 
ATOM     25  C   UNL     1      17.910   8.471  21.261  0.00  0.00    +0.013 A 
ATOM     27  C   UNL     1      17.283   6.224  19.731  0.00  0.00    +0.039 A 
ATOM     28  C   UNL     1      18.789   7.389  21.218  0.00  0.00    +0.039 A 
ATOM     31  C   UNL     1      18.475   6.265  20.453  0.00  0.00    +0.123 A 
ENDBRANCH  18  21
ENDBRANCH   9  16
BRANCH  10  15
ATOM     15  C   UNL     1      11.432  11.597  24.538  0.00  0.00    +0.123 C 
BRANCH  15   5
ATOM      2  O   UNL     1      10.971  10.901  21.790  0.00  0.00    -0.267 OA
ATOM      5  N   UNL     1      11.627  10.313  23.938  0.00  0.00    -0.307 N 
ATOM     20  C   UNL     1      11.377  10.061  22.589  0.00  0.00    +0.279 C 
ATOM     32  H   UNL     1      11.953   9.552  24.527  0.00  0.00    +0.149 HD
BRANCH  20  23
ATOM      3  O   UNL     1      10.533   7.830  22.087  0.00  0.00    -0.458 OA
ATOM     23  C   UNL     1      11.603   8.668  22.126  0.00  0.00    +0.189 A 
ATOM     26  C   UNL     1      12.740   8.019  21.705  0.00  0.00    +0.054 A 
ATOM     29  C   UNL     1      12.346   6.698  21.387  0.00  0.00    +0.042 A 
ATOM     30  C   UNL     1      10.994   6.634  21.636  0.00  0.00    +0.196 A 
ENDBRANCH  20  23
ENDBRANCH  15   5
ENDBRANCH  10  15
TORSDOF 5
ENDMDL
MODEL 3
REMARK VINA RESULT:      -7.6     29.292     32.587
REMARK  Name = 40776919
REMARK  6 active torsions:
REMARK  status: ('A' for Active; 'I' for Inactive)
REMARK    1  A    between atoms: N_5  and  C_15
REMARK    2  A    between atoms: C_9  and  C_16
REMARK    3  A    between atoms: C_10  and  C_15
REMARK    4  A    between atoms: C_18  and  C_21
REMARK    5  A    between atoms: C_19  and  C_22
REMARK    6  A    between atoms: C_20  and  C_23
REMARK                            x       y       z     vdW  Elec       q    Type
REMARK                         _______ _______ _______ _____ _____    ______ ____
ROOT
ATOM      4  N   UNL     1     -18.535   2.912  26.006  0.00  0.00    -0.297 NA
ATOM      8  C   UNL     1     -16.807   0.965  26.045  0.00  0.00    +0.002 C 
ATOM      9  C   UNL     1     -17.245   1.332  27.489  0.00  0.00    +0.055 C 
ATOM     10  C   UNL     1     -17.353   3.265  25.176  0.00  0.00    +0.074 C 
ATOM     11  C   UNL     1     -16.232   2.218  25.352  0.00  0.00    +0.024 C 
ATOM     12  C   UNL     1     -18.087   0.569  25.279  0.00  0.00    +0.019 C 
ATOM     13  C   UNL     1     -18.110   2.621  27.399  0.00  0.00    +0.094 C 
ATOM     14  C   UNL     1     -19.138   1.682  25.439  0.00  0.00    +0.085 C 
ENDROOT
BRANCH   9  16
ATOM      6  N   UNL     1     -15.364   0.363  28.716  0.00  0.00    -0.237 NA
ATOM      7  N   UNL     1     -14.223   1.556  30.472  0.00  0.00    -0.232 NA
ATOM     16  C   UNL     1     -16.169   1.433  28.562  0.00  0.00    +0.050 A 
ATOM     17  C   UNL     1     -16.066   2.586  29.314  0.00  0.00    +0.052 A 
ATOM     18  C   UNL     1     -15.064   2.592  30.264  0.00  0.00    +0.075 A 
ATOM     19  C   UNL     1     -14.426   0.491  29.675  0.00  0.00    +0.127 A 
ATOM     22  C   UNL     1     -13.517  -0.674  29.877  0.00  0.00    +0.088 C 
BRANCH  18  21
ATOM      1  F   UNL     1     -14.241   7.010  33.558  0.00  0.00    -0.205 F 
ATOM     21  C   UNL     1     -14.851   3.737  31.117  0.00  0.00    +0.001 A 
ATOM     24  C   UNL     1     -15.527   4.930  30.864  0.00  0.00    +0.013 A 
ATOM     25  C   UNL     1     -13.970   3.648  32.195  0.00  0.00    +0.013 A 
ATOM     27  C   UNL     1     -15.320   6.036  31.689  0.00  0.00    +0.039 A 
ATOM     28  C   UNL     1     -13.763   4.754  33.019  0.00  0.00    +0.039 A 
ATOM     31  C   UNL     1     -14.439   5.948  32.766  0.00  0.00    +0.123 A 
ENDBRANCH  18  21
ENDBRANCH   9  16
BRANCH  10  15
ATOM     15  C   UNL     1     -16.855   4.686  25.448  0.00  0.00    +0.123 C 
BRANCH  15   5
ATOM      2  O   UNL     1     -16.974   6.132  22.969  0.00  0.00    -0.267 OA
ATOM      5  N   UNL     1     -15.753   5.012  24.595  0.00  0.00    -0.307 N 
ATOM     20  C   UNL     1     -15.901   5.720  23.403  0.00  0.00    +0.279 C 
ATOM     32  H   UNL     1     -14.825   4.702  24.870  0.00  0.00    +0.149 HD
BRANCH  20  23
ATOM      3  O   UNL     1     -14.529   7.149  21.982  0.00  0.00    -0.458 OA
ATOM     23  C   UNL     1     -14.662   5.955  22.618  0.00  0.00    +0.189 A 
ATOM     26  C   UNL     1     -13.561   5.161  22.392  0.00  0.00    +0.054 A 
ATOM     29  C   UNL     1     -12.695   5.916  21.565  0.00  0.00    +0.042 A 
ATOM     30  C   UNL     1     -13.329   7.117  21.344  0.00  0.00    +0.196 A 
ENDBRANCH  20  23
ENDBRANCH  15   5
ENDBRANCH  10  15
TORSDOF 5
ENDMDL
MODEL 4
REMARK VINA RESULT:      -7.6     15.343     19.038
REMARK  Name = 40776919
REMARK  6 active torsions:
REMARK  status: ('A' for Active; 'I' for Inactive)
REMARK    1  A    between atoms: N_5  and  C_15
REMARK    2  A    between atoms: C_9  and  C_16
REMARK    3  A    between atoms: C_10  and  C_15
REMARK    4  A    between atoms: C_18  and  C_21
REMARK    5  A    between atoms: C_19  and  C_22
REMARK    6  A    between atoms: C_20  and  C_23
REMARK                            x       y       z     vdW  Elec       q    Type
REMARK                         _______ _______ _______ _____ _____    ______ ____
ROOT
ATOM      4  N   UNL     1      10.635   5.320   8.017  0.00  0.00    -0.297 NA
ATOM      8  C   UNL     1       9.271   7.337   7.094  0.00  0.00    +0.002 C 
ATOM      9  C   UNL     1       9.178   6.128   6.124  0.00  0.00    +0.055 C 
ATOM     10  C   UNL     1      11.470   6.550   8.039  0.00  0.00    +0.074 C 
ATOM     11  C   UNL     1      10.755   7.707   7.308  0.00  0.00    +0.024 C 
ATOM     12  C   UNL     1       8.723   6.859   8.455  0.00  0.00    +0.019 C 
ATOM     13  C   UNL     1      10.170   5.045   6.634  0.00  0.00    +0.094 C 
ATOM     14  C   UNL     1       9.444   5.564   8.866  0.00  0.00    +0.085 C 
ENDROOT
BRANCH   9  16
ATOM      6  N   UNL     1       8.681   7.467   4.138  0.00  0.00    -0.237 NA
ATOM      7  N   UNL     1       9.559   6.913   1.963  0.00  0.00    -0.232 NA
ATOM     16  C   UNL     1       9.328   6.392   4.632  0.00  0.00    +0.050 A 
ATOM     17  C   UNL     1      10.099   5.540   3.866  0.00  0.00    +0.052 A 
ATOM     18  C   UNL     1      10.179   5.853   2.523  0.00  0.00    +0.075 A 
ATOM     19  C   UNL     1       8.838   7.666   2.814  0.00  0.00    +0.127 A 
ATOM     22  C   UNL     1       8.136   8.844   2.231  0.00  0.00    +0.088 C 
BRANCH  18  21
ATOM      1  F   UNL     1      13.162   2.722  -0.990  0.00  0.00    -0.205 F 
ATOM     21  C   UNL     1      10.953   5.042   1.614  0.00  0.00    +0.001 A 
ATOM     24  C   UNL     1      12.005   4.264   2.095  0.00  0.00    +0.013 A 
ATOM     25  C   UNL     1      10.646   5.037   0.253  0.00  0.00    +0.013 A 
ATOM     27  C   UNL     1      12.751   3.480   1.215  0.00  0.00    +0.039 A 
ATOM     28  C   UNL     1      11.393   4.253  -0.627  0.00  0.00    +0.039 A 
ATOM     31  C   UNL     1      12.446   3.475  -0.145  0.00  0.00    +0.123 A 
ENDBRANCH  18  21
ENDBRANCH   9  16
BRANCH  10  15
ATOM     15  C   UNL     1      12.876   6.309   7.487  0.00  0.00    +0.123 C 
BRANCH  15   5
ATOM      2  O   UNL     1      14.848   7.812   6.038  0.00  0.00    -0.267 OA
ATOM      5  N   UNL     1      12.915   6.528   6.074  0.00  0.00    -0.307 N 
ATOM     20  C   UNL     1      13.913   7.274   5.450  0.00  0.00    +0.279 C 
ATOM     32  H   UNL     1      12.173   6.128   5.506  0.00  0.00    +0.149 HD
BRANCH  20  23
ATOM      3  O   UNL     1      14.675   6.754   3.193  0.00  0.00    -0.458 OA
ATOM     23  C   UNL     1      13.795   7.432   3.977  0.00  0.00    +0.189 A 
ATOM     26  C   UNL     1      12.926   8.167   3.205  0.00  0.00    +0.054 A 
ATOM     29  C   UNL     1      13.294   7.926   1.860  0.00  0.00    +0.042 A 
ATOM     30  C   UNL     1      14.363   7.060   1.906  0.00  0.00    +0.196 A 
ENDBRANCH  20  23
ENDBRANCH  15   5
ENDBRANCH  10  15
TORSDOF 5
ENDMDL
MODEL 5
REMARK VINA RESULT:      -7.6     26.641     30.025
REMARK  Name = 40776919
REMARK  6 active torsions:
REMARK  status: ('A' for Active; 'I' for Inactive)
REMARK    1  A    between atoms: N_5  and  C_15
REMARK    2  A    between atoms: C_9  and  C_16
REMARK    3  A    between atoms: C_10  and  C_15
REMARK    4  A    between atoms: C_18  and  C_21
REMARK    5  A    between atoms: C_19  and  C_22
REMARK    6  A    between atoms: C_20  and  C_23
REMARK                            x       y       z     vdW  Elec       q    Type
REMARK                         _______ _______ _______ _____ _____    ______ ____
ROOT
ATOM      4  N   UNL     1      -7.460 -11.839  17.418  0.00  0.00    -0.297 NA
ATOM      8  C   UNL     1      -5.087 -11.168  18.255  0.00  0.00    +0.002 C 
ATOM      9  C   UNL     1      -5.384 -10.513  16.878  0.00  0.00    +0.055 C 
ATOM     10  C   UNL     1      -6.706 -13.052  17.831  0.00  0.00    +0.074 C 
ATOM     11  C   UNL     1      -5.233 -12.700  18.134  0.00  0.00    +0.024 C 
ATOM     12  C   UNL     1      -6.187 -10.683  19.224  0.00  0.00    +0.019 C 
ATOM     13  C   UNL     1      -6.719 -11.116  16.355  0.00  0.00    +0.094 C 
ATOM     14  C   UNL     1      -7.567 -10.946  18.597  0.00  0.00    +0.085 C 
ENDROOT
BRANCH   9  16
ATOM      6  N   UNL     1      -3.017 -10.451  16.265  0.00  0.00    -0.237 NA
ATOM      7  N   UNL     1      -2.280 -10.567  13.973  0.00  0.00    -0.232 NA
ATOM     16  C   UNL     1      -4.288 -10.535  15.821  0.00  0.00    +0.050 A 
ATOM     17  C   UNL     1      -4.631 -10.636  14.488  0.00  0.00    +0.052 A 
ATOM     18  C   UNL     1      -3.574 -10.648  13.599  0.00  0.00    +0.075 A 
ATOM     19  C   UNL     1      -2.076 -10.472  15.300  0.00  0.00    +0.127 A 
ATOM     22  C   UNL     1      -0.658 -10.378  15.751  0.00  0.00    +0.088 C 
BRANCH  18  21
ATOM      1  F   UNL     1      -4.440 -11.032   8.108  0.00  0.00    -0.205 F 
ATOM     21  C   UNL     1      -3.798 -10.748  12.177  0.00  0.00    +0.001 A 
ATOM     24  C   UNL     1      -3.490 -11.930  11.503  0.00  0.00    +0.013 A 
ATOM     25  C   UNL     1      -4.324  -9.662  11.476  0.00  0.00    +0.013 A 
ATOM     27  C   UNL     1      -3.707 -12.025  10.129  0.00  0.00    +0.039 A 
ATOM     28  C   UNL     1      -4.540  -9.758  10.101  0.00  0.00    +0.039 A 
ATOM     31  C   UNL     1      -4.232 -10.940   9.428  0.00  0.00    +0.123 A 
ENDBRANCH  18  21
ENDBRANCH   9  16
BRANCH  10  15
ATOM     15  C   UNL     1      -6.824 -14.186  16.813  0.00  0.00    +0.123 C 
BRANCH  15   5
ATOM      2  O   UNL     1      -6.377 -13.888  13.992  0.00  0.00    -0.267 OA
ATOM      5  N   UNL     1      -5.588 -14.380  16.118  0.00  0.00    -0.307 N 
ATOM     20  C   UNL     1      -5.459 -14.214  14.740  0.00  0.00    +0.279 C 
ATOM     32  H   UNL     1      -4.774 -14.662  16.657  0.00  0.00    +0.149 HD
BRANCH  20  23
ATOM      3  O   UNL     1      -4.041 -15.256  13.053  0.00  0.00    -0.458 OA
ATOM     23  C   UNL     1      -4.115 -14.480  14.167  0.00  0.00    +0.189 A 
ATOM     26  C   UNL     1      -2.860 -14.075  14.559  0.00  0.00    +0.054 A 
ATOM     29  C   UNL     1      -1.956 -14.639  13.627  0.00  0.00    +0.042 A 
ATOM     30  C   UNL     1      -2.724 -15.348  12.731  0.00  0.00    +0.196 A 
ENDBRANCH  20  23
ENDBRANCH  15   5
ENDBRANCH  10  15
TORSDOF 5
ENDMDL
MODEL 6
REMARK VINA RESULT:      -7.4     15.258     18.324
REMARK  Name = 40776919
REMARK  6 active torsions:
REMARK  status: ('A' for Active; 'I' for Inactive)
REMARK    1  A    between atoms: N_5  and  C_15
REMARK    2  A    between atoms: C_9  and  C_16
REMARK    3  A    between atoms: C_10  and  C_15
REMARK    4  A    between atoms: C_18  and  C_21
REMARK    5  A    between atoms: C_19  and  C_22
REMARK    6  A    between atoms: C_20  and  C_23
REMARK                            x       y       z     vdW  Elec       q    Type
REMARK                         _______ _______ _______ _____ _____    ______ ____
ROOT
ATOM      4  N   UNL     1       8.018  10.307   2.548  0.00  0.00    -0.297 NA
ATOM      8  C   UNL     1       9.425   8.604   1.170  0.00  0.00    +0.002 C 
ATOM      9  C   UNL     1       8.613   7.871   2.274  0.00  0.00    +0.055 C 
ATOM     10  C   UNL     1       9.427  10.770   2.455  0.00  0.00    +0.074 C 
ATOM     11  C   UNL     1      10.319   9.680   1.823  0.00  0.00    +0.024 C 
ATOM     12  C   UNL     1       8.402   9.342   0.281  0.00  0.00    +0.019 C 
ATOM     13  C   UNL     1       7.965   8.961   3.174  0.00  0.00    +0.094 C 
ATOM     14  C   UNL     1       7.483  10.198   1.170  0.00  0.00    +0.085 C 
ENDROOT
BRANCH   9  16
ATOM      6  N   UNL     1      10.138   5.964   2.413  0.00  0.00    -0.237 NA
ATOM      7  N   UNL     1      10.605   4.842   4.494  0.00  0.00    -0.232 NA
ATOM     16  C   UNL     1       9.317   6.794   3.088  0.00  0.00    +0.050 A 
ATOM     17  C   UNL     1       9.091   6.713   4.447  0.00  0.00    +0.052 A 
ATOM     18  C   UNL     1       9.769   5.707   5.106  0.00  0.00    +0.075 A 
ATOM     19  C   UNL     1      10.741   5.025   3.168  0.00  0.00    +0.127 A 
ATOM     22  C   UNL     1      11.655   4.086   2.457  0.00  0.00    +0.088 C 
BRANCH  18  21
ATOM      1  F   UNL     1       9.186   4.969  10.598  0.00  0.00    -0.205 F 
ATOM     21  C   UNL     1       9.618   5.515   6.529  0.00  0.00    +0.001 A 
ATOM     24  C   UNL     1       9.903   4.275   7.100  0.00  0.00    +0.013 A 
ATOM     25  C   UNL     1       9.188   6.571   7.332  0.00  0.00    +0.013 A 
ATOM     27  C   UNL     1       9.757   4.091   8.475  0.00  0.00    +0.039 A 
ATOM     28  C   UNL     1       9.041   6.387   8.707  0.00  0.00    +0.039 A 
ATOM     31  C   UNL     1       9.326   5.146   9.278  0.00  0.00    +0.123 A 
ENDBRANCH  18  21
ENDBRANCH   9  16
BRANCH  10  15
ATOM     15  C   UNL     1       9.975  11.245   3.802  0.00  0.00    +0.123 C 
BRANCH  15   5
ATOM      2  O   UNL     1       9.842   9.748   6.250  0.00  0.00    -0.267 OA
ATOM      5  N   UNL     1      10.960  10.335   4.302  0.00  0.00    -0.307 N 
ATOM     20  C   UNL     1      10.814   9.648   5.506  0.00  0.00    +0.279 C 
ATOM     32  H   UNL     1      11.805  10.196   3.757  0.00  0.00    +0.149 HD
BRANCH  20  23
ATOM      3  O   UNL     1      12.422   7.896   4.968  0.00  0.00    -0.458 OA
ATOM     23  C   UNL     1      11.940   8.761   5.899  0.00  0.00    +0.189 A 
ATOM     26  C   UNL     1      12.630   8.633   7.082  0.00  0.00    +0.054 A 
ATOM     29  C   UNL     1      13.600   7.625   6.865  0.00  0.00    +0.042 A 
ATOM     30  C   UNL     1      13.432   7.209   5.564  0.00  0.00    +0.196 A 
ENDBRANCH  20  23
ENDBRANCH  15   5
ENDBRANCH  10  15
TORSDOF 5
ENDMDL
MODEL 7
REMARK VINA RESULT:      -7.3     15.644     18.998
REMARK  Name = 40776919
REMARK  6 active torsions:
REMARK  status: ('A' for Active; 'I' for Inactive)
REMARK    1  A    between atoms: N_5  and  C_15
REMARK    2  A    between atoms: C_9  and  C_16
REMARK    3  A    between atoms: C_10  and  C_15
REMARK    4  A    between atoms: C_18  and  C_21
REMARK    5  A    between atoms: C_19  and  C_22
REMARK    6  A    between atoms: C_20  and  C_23
REMARK                            x       y       z     vdW  Elec       q    Type
REMARK                         _______ _______ _______ _____ _____    ______ ____
ROOT
ATOM      4  N   UNL     1      12.954   5.781  -0.097  0.00  0.00    -0.297 NA
ATOM      8  C   UNL     1      11.798   4.226   1.642  0.00  0.00    +0.002 C 
ATOM      9  C   UNL     1      10.857   5.399   1.251  0.00  0.00    +0.055 C 
ATOM     10  C   UNL     1      13.864   5.541   1.053  0.00  0.00    +0.074 C 
ATOM     11  C   UNL     1      13.125   4.795   2.185  0.00  0.00    +0.024 C 
ATOM     12  C   UNL     1      12.129   3.469   0.338  0.00  0.00    +0.019 C 
ATOM     13  C   UNL     1      11.683   6.385   0.376  0.00  0.00    +0.094 C 
ATOM     14  C   UNL     1      12.643   4.469  -0.712  0.00  0.00    +0.085 C 
ENDROOT
BRANCH   9  16
ATOM      6  N   UNL     1       9.368   7.187   2.005  0.00  0.00    -0.237 NA
ATOM      7  N   UNL     1       8.718   7.430   4.313  0.00  0.00    -0.232 NA
ATOM     16  C   UNL     1      10.098   6.112   2.363  0.00  0.00    +0.050 A 
ATOM     17  C   UNL     1      10.188   5.640   3.657  0.00  0.00    +0.052 A 
ATOM     18  C   UNL     1       9.469   6.346   4.601  0.00  0.00    +0.075 A 
ATOM     19  C   UNL     1       8.712   7.790   3.016  0.00  0.00    +0.127 A 
ATOM     22  C   UNL     1       7.896   8.985   2.661  0.00  0.00    +0.088 C 
BRANCH  18  21
ATOM      1  F   UNL     1       9.509   4.836   9.964  0.00  0.00    -0.205 F 
ATOM     21  C   UNL     1       9.479   5.956   5.990  0.00  0.00    +0.001 A 
ATOM     24  C   UNL     1       9.108   6.871   6.975  0.00  0.00    +0.013 A 
ATOM     25  C   UNL     1       9.859   4.662   6.347  0.00  0.00    +0.013 A 
ATOM     27  C   UNL     1       9.118   6.493   8.318  0.00  0.00    +0.039 A 
ATOM     28  C   UNL     1       9.870   4.284   7.690  0.00  0.00    +0.039 A 
ATOM     31  C   UNL     1       9.499   5.200   8.675  0.00  0.00    +0.123 A 
ENDBRANCH  18  21
ENDBRANCH   9  16
BRANCH  10  15
ATOM     15  C   UNL     1      14.523   6.828   1.553  0.00  0.00    +0.123 C 
BRANCH  15   5
ATOM      2  O   UNL     1      15.927   7.387   3.995  0.00  0.00    -0.267 OA
ATOM      5  N   UNL     1      13.946   7.249   2.792  0.00  0.00    -0.307 N 
ATOM     20  C   UNL     1      14.705   7.500   3.935  0.00  0.00    +0.279 C 
ATOM     32  H   UNL     1      12.937   7.360   2.840  0.00  0.00    +0.149 HD
BRANCH  20  23
ATOM      3  O   UNL     1      14.345   9.034   5.795  0.00  0.00    -0.458 OA
ATOM     23  C   UNL     1      13.953   7.903   5.151  0.00  0.00    +0.189 A 
ATOM     26  C   UNL     1      12.878   7.330   5.790  0.00  0.00    +0.054 A 
ATOM     29  C   UNL     1      12.591   8.162   6.899  0.00  0.00    +0.042 A 
ATOM     30  C   UNL     1      13.511   9.184   6.858  0.00  0.00    +0.196 A 
ENDBRANCH  20  23
ENDBRANCH  15   5
ENDBRANCH  10  15
TORSDOF 5
ENDMDL
MODEL 8
REMARK VINA RESULT:      -7.2     14.670     17.867
REMARK  Name = 40776919
REMARK  6 active torsions:
REMARK  status: ('A' for Active; 'I' for Inactive)
REMARK    1  A    between atoms: N_5  and  C_15
REMARK    2  A    between atoms: C_9  and  C_16
REMARK    3  A    between atoms: C_10  and  C_15
REMARK    4  A    between atoms: C_18  and  C_21
REMARK    5  A    between atoms: C_19  and  C_22
REMARK    6  A    between atoms: C_20  and  C_23
REMARK                            x       y       z     vdW  Elec       q    Type
REMARK                         _______ _______ _______ _____ _____    ______ ____
ROOT
ATOM      4  N   UNL     1      11.005   7.001   7.642  0.00  0.00    -0.297 NA
ATOM      8  C   UNL     1       9.268   5.492   6.424  0.00  0.00    +0.002 C 
ATOM      9  C   UNL     1      10.524   5.704   5.534  0.00  0.00    +0.055 C 
ATOM     10  C   UNL     1       9.663   7.638   7.683  0.00  0.00    +0.074 C 
ATOM     11  C   UNL     1       8.666   6.865   6.793  0.00  0.00    +0.024 C 
ATOM     12  C   UNL     1       9.758   4.844   7.736  0.00  0.00    +0.019 C 
ATOM     13  C   UNL     1      11.416   6.768   6.235  0.00  0.00    +0.094 C 
ATOM     14  C   UNL     1      10.906   5.686   8.320  0.00  0.00    +0.085 C 
ENDROOT
BRANCH   9  16
ATOM      6  N   UNL     1       9.570   7.096   3.763  0.00  0.00    -0.237 NA
ATOM      7  N   UNL     1       9.900   6.606   1.426  0.00  0.00    -0.232 NA
ATOM     16  C   UNL     1      10.313   6.010   4.057  0.00  0.00    +0.050 A 
ATOM     17  C   UNL     1      10.876   5.183   3.105  0.00  0.00    +0.052 A 
ATOM     18  C   UNL     1      10.634   5.534   1.792  0.00  0.00    +0.075 A 
ATOM     19  C   UNL     1       9.406   7.332   2.446  0.00  0.00    +0.127 A 
ATOM     22  C   UNL     1       8.588   8.523   2.080  0.00  0.00    +0.088 C 
BRANCH  18  21
ATOM      1  F   UNL     1      12.682   2.515  -2.419  0.00  0.00    -0.205 F 
ATOM     21  C   UNL     1      11.166   4.752   0.702  0.00  0.00    +0.001 A 
ATOM     24  C   UNL     1      12.322   3.995   0.884  0.00  0.00    +0.013 A 
ATOM     25  C   UNL     1      10.520   4.753  -0.535  0.00  0.00    +0.013 A 
ATOM     27  C   UNL     1      12.834   3.239  -0.170  0.00  0.00    +0.039 A 
ATOM     28  C   UNL     1      11.033   3.998  -1.590  0.00  0.00    +0.039 A 
ATOM     31  C   UNL     1      12.190   3.241  -1.407  0.00  0.00    +0.123 A 
ENDBRANCH  18  21
ENDBRANCH   9  16
BRANCH  10  15
ATOM     15  C   UNL     1       9.712   9.125   7.326  0.00  0.00    +0.123 C 
BRANCH  15   5
ATOM      2  O   UNL     1      11.569  10.741   8.804  0.00  0.00    -0.267 OA
ATOM      5  N   UNL     1       9.419   9.934   8.469  0.00  0.00    -0.307 N 
ATOM     20  C   UNL     1      10.386  10.691   9.129  0.00  0.00    +0.279 C 
ATOM     32  H   UNL     1       8.464   9.947   8.816  0.00  0.00    +0.149 HD
BRANCH  20  23
ATOM      3  O   UNL     1      10.863  11.861  11.214  0.00  0.00    -0.458 OA
ATOM     23  C   UNL     1       9.926  11.456  10.317  0.00  0.00    +0.189 A 
ATOM     26  C   UNL     1       8.672  11.861  10.711  0.00  0.00    +0.054 A 
ATOM     29  C   UNL     1       8.849  12.559  11.930  0.00  0.00    +0.042 A 
ATOM     30  C   UNL     1      10.200  12.531  12.193  0.00  0.00    +0.196 A 
ENDBRANCH  20  23
ENDBRANCH  15   5
ENDBRANCH  10  15
TORSDOF 5
ENDMDL
MODEL 9
REMARK VINA RESULT:      -7.1     16.642     19.990
REMARK  Name = 40776919
REMARK  6 active torsions:
REMARK  status: ('A' for Active; 'I' for Inactive)
REMARK    1  A    between atoms: N_5  and  C_15
REMARK    2  A    between atoms: C_9  and  C_16
REMARK    3  A    between atoms: C_10  and  C_15
REMARK    4  A    between atoms: C_18  and  C_21
REMARK    5  A    between atoms: C_19  and  C_22
REMARK    6  A    between atoms: C_20  and  C_23
REMARK                            x       y       z     vdW  Elec       q    Type
REMARK                         _______ _______ _______ _____ _____    ______ ____
ROOT
ATOM      4  N   UNL     1      10.029   7.113   7.113  0.00  0.00    -0.297 NA
ATOM      8  C   UNL     1       9.495   5.254   5.370  0.00  0.00    +0.002 C 
ATOM      9  C   UNL     1      10.844   5.946   5.032  0.00  0.00    +0.055 C 
ATOM     10  C   UNL     1       8.642   7.277   6.606  0.00  0.00    +0.074 C 
ATOM     11  C   UNL     1       8.377   6.316   5.426  0.00  0.00    +0.024 C 
ATOM     12  C   UNL     1       9.639   4.672   6.792  0.00  0.00    +0.019 C 
ATOM     13  C   UNL     1      10.994   7.165   5.986  0.00  0.00    +0.094 C 
ATOM     14  C   UNL     1      10.127   5.776   7.746  0.00  0.00    +0.085 C 
ENDROOT
BRANCH   9  16
ATOM      6  N   UNL     1      11.177   7.628   3.287  0.00  0.00    -0.237 NA
ATOM      7  N   UNL     1      11.605   7.031   0.992  0.00  0.00    -0.232 NA
ATOM     16  C   UNL     1      11.119   6.313   3.580  0.00  0.00    +0.050 A 
ATOM     17  C   UNL     1      11.290   5.310   2.646  0.00  0.00    +0.052 A 
ATOM     18  C   UNL     1      11.533   5.733   1.355  0.00  0.00    +0.075 A 
ATOM     19  C   UNL     1      11.420   7.912   1.992  0.00  0.00    +0.127 A 
ATOM     22  C   UNL     1      11.490   9.356   1.629  0.00  0.00    +0.088 C 
BRANCH  18  21
ATOM      1  F   UNL     1      12.296   2.068  -2.773  0.00  0.00    -0.205 F 
ATOM     21  C   UNL     1      11.730   4.784   0.285  0.00  0.00    +0.001 A 
ATOM     24  C   UNL     1      10.793   4.686  -0.743  0.00  0.00    +0.013 A 
ATOM     25  C   UNL     1      12.859   3.964   0.280  0.00  0.00    +0.013 A 
ATOM     27  C   UNL     1      10.984   3.768  -1.776  0.00  0.00    +0.039 A 
ATOM     28  C   UNL     1      13.050   3.046  -0.753  0.00  0.00    +0.039 A 
ATOM     31  C   UNL     1      12.112   2.949  -1.781  0.00  0.00    +0.123 A 
ENDBRANCH  18  21
ENDBRANCH   9  16
BRANCH  10  15
ATOM     15  C   UNL     1       8.322   8.728   6.243  0.00  0.00    +0.123 C 
BRANCH  15   5
ATOM      2  O   UNL     1       7.311  11.102   4.982  0.00  0.00    -0.267 OA
ATOM      5  N   UNL     1       7.586   8.798   5.018  0.00  0.00    -0.307 N 
ATOM     20  C   UNL     1       7.131   9.998   4.475  0.00  0.00    +0.279 C 
ATOM     32  H   UNL     1       7.381   7.930   4.531  0.00  0.00    +0.149 HD
BRANCH  20  23
ATOM      3  O   UNL     1       5.007  10.034   3.278  0.00  0.00    -0.458 OA
ATOM     23  C   UNL     1       6.358   9.898   3.210  0.00  0.00    +0.189 A 
ATOM     26  C   UNL     1       6.758   9.685   1.911  0.00  0.00    +0.054 A 
ATOM     29  C   UNL     1       5.577   9.689   1.130  0.00  0.00    +0.042 A 
ATOM     30  C   UNL     1       4.540   9.905   2.008  0.00  0.00    +0.196 A 
ENDBRANCH  20  23
ENDBRANCH  15   5
ENDBRANCH  10  15
TORSDOF 5
ENDMDL
MODEL 10
REMARK VINA RESULT:      -7.1     15.884     18.475
REMARK  Name = 40776919
REMARK  6 active torsions:
REMARK  status: ('A' for Active; 'I' for Inactive)
REMARK    1  A    between atoms: N_5  and  C_15
REMARK    2  A    between atoms: C_9  and  C_16
REMARK    3  A    between atoms: C_10  and  C_15
REMARK    4  A    between atoms: C_18  and  C_21
REMARK    5  A    between atoms: C_19  and  C_22
REMARK    6  A    between atoms: C_20  and  C_23
REMARK                            x       y       z     vdW  Elec       q    Type
REMARK                         _______ _______ _______ _____ _____    ______ ____
ROOT
ATOM      4  N   UNL     1       7.532  10.506   4.654  0.00  0.00    -0.297 NA
ATOM      8  C   UNL     1       8.105   8.868   2.713  0.00  0.00    +0.002 C 
ATOM      9  C   UNL     1       7.916   8.090   4.044  0.00  0.00    +0.055 C 
ATOM     10  C   UNL     1       8.727  10.992   3.916  0.00  0.00    +0.074 C 
ATOM     11  C   UNL     1       9.205   9.935   2.897  0.00  0.00    +0.024 C 
ATOM     12  C   UNL     1       6.784   9.620   2.446  0.00  0.00    +0.019 C 
ATOM     13  C   UNL     1       7.779   9.141   5.181  0.00  0.00    +0.094 C 
ATOM     14  C   UNL     1       6.403  10.435   3.695  0.00  0.00    +0.085 C 
ENDROOT
BRANCH   9  16
ATOM      6  N   UNL     1       8.876   6.504   5.639  0.00  0.00    -0.237 NA
ATOM      7  N   UNL     1      10.697   5.037   5.055  0.00  0.00    -0.232 NA
ATOM     16  C   UNL     1       8.919   6.997   4.385  0.00  0.00    +0.050 A 
ATOM     17  C   UNL     1       9.811   6.568   3.422  0.00  0.00    +0.052 A 
ATOM     18  C   UNL     1      10.685   5.575   3.818  0.00  0.00    +0.075 A 
ATOM     19  C   UNL     1       9.780   5.540   5.903  0.00  0.00    +0.127 A 
ATOM     22  C   UNL     1       9.765   4.971   7.280  0.00  0.00    +0.088 C 
BRANCH  18  21
ATOM      1  F   UNL     1      14.478   3.514   0.295  0.00  0.00    -0.205 F 
ATOM     21  C   UNL     1      11.667   5.040   2.905  0.00  0.00    +0.001 A 
ATOM     24  C   UNL     1      11.565   3.722   2.464  0.00  0.00    +0.013 A 
ATOM     25  C   UNL     1      12.719   5.845   2.465  0.00  0.00    +0.013 A 
ATOM     27  C   UNL     1      12.515   3.206   1.582  0.00  0.00    +0.039 A 
ATOM     28  C   UNL     1      13.669   5.329   1.583  0.00  0.00    +0.039 A 
ATOM     31  C   UNL     1      13.566   4.009   1.142  0.00  0.00    +0.123 A 
ENDBRANCH  18  21
ENDBRANCH   9  16
BRANCH  10  15
ATOM     15  C   UNL     1       9.853  11.431   4.854  0.00  0.00    +0.123 C 
BRANCH  15   5
ATOM      2  O   UNL     1      10.396   9.874   7.205  0.00  0.00    -0.267 OA
ATOM      5  N   UNL     1      10.836  10.400   4.988  0.00  0.00    -0.307 N 
ATOM     20  C   UNL     1      11.035   9.691   6.172  0.00  0.00    +0.279 C 
ATOM     32  H   UNL     1      11.420  10.187   4.184  0.00  0.00    +0.149 HD
BRANCH  20  23
ATOM      3  O   UNL     1      12.148   7.765   7.168  0.00  0.00    -0.458 OA
ATOM     23  C   UNL     1      12.115   8.672   6.156  0.00  0.00    +0.189 A 
ATOM     26  C   UNL     1      13.146   8.449   5.273  0.00  0.00    +0.054 A 
ATOM     29  C   UNL     1      13.859   7.333   5.775  0.00  0.00    +0.042 A 
ATOM     30  C   UNL     1      13.212   6.954   6.928  0.00  0.00    +0.196 A 
ENDBRANCH  20  23
ENDBRANCH  15   5
ENDBRANCH  10  15
TORSDOF 5
ENDMDL
