MODEL 1
REMARK VINA RESULT:      -6.8      0.000      0.000
REMARK  Name = 11912251
REMARK  4 active torsions:
REMARK  status: ('A' for Active; 'I' for Inactive)
REMARK    1  A    between atoms: S_1  and  N_9
REMARK    2  A    between atoms: S_1  and  C_23
REMARK    3  A    between atoms: N_11  and  C_19
REMARK    4  A    between atoms: C_14  and  C_18
REMARK                            x       y       z     vdW  Elec       q    Type
REMARK                         _______ _______ _______ _____ _____    ______ ____
ROOT
ATOM      6  O   UNL     1     -10.582 -11.213  18.430  0.00  0.00    -0.377 OA
ATOM      7  O   UNL     1     -10.079  -8.654  14.185  0.00  0.00    -0.252 OA
ATOM      9  N   UNL     1      -6.539 -11.537  12.366  0.00  0.00    -0.162 NA
ATOM     10  N   UNL     1      -8.908 -10.591  13.755  0.00  0.00    -0.282 N 
ATOM     12  N   UNL     1     -10.075 -10.268  15.824  0.00  0.00    -0.281 N 
ATOM     14  C   UNL     1      -6.757 -11.873  13.800  0.00  0.00    +0.183 C 
ATOM     15  C   UNL     1      -8.226 -11.811  14.216  0.00  0.00    +0.139 C 
ATOM     16  C   UNL     1      -7.755 -11.112  11.624  0.00  0.00    +0.129 C 
ATOM     17  C   UNL     1      -8.504 -10.078  12.448  0.00  0.00    +0.126 C 
ATOM     20  C   UNL     1      -9.717  -9.776  14.564  0.00  0.00    +0.305 C 
ATOM     24  C   UNL     1     -10.707 -11.574  16.042  0.00  0.00    +0.137 C 
ATOM     25  C   UNL     1     -10.281  -9.331  16.926  0.00  0.00    +0.137 C 
ATOM     28  C   UNL     1     -10.281 -12.146  17.385  0.00  0.00    +0.179 C 
ATOM     29  C   UNL     1      -9.881  -9.980  18.244  0.00  0.00    +0.179 C 
ENDROOT
BRANCH  14  18
ATOM      5  O   UNL     1      -5.432  -9.902  14.000  0.00  0.00    -0.274 OA
ATOM     11  N   UNL     1      -5.779 -11.225  15.884  0.00  0.00    -0.303 N 
ATOM     18  C   UNL     1      -5.925 -10.883  14.551  0.00  0.00    +0.234 C 
ATOM     35  H   UNL     1      -6.266 -12.044  16.240  0.00  0.00    +0.149 HD
BRANCH  11  19
ATOM      8  O   UNL     1      -2.884 -11.077  15.887  0.00  0.00    -0.274 OA
ATOM     13  N   UNL     1      -3.338 -11.856  17.986  0.00  0.00    -0.314 N 
ATOM     19  C   UNL     1      -5.004 -10.446  16.820  0.00  0.00    +0.159 C 
ATOM     21  C   UNL     1      -5.707 -10.304  18.165  0.00  0.00    +0.033 C 
ATOM     22  C   UNL     1      -5.574 -11.576  18.989  0.00  0.00    +0.021 C 
ATOM     26  C   UNL     1      -3.637 -11.114  16.864  0.00  0.00    +0.233 C 
ATOM     27  C   UNL     1      -4.103 -11.861  19.217  0.00  0.00    +0.104 C 
ATOM     36  H   UNL     1      -2.441 -12.334  17.997  0.00  0.00    +0.149 HD
ENDBRANCH  11  19
ENDBRANCH  14  18
BRANCH   9   1
ATOM      1  S   UNL     1      -5.432 -12.513  11.504  0.00  0.00    +0.062 S 
ATOM      3  O   UNL     1      -5.976 -12.781  10.194  0.00  0.00    -0.153 OA
ATOM      4  O   UNL     1      -4.988 -13.579  12.370  0.00  0.00    -0.153 OA
BRANCH   1  23
ATOM      2  F   UNL     1      -0.997  -8.680  10.894  0.00  0.00    -0.205 F 
ATOM     23  C   UNL     1      -4.105 -11.365  11.320  0.00  0.00    +0.106 A 
ATOM     30  C   UNL     1      -4.206 -10.322  10.400  0.00  0.00    +0.031 A 
ATOM     31  C   UNL     1      -2.954 -11.502  12.097  0.00  0.00    +0.031 A 
ATOM     32  C   UNL     1      -3.156  -9.414  10.256  0.00  0.00    +0.040 A 
ATOM     33  C   UNL     1      -1.903 -10.594  11.952  0.00  0.00    +0.040 A 
ATOM     34  C   UNL     1      -2.005  -9.552  11.033  0.00  0.00    +0.124 A 
ENDBRANCH   1  23
ENDBRANCH   9   1
TORSDOF 4
ENDMDL
MODEL 2
REMARK VINA RESULT:      -6.3      3.084      6.963
REMARK  Name = 11912251
REMARK  4 active torsions:
REMARK  status: ('A' for Active; 'I' for Inactive)
REMARK    1  A    between atoms: S_1  and  N_9
REMARK    2  A    between atoms: S_1  and  C_23
REMARK    3  A    between atoms: N_11  and  C_19
REMARK    4  A    between atoms: C_14  and  C_18
REMARK                            x       y       z     vdW  Elec       q    Type
REMARK                         _______ _______ _______ _____ _____    ______ ____
ROOT
ATOM      6  O   UNL     1      -4.797  -9.842   8.172  0.00  0.00    -0.377 OA
ATOM      7  O   UNL     1      -1.883 -10.225  12.194  0.00  0.00    -0.252 OA
ATOM      9  N   UNL     1      -5.139 -12.790  14.836  0.00  0.00    -0.162 NA
ATOM     10  N   UNL     1      -3.562 -11.742  12.633  0.00  0.00    -0.282 N 
ATOM     12  N   UNL     1      -3.484 -10.525  10.570  0.00  0.00    -0.281 N 
ATOM     14  C   UNL     1      -5.807 -12.259  13.616  0.00  0.00    +0.183 C 
ATOM     15  C   UNL     1      -4.909 -12.279  12.380  0.00  0.00    +0.139 C 
ATOM     16  C   UNL     1      -3.707 -13.154  14.665  0.00  0.00    +0.129 C 
ATOM     17  C   UNL     1      -2.990 -12.021  13.948  0.00  0.00    +0.126 C 
ATOM     20  C   UNL     1      -2.912 -10.802  11.816  0.00  0.00    +0.305 C 
ATOM     24  C   UNL     1      -3.826 -11.552   9.579  0.00  0.00    +0.137 C 
ATOM     25  C   UNL     1      -3.333  -9.189   9.995  0.00  0.00    +0.137 C 
ATOM     28  C   UNL     1      -5.040 -11.119   8.772  0.00  0.00    +0.179 C 
ATOM     29  C   UNL     1      -4.559  -8.838   9.163  0.00  0.00    +0.179 C 
ENDROOT
BRANCH  14  18
ATOM      5  O   UNL     1      -5.531  -9.892  13.679  0.00  0.00    -0.274 OA
ATOM     11  N   UNL     1      -7.395 -10.839  14.702  0.00  0.00    -0.303 N 
ATOM     18  C   UNL     1      -6.213 -10.867  13.984  0.00  0.00    +0.234 C 
ATOM     35  H   UNL     1      -7.895 -11.709  14.866  0.00  0.00    +0.149 HD
BRANCH  11  19
ATOM      8  O   UNL     1      -6.236  -9.172  16.771  0.00  0.00    -0.274 OA
ATOM     13  N   UNL     1      -8.276  -9.700  17.652  0.00  0.00    -0.314 N 
ATOM     19  C   UNL     1      -7.991  -9.620  15.196  0.00  0.00    +0.159 C 
ATOM     21  C   UNL     1      -9.512  -9.647  15.099  0.00  0.00    +0.033 C 
ATOM     22  C   UNL     1     -10.117 -10.490  16.212  0.00  0.00    +0.021 C 
ATOM     26  C   UNL     1      -7.429  -9.436  16.599  0.00  0.00    +0.233 C 
ATOM     27  C   UNL     1      -9.708  -9.902  17.549  0.00  0.00    +0.104 C 
ATOM     36  H   UNL     1      -7.888  -9.616  18.588  0.00  0.00    +0.149 HD
ENDBRANCH  11  19
ENDBRANCH  14  18
BRANCH   9   1
ATOM      1  S   UNL     1      -6.064 -13.823  15.835  0.00  0.00    +0.062 S 
ATOM      3  O   UNL     1      -5.338 -15.056  16.023  0.00  0.00    -0.153 OA
ATOM      4  O   UNL     1      -7.430 -13.814  15.365  0.00  0.00    -0.153 OA
BRANCH   1  23
ATOM      2  F   UNL     1      -5.838 -10.782  20.878  0.00  0.00    -0.205 F 
ATOM     23  C   UNL     1      -5.997 -12.913  17.344  0.00  0.00    +0.106 A 
ATOM     30  C   UNL     1      -7.088 -12.922  18.214  0.00  0.00    +0.031 A 
ATOM     31  C   UNL     1      -4.852 -12.184  17.668  0.00  0.00    +0.031 A 
ATOM     32  C   UNL     1      -7.035 -12.202  19.408  0.00  0.00    +0.040 A 
ATOM     33  C   UNL     1      -4.799 -11.464  18.863  0.00  0.00    +0.040 A 
ATOM     34  C   UNL     1      -5.890 -11.473  19.731  0.00  0.00    +0.124 A 
ENDBRANCH   1  23
ENDBRANCH   9   1
TORSDOF 4
ENDMDL
MODEL 3
REMARK VINA RESULT:      -6.3     24.912     28.367
REMARK  Name = 11912251
REMARK  4 active torsions:
REMARK  status: ('A' for Active; 'I' for Inactive)
REMARK    1  A    between atoms: S_1  and  N_9
REMARK    2  A    between atoms: S_1  and  C_23
REMARK    3  A    between atoms: N_11  and  C_19
REMARK    4  A    between atoms: C_14  and  C_18
REMARK                            x       y       z     vdW  Elec       q    Type
REMARK                         _______ _______ _______ _____ _____    ______ ____
ROOT
ATOM      6  O   UNL     1      15.479   5.604  -2.049  0.00  0.00    -0.377 OA
ATOM      7  O   UNL     1      13.340   2.782   1.455  0.00  0.00    -0.252 OA
ATOM      9  N   UNL     1      10.792   6.469   3.473  0.00  0.00    -0.162 NA
ATOM     10  N   UNL     1      12.123   4.736   1.559  0.00  0.00    -0.282 N 
ATOM     12  N   UNL     1      13.864   4.431  -0.060  0.00  0.00    -0.281 N 
ATOM     14  C   UNL     1      11.786   7.026   2.516  0.00  0.00    +0.183 C 
ATOM     15  C   UNL     1      11.962   6.169   1.263  0.00  0.00    +0.139 C 
ATOM     16  C   UNL     1      10.223   5.147   3.097  0.00  0.00    +0.129 C 
ATOM     17  C   UNL     1      11.354   4.218   2.689  0.00  0.00    +0.126 C 
ATOM     20  C   UNL     1      13.117   3.914   1.004  0.00  0.00    +0.305 C 
ATOM     24  C   UNL     1      13.270   4.995  -1.278  0.00  0.00    +0.137 C 
ATOM     25  C   UNL     1      15.253   4.011  -0.231  0.00  0.00    +0.137 C 
ATOM     28  C   UNL     1      14.155   6.102  -1.830  0.00  0.00    +0.179 C 
ATOM     29  C   UNL     1      16.072   5.146  -0.830  0.00  0.00    +0.179 C 
ENDROOT
BRANCH  14  18
ATOM      5  O   UNL     1      14.103   6.624   2.906  0.00  0.00    -0.274 OA
ATOM     11  N   UNL     1      12.880   7.809   4.493  0.00  0.00    -0.303 N 
ATOM     18  C   UNL     1      13.054   7.125   3.303  0.00  0.00    +0.234 C 
ATOM     35  H   UNL     1      11.971   8.215   4.701  0.00  0.00    +0.149 HD
BRANCH  11  19
ATOM      8  O   UNL     1      12.677   7.248   7.329  0.00  0.00    -0.274 OA
ATOM     13  N   UNL     1      13.196   9.472   7.306  0.00  0.00    -0.314 N 
ATOM     19  C   UNL     1      13.944   8.024   5.444  0.00  0.00    +0.159 C 
ATOM     21  C   UNL     1      14.860   9.169   5.028  0.00  0.00    +0.033 C 
ATOM     22  C   UNL     1      14.219  10.517   5.319  0.00  0.00    +0.021 C 
ATOM     26  C   UNL     1      13.253   8.196   6.790  0.00  0.00    +0.233 C 
ATOM     27  C   UNL     1      13.935  10.614   6.805  0.00  0.00    +0.104 C 
ATOM     36  H   UNL     1      12.699   9.592   8.184  0.00  0.00    +0.149 HD
ENDBRANCH  11  19
ENDBRANCH  14  18
BRANCH   9   1
ATOM      1  S   UNL     1       9.710   7.577   4.196  0.00  0.00    +0.062 S 
ATOM      3  O   UNL     1       8.421   7.443   3.561  0.00  0.00    -0.153 OA
ATOM      4  O   UNL     1      10.369   8.857   4.306  0.00  0.00    -0.153 OA
BRANCH   1  23
ATOM      2  F   UNL     1       9.345   5.230   9.589  0.00  0.00    -0.205 F 
ATOM     23  C   UNL     1       9.601   6.875   5.810  0.00  0.00    +0.106 A 
ATOM     30  C   UNL     1       9.141   7.647   6.877  0.00  0.00    +0.031 A 
ATOM     31  C   UNL     1       9.975   5.547   6.019  0.00  0.00    +0.031 A 
ATOM     32  C   UNL     1       9.054   7.091   8.154  0.00  0.00    +0.040 A 
ATOM     33  C   UNL     1       9.889   4.992   7.297  0.00  0.00    +0.040 A 
ATOM     34  C   UNL     1       9.428   5.763   8.363  0.00  0.00    +0.124 A 
ENDBRANCH   1  23
ENDBRANCH   9   1
TORSDOF 4
ENDMDL
MODEL 4
REMARK VINA RESULT:      -6.3     20.052     22.525
REMARK  Name = 11912251
REMARK  4 active torsions:
REMARK  status: ('A' for Active; 'I' for Inactive)
REMARK    1  A    between atoms: S_1  and  N_9
REMARK    2  A    between atoms: S_1  and  C_23
REMARK    3  A    between atoms: N_11  and  C_19
REMARK    4  A    between atoms: C_14  and  C_18
REMARK                            x       y       z     vdW  Elec       q    Type
REMARK                         _______ _______ _______ _____ _____    ______ ____
ROOT
ATOM      6  O   UNL     1     -16.554   8.223  12.858  0.00  0.00    -0.377 OA
ATOM      7  O   UNL     1     -11.575   8.252  13.042  0.00  0.00    -0.252 OA
ATOM      9  N   UNL     1     -11.332   9.585  17.766  0.00  0.00    -0.162 NA
ATOM     10  N   UNL     1     -12.170   8.368  15.265  0.00  0.00    -0.282 N 
ATOM     12  N   UNL     1     -13.820   8.168  13.538  0.00  0.00    -0.281 N 
ATOM     14  C   UNL     1     -12.732   9.738  17.285  0.00  0.00    +0.183 C 
ATOM     15  C   UNL     1     -13.161   8.634  16.319  0.00  0.00    +0.139 C 
ATOM     16  C   UNL     1     -10.575   8.457  17.160  0.00  0.00    +0.129 C 
ATOM     17  C   UNL     1     -10.765   8.485  15.653  0.00  0.00    +0.126 C 
ATOM     20  C   UNL     1     -12.470   8.254  13.898  0.00  0.00    +0.305 C 
ATOM     24  C   UNL     1     -14.756   7.190  14.102  0.00  0.00    +0.137 C 
ATOM     25  C   UNL     1     -14.254   8.717  12.255  0.00  0.00    +0.137 C 
ATOM     28  C   UNL     1     -16.158   7.777  14.159  0.00  0.00    +0.179 C 
ATOM     29  C   UNL     1     -15.679   9.244  12.369  0.00  0.00    +0.179 C 
ENDROOT
BRANCH  14  18
ATOM      5  O   UNL     1     -13.762  11.501  16.056  0.00  0.00    -0.274 OA
ATOM     11  N   UNL     1     -11.558  11.754  16.759  0.00  0.00    -0.303 N 
ATOM     18  C   UNL     1     -12.763  11.085  16.637  0.00  0.00    +0.234 C 
ATOM     35  H   UNL     1     -10.808  11.326  17.297  0.00  0.00    +0.149 HD
BRANCH  11  19
ATOM      8  O   UNL     1     -11.272  12.297  13.926  0.00  0.00    -0.274 OA
ATOM     13  N   UNL     1      -9.297  13.069  14.776  0.00  0.00    -0.314 N 
ATOM     19  C   UNL     1     -11.320  13.064  16.201  0.00  0.00    +0.159 C 
ATOM     21  C   UNL     1     -10.549  13.962  17.160  0.00  0.00    +0.033 C 
ATOM     22  C   UNL     1      -9.069  13.610  17.172  0.00  0.00    +0.021 C 
ATOM     26  C   UNL     1     -10.648  12.813  14.858  0.00  0.00    +0.233 C 
ATOM     27  C   UNL     1      -8.515  13.776  15.771  0.00  0.00    +0.104 C 
ATOM     36  H   UNL     1      -8.842  12.863  13.891  0.00  0.00    +0.149 HD
ENDBRANCH  11  19
ENDBRANCH  14  18
BRANCH   9   1
ATOM      1  S   UNL     1     -11.049   9.875  19.427  0.00  0.00    +0.062 S 
ATOM      3  O   UNL     1     -11.647  11.140  19.782  0.00  0.00    -0.153 OA
ATOM      4  O   UNL     1      -9.664   9.587  19.714  0.00  0.00    -0.153 OA
BRANCH   1  23
ATOM      2  F   UNL     1     -14.343   5.581  21.760  0.00  0.00    -0.205 F 
ATOM     23  C   UNL     1     -12.034   8.589  20.125  0.00  0.00    +0.106 A 
ATOM     30  C   UNL     1     -11.448   7.374  20.476  0.00  0.00    +0.031 A 
ATOM     31  C   UNL     1     -13.401   8.790  20.325  0.00  0.00    +0.031 A 
ATOM     32  C   UNL     1     -12.228   6.357  21.029  0.00  0.00    +0.040 A 
ATOM     33  C   UNL     1     -14.180   7.772  20.878  0.00  0.00    +0.040 A 
ATOM     34  C   UNL     1     -13.594   6.557  21.229  0.00  0.00    +0.124 A 
ENDBRANCH   1  23
ENDBRANCH   9   1
TORSDOF 4
ENDMDL
MODEL 5
REMARK VINA RESULT:      -6.3     24.867     28.711
REMARK  Name = 11912251
REMARK  4 active torsions:
REMARK  status: ('A' for Active; 'I' for Inactive)
REMARK    1  A    between atoms: S_1  and  N_9
REMARK    2  A    between atoms: S_1  and  C_23
REMARK    3  A    between atoms: N_11  and  C_19
REMARK    4  A    between atoms: C_14  and  C_18
REMARK                            x       y       z     vdW  Elec       q    Type
REMARK                         _______ _______ _______ _____ _____    ______ ____
ROOT
ATOM      6  O   UNL     1      15.926   8.100  -0.200  0.00  0.00    -0.377 OA
ATOM      7  O   UNL     1      13.664   4.072   1.665  0.00  0.00    -0.252 OA
ATOM      9  N   UNL     1      10.489   6.609   4.429  0.00  0.00    -0.162 NA
ATOM     10  N   UNL     1      12.239   5.782   2.264  0.00  0.00    -0.282 N 
ATOM     12  N   UNL     1      14.200   6.191   0.947  0.00  0.00    -0.281 N 
ATOM     14  C   UNL     1      11.534   7.533   3.910  0.00  0.00    +0.183 C 
ATOM     15  C   UNL     1      11.965   7.212   2.479  0.00  0.00    +0.139 C 
ATOM     16  C   UNL     1      10.121   5.494   3.517  0.00  0.00    +0.129 C 
ATOM     17  C   UNL     1      11.390   4.843   2.992  0.00  0.00    +0.126 C 
ATOM     20  C   UNL     1      13.381   5.277   1.620  0.00  0.00    +0.305 C 
ATOM     24  C   UNL     1      13.713   7.134  -0.067  0.00  0.00    +0.137 C 
ATOM     25  C   UNL     1      15.637   5.937   0.864  0.00  0.00    +0.137 C 
ATOM     28  C   UNL     1      14.538   8.411  -0.034  0.00  0.00    +0.179 C 
ATOM     29  C   UNL     1      16.400   7.255   0.853  0.00  0.00    +0.179 C 
ENDROOT
BRANCH  14  18
ATOM      5  O   UNL     1      12.635   6.604   5.808  0.00  0.00    -0.274 OA
ATOM     11  N   UNL     1      13.703   8.275   4.589  0.00  0.00    -0.303 N 
ATOM     18  C   UNL     1      12.669   7.400   4.874  0.00  0.00    +0.234 C 
ATOM     35  H   UNL     1      13.638   8.866   3.764  0.00  0.00    +0.149 HD
BRANCH  11  19
ATOM      8  O   UNL     1      13.982   9.914   6.964  0.00  0.00    -0.274 OA
ATOM     13  N   UNL     1      15.648  10.710   5.620  0.00  0.00    -0.314 N 
ATOM     19  C   UNL     1      14.906   8.362   5.383  0.00  0.00    +0.159 C 
ATOM     21  C   UNL     1      16.160   8.134   4.546  0.00  0.00    +0.033 C 
ATOM     22  C   UNL     1      16.509   9.372   3.734  0.00  0.00    +0.021 C 
ATOM     26  C   UNL     1      14.827   9.709   6.088  0.00  0.00    +0.233 C 
ATOM     27  C   UNL     1      16.740  10.532   4.684  0.00  0.00    +0.104 C 
ATOM     36  H   UNL     1      15.566  11.620   6.065  0.00  0.00    +0.149 HD
ENDBRANCH  11  19
ENDBRANCH  14  18
BRANCH   9   1
ATOM      1  S   UNL     1       9.208   7.312   5.316  0.00  0.00    +0.062 S 
ATOM      3  O   UNL     1       7.962   6.986   4.664  0.00  0.00    -0.153 OA
ATOM      4  O   UNL     1       9.562   8.676   5.630  0.00  0.00    -0.153 OA
BRANCH   1  23
ATOM      2  F   UNL     1       9.567   4.138  10.268  0.00  0.00    -0.205 F 
ATOM     23  C   UNL     1       9.316   6.361   6.797  0.00  0.00    +0.106 A 
ATOM     30  C   UNL     1       9.759   5.040   6.748  0.00  0.00    +0.031 A 
ATOM     31  C   UNL     1       8.956   6.932   8.019  0.00  0.00    +0.031 A 
ATOM     32  C   UNL     1       9.845   4.288   7.921  0.00  0.00    +0.040 A 
ATOM     33  C   UNL     1       9.041   6.180   9.191  0.00  0.00    +0.040 A 
ATOM     34  C   UNL     1       9.485   4.859   9.142  0.00  0.00    +0.124 A 
ENDBRANCH   1  23
ENDBRANCH   9   1
TORSDOF 4
ENDMDL
MODEL 6
REMARK VINA RESULT:      -6.2      3.342      6.996
REMARK  Name = 11912251
REMARK  4 active torsions:
REMARK  status: ('A' for Active; 'I' for Inactive)
REMARK    1  A    between atoms: S_1  and  N_9
REMARK    2  A    between atoms: S_1  and  C_23
REMARK    3  A    between atoms: N_11  and  C_19
REMARK    4  A    between atoms: C_14  and  C_18
REMARK                            x       y       z     vdW  Elec       q    Type
REMARK                         _______ _______ _______ _____ _____    ______ ____
ROOT
ATOM      6  O   UNL     1      -4.445  -9.182   9.549  0.00  0.00    -0.377 OA
ATOM      7  O   UNL     1      -8.285 -12.113  10.767  0.00  0.00    -0.252 OA
ATOM      9  N   UNL     1      -8.712 -10.376  15.345  0.00  0.00    -0.162 NA
ATOM     10  N   UNL     1      -8.251 -10.576  12.484  0.00  0.00    -0.282 N 
ATOM     12  N   UNL     1      -6.724 -10.428  10.642  0.00  0.00    -0.281 N 
ATOM     14  C   UNL     1      -7.439  -9.883  14.750  0.00  0.00    +0.183 C 
ATOM     15  C   UNL     1      -7.562  -9.537  13.266  0.00  0.00    +0.139 C 
ATOM     16  C   UNL     1      -9.838 -10.535  14.387  0.00  0.00    +0.129 C 
ATOM     17  C   UNL     1      -9.342 -11.277  13.157  0.00  0.00    +0.126 C 
ATOM     20  C   UNL     1      -7.787 -11.093  11.263  0.00  0.00    +0.305 C 
ATOM     24  C   UNL     1      -6.721  -8.991  10.344  0.00  0.00    +0.137 C 
ATOM     25  C   UNL     1      -5.777 -11.192   9.833  0.00  0.00    +0.137 C 
ATOM     28  C   UNL     1      -5.304  -8.442  10.423  0.00  0.00    +0.179 C 
ATOM     29  C   UNL     1      -4.392 -10.564   9.918  0.00  0.00    +0.179 C 
ENDROOT
BRANCH  14  18
ATOM      5  O   UNL     1      -6.818 -12.100  15.363  0.00  0.00    -0.274 OA
ATOM     11  N   UNL     1      -5.156 -10.594  14.739  0.00  0.00    -0.303 N 
ATOM     18  C   UNL     1      -6.460 -10.989  14.982  0.00  0.00    +0.234 C 
ATOM     35  H   UNL     1      -4.981  -9.655  14.390  0.00  0.00    +0.149 HD
BRANCH  11  19
ATOM      8  O   UNL     1      -3.817 -11.059  17.268  0.00  0.00    -0.274 OA
ATOM     13  N   UNL     1      -2.124 -10.269  15.953  0.00  0.00    -0.314 N 
ATOM     19  C   UNL     1      -4.021 -11.469  14.911  0.00  0.00    +0.159 C 
ATOM     21  C   UNL     1      -3.170 -11.554  13.650  0.00  0.00    +0.033 C 
ATOM     22  C   UNL     1      -2.296 -10.318  13.493  0.00  0.00    +0.021 C 
ATOM     26  C   UNL     1      -3.302 -10.956  16.151  0.00  0.00    +0.233 C 
ATOM     27  C   UNL     1      -1.392 -10.200  14.704  0.00  0.00    +0.104 C 
ATOM     36  H   UNL     1      -1.666  -9.893  16.779  0.00  0.00    +0.149 HD
ENDBRANCH  11  19
ENDBRANCH  14  18
BRANCH   9   1
ATOM      1  S   UNL     1      -9.120  -9.784  16.895  0.00  0.00    +0.062 S 
ATOM      3  O   UNL     1      -7.970  -9.109  17.449  0.00  0.00    -0.153 OA
ATOM      4  O   UNL     1      -9.804 -10.828  17.620  0.00  0.00    -0.153 OA
BRANCH   1  23
ATOM      2  F   UNL     1     -13.089  -5.698  15.385  0.00  0.00    -0.205 F 
ATOM     23  C   UNL     1     -10.307  -8.560  16.443  0.00  0.00    +0.106 A 
ATOM     30  C   UNL     1      -9.885  -7.334  15.931  0.00  0.00    +0.031 A 
ATOM     31  C   UNL     1     -11.669  -8.821  16.599  0.00  0.00    +0.031 A 
ATOM     32  C   UNL     1     -10.824  -6.366  15.573  0.00  0.00    +0.040 A 
ATOM     33  C   UNL     1     -12.609  -7.853  16.241  0.00  0.00    +0.040 A 
ATOM     34  C   UNL     1     -12.186  -6.627  15.729  0.00  0.00    +0.124 A 
ENDBRANCH   1  23
ENDBRANCH   9   1
TORSDOF 4
ENDMDL
MODEL 7
REMARK VINA RESULT:      -6.1     24.561     27.378
REMARK  Name = 11912251
REMARK  4 active torsions:
REMARK  status: ('A' for Active; 'I' for Inactive)
REMARK    1  A    between atoms: S_1  and  N_9
REMARK    2  A    between atoms: S_1  and  C_23
REMARK    3  A    between atoms: N_11  and  C_19
REMARK    4  A    between atoms: C_14  and  C_18
REMARK                            x       y       z     vdW  Elec       q    Type
REMARK                         _______ _______ _______ _____ _____    ______ ____
ROOT
ATOM      6  O   UNL     1       6.929  11.138   4.637  0.00  0.00    -0.377 OA
ATOM      7  O   UNL     1      10.846  10.974   1.563  0.00  0.00    -0.252 OA
ATOM      9  N   UNL     1      10.755   6.091   1.017  0.00  0.00    -0.162 NA
ATOM     10  N   UNL     1       9.951   8.860   1.363  0.00  0.00    -0.282 N 
ATOM     12  N   UNL     1       8.912  10.534   2.728  0.00  0.00    -0.281 N 
ATOM     14  C   UNL     1       9.841   6.477   2.126  0.00  0.00    +0.183 C 
ATOM     15  C   UNL     1       9.085   7.778   1.857  0.00  0.00    +0.139 C 
ATOM     16  C   UNL     1      10.846   7.070  -0.099  0.00  0.00    +0.129 C 
ATOM     17  C   UNL     1      11.043   8.462   0.478  0.00  0.00    +0.126 C 
ATOM     20  C   UNL     1       9.950  10.173   1.861  0.00  0.00    +0.305 C 
ATOM     24  C   UNL     1       7.489  10.364   2.415  0.00  0.00    +0.137 C 
ATOM     25  C   UNL     1       9.164  11.526   3.771  0.00  0.00    +0.137 C 
ATOM     28  C   UNL     1       6.701  10.091   3.688  0.00  0.00    +0.179 C 
ATOM     29  C   UNL     1       8.312  11.222   4.996  0.00  0.00    +0.179 C 
ENDROOT
BRANCH  14  18
ATOM      5  O   UNL     1      11.932   6.799   3.222  0.00  0.00    -0.274 OA
ATOM     11  N   UNL     1      10.032   6.405   4.508  0.00  0.00    -0.303 N 
ATOM     18  C   UNL     1      10.727   6.588   3.325  0.00  0.00    +0.234 C 
ATOM     35  H   UNL     1       9.025   6.273   4.474  0.00  0.00    +0.149 HD
BRANCH  11  19
ATOM      8  O   UNL     1      10.014   4.206   6.397  0.00  0.00    -0.274 OA
ATOM     13  N   UNL     1       9.041   5.890   7.595  0.00  0.00    -0.314 N 
ATOM     19  C   UNL     1      10.661   6.442   5.807  0.00  0.00    +0.159 C 
ATOM     21  C   UNL     1      10.697   7.851   6.385  0.00  0.00    +0.033 C 
ATOM     22  C   UNL     1       9.338   8.251   6.942  0.00  0.00    +0.021 C 
ATOM     26  C   UNL     1       9.915   5.411   6.644  0.00  0.00    +0.233 C 
ATOM     27  C   UNL     1       8.947   7.270   8.030  0.00  0.00    +0.104 C 
ATOM     36  H   UNL     1       8.515   5.202   8.125  0.00  0.00    +0.149 HD
ENDBRANCH  11  19
ENDBRANCH  14  18
BRANCH   9   1
ATOM      1  S   UNL     1      10.778   4.440   0.574  0.00  0.00    +0.062 S 
ATOM      3  O   UNL     1      10.236   4.311  -0.757  0.00  0.00    -0.153 OA
ATOM      4  O   UNL     1      10.266   3.662   1.677  0.00  0.00    -0.153 OA
BRANCH   1  23
ATOM      2  F   UNL     1      16.599   3.576   0.266  0.00  0.00    -0.205 F 
ATOM     23  C   UNL     1      12.521   4.181   0.483  0.00  0.00    +0.106 A 
ATOM     30  C   UNL     1      13.241   3.870   1.635  0.00  0.00    +0.031 A 
ATOM     31  C   UNL     1      13.177   4.289  -0.744  0.00  0.00    +0.031 A 
ATOM     32  C   UNL     1      14.620   3.665   1.562  0.00  0.00    +0.040 A 
ATOM     33  C   UNL     1      14.556   4.085  -0.816  0.00  0.00    +0.040 A 
ATOM     34  C   UNL     1      15.276   3.773   0.336  0.00  0.00    +0.124 A 
ENDBRANCH   1  23
ENDBRANCH   9   1
TORSDOF 4
ENDMDL
MODEL 8
REMARK VINA RESULT:      -6.0      3.028      4.434
REMARK  Name = 11912251
REMARK  4 active torsions:
REMARK  status: ('A' for Active; 'I' for Inactive)
REMARK    1  A    between atoms: S_1  and  N_9
REMARK    2  A    between atoms: S_1  and  C_23
REMARK    3  A    between atoms: N_11  and  C_19
REMARK    4  A    between atoms: C_14  and  C_18
REMARK                            x       y       z     vdW  Elec       q    Type
REMARK                         _______ _______ _______ _____ _____    ______ ____
ROOT
ATOM      6  O   UNL     1      -9.602 -10.026  17.364  0.00  0.00    -0.377 OA
ATOM      7  O   UNL     1      -4.781 -11.037  18.105  0.00  0.00    -0.252 OA
ATOM      9  N   UNL     1      -3.705 -11.500  13.332  0.00  0.00    -0.162 NA
ATOM     10  N   UNL     1      -4.873 -10.618  15.841  0.00  0.00    -0.282 N 
ATOM     12  N   UNL     1      -6.813 -10.407  17.232  0.00  0.00    -0.281 N 
ATOM     14  C   UNL     1      -5.183 -11.450  13.498  0.00  0.00    +0.183 C 
ATOM     15  C   UNL     1      -5.634 -10.478  14.589  0.00  0.00    +0.139 C 
ATOM     16  C   UNL     1      -2.931 -10.682  14.303  0.00  0.00    +0.129 C 
ATOM     17  C   UNL     1      -3.456 -10.946  15.704  0.00  0.00    +0.126 C 
ATOM     20  C   UNL     1      -5.449 -10.698  17.119  0.00  0.00    +0.305 C 
ATOM     24  C   UNL     1      -7.429  -9.171  16.736  0.00  0.00    +0.137 C 
ATOM     25  C   UNL     1      -7.606 -11.081  18.257  0.00  0.00    +0.137 C 
ATOM     28  C   UNL     1      -8.859  -9.439  16.291  0.00  0.00    +0.179 C 
ATOM     29  C   UNL     1      -9.035 -11.276  17.768  0.00  0.00    +0.179 C 
ENDROOT
BRANCH  14  18
ATOM      5  O   UNL     1      -6.738 -13.166  14.064  0.00  0.00    -0.274 OA
ATOM     11  N   UNL     1      -4.492 -13.718  13.808  0.00  0.00    -0.303 N 
ATOM     18  C   UNL     1      -5.575 -12.858  13.814  0.00  0.00    +0.234 C 
ATOM     35  H   UNL     1      -3.576 -13.358  13.549  0.00  0.00    +0.149 HD
BRANCH  11  19
ATOM      8  O   UNL     1      -4.641 -14.822  16.484  0.00  0.00    -0.274 OA
ATOM     13  N   UNL     1      -2.792 -15.856  15.629  0.00  0.00    -0.314 N 
ATOM     19  C   UNL     1      -4.599 -15.127  14.103  0.00  0.00    +0.159 C 
ATOM     21  C   UNL     1      -3.934 -15.987  13.035  0.00  0.00    +0.033 C 
ATOM     22  C   UNL     1      -2.421 -15.987  13.193  0.00  0.00    +0.021 C 
ATOM     26  C   UNL     1      -4.041 -15.287  15.511  0.00  0.00    +0.233 C 
ATOM     27  C   UNL     1      -2.072 -16.528  14.566  0.00  0.00    +0.104 C 
ATOM     36  H   UNL     1      -2.404 -15.925  16.565  0.00  0.00    +0.149 HD
ENDBRANCH  11  19
ENDBRANCH  14  18
BRANCH   9   1
ATOM      1  S   UNL     1      -3.109 -11.533  11.730  0.00  0.00    +0.062 S 
ATOM      3  O   UNL     1      -3.233 -12.877  11.219  0.00  0.00    -0.153 OA
ATOM      4  O   UNL     1      -1.852 -10.823  11.694  0.00  0.00    -0.153 OA
BRANCH   1  23
ATOM      2  F   UNL     1      -7.180  -8.191   9.088  0.00  0.00    -0.205 F 
ATOM     23  C   UNL     1      -4.327 -10.532  10.940  0.00  0.00    +0.106 A 
ATOM     30  C   UNL     1      -4.232  -9.142  10.997  0.00  0.00    +0.031 A 
ATOM     31  C   UNL     1      -5.386 -11.132  10.258  0.00  0.00    +0.031 A 
ATOM     32  C   UNL     1      -5.196  -8.350  10.371  0.00  0.00    +0.040 A 
ATOM     33  C   UNL     1      -6.350 -10.340   9.632  0.00  0.00    +0.040 A 
ATOM     34  C   UNL     1      -6.255  -8.950   9.689  0.00  0.00    +0.124 A 
ENDBRANCH   1  23
ENDBRANCH   9   1
TORSDOF 4
ENDMDL
MODEL 9
REMARK VINA RESULT:      -6.0     24.997     28.315
REMARK  Name = 11912251
REMARK  4 active torsions:
REMARK  status: ('A' for Active; 'I' for Inactive)
REMARK    1  A    between atoms: S_1  and  N_9
REMARK    2  A    between atoms: S_1  and  C_23
REMARK    3  A    between atoms: N_11  and  C_19
REMARK    4  A    between atoms: C_14  and  C_18
REMARK                            x       y       z     vdW  Elec       q    Type
REMARK                         _______ _______ _______ _____ _____    ______ ____
ROOT
ATOM      6  O   UNL     1      13.377   6.267  -0.432  0.00  0.00    -0.377 OA
ATOM      7  O   UNL     1      11.293   3.243   2.935  0.00  0.00    -0.252 OA
ATOM      9  N   UNL     1      10.063   6.848   6.041  0.00  0.00    -0.162 NA
ATOM     10  N   UNL     1      10.599   5.330   3.623  0.00  0.00    -0.282 N 
ATOM     12  N   UNL     1      11.909   5.040   1.637  0.00  0.00    -0.281 N 
ATOM     14  C   UNL     1      10.975   7.391   4.997  0.00  0.00    +0.183 C 
ATOM     15  C   UNL     1      10.725   6.796   3.611  0.00  0.00    +0.139 C 
ATOM     16  C   UNL     1       9.146   5.770   5.582  0.00  0.00    +0.129 C 
ATOM     17  C   UNL     1       9.942   4.746   4.790  0.00  0.00    +0.126 C 
ATOM     20  C   UNL     1      11.262   4.465   2.737  0.00  0.00    +0.305 C 
ATOM     24  C   UNL     1      11.257   5.949   0.688  0.00  0.00    +0.137 C 
ATOM     25  C   UNL     1      13.111   4.404   1.102  0.00  0.00    +0.137 C 
ATOM     28  C   UNL     1      12.263   6.955   0.149  0.00  0.00    +0.179 C 
ATOM     29  C   UNL     1      14.052   5.459   0.536  0.00  0.00    +0.179 C 
ENDROOT
BRANCH  14  18
ATOM      5  O   UNL     1      12.533   6.437   6.527  0.00  0.00    -0.274 OA
ATOM     11  N   UNL     1      13.335   7.603   4.679  0.00  0.00    -0.303 N 
ATOM     18  C   UNL     1      12.349   7.076   5.495  0.00  0.00    +0.234 C 
ATOM     35  H   UNL     1      13.065   8.085   3.826  0.00  0.00    +0.149 HD
BRANCH  11  19
ATOM      8  O   UNL     1      14.805   9.213   6.589  0.00  0.00    -0.274 OA
ATOM     13  N   UNL     1      15.934   9.608   4.643  0.00  0.00    -0.314 N 
ATOM     19  C   UNL     1      14.746   7.460   4.951  0.00  0.00    +0.159 C 
ATOM     21  C   UNL     1      15.513   6.953   3.736  0.00  0.00    +0.033 C 
ATOM     22  C   UNL     1      15.739   8.068   2.725  0.00  0.00    +0.021 C 
ATOM     26  C   UNL     1      15.191   8.813   5.488  0.00  0.00    +0.233 C 
ATOM     27  C   UNL     1      16.525   9.181   3.391  0.00  0.00    +0.104 C 
ATOM     36  H   UNL     1      16.196  10.527   4.988  0.00  0.00    +0.149 HD
ENDBRANCH  11  19
ENDBRANCH  14  18
BRANCH   9   1
ATOM      1  S   UNL     1       9.411   7.969   7.154  0.00  0.00    +0.062 S 
ATOM      3  O   UNL     1      10.495   8.573   7.890  0.00  0.00    -0.153 OA
ATOM      4  O   UNL     1       8.294   7.349   7.828  0.00  0.00    -0.153 OA
BRANCH   1  23
ATOM      2  F   UNL     1       7.288  11.979   3.394  0.00  0.00    -0.205 F 
ATOM     23  C   UNL     1       8.776   9.170   6.029  0.00  0.00    +0.106 A 
ATOM     30  C   UNL     1       9.304  10.460   6.015  0.00  0.00    +0.031 A 
ATOM     31  C   UNL     1       7.744   8.828   5.154  0.00  0.00    +0.031 A 
ATOM     32  C   UNL     1       8.802  11.410   5.124  0.00  0.00    +0.040 A 
ATOM     33  C   UNL     1       7.242   9.778   4.264  0.00  0.00    +0.040 A 
ATOM     34  C   UNL     1       7.771  11.068   4.249  0.00  0.00    +0.124 A 
ENDBRANCH   1  23
ENDBRANCH   9   1
TORSDOF 4
ENDMDL
MODEL 10
REMARK VINA RESULT:      -5.9     25.221     27.724
REMARK  Name = 11912251
REMARK  4 active torsions:
REMARK  status: ('A' for Active; 'I' for Inactive)
REMARK    1  A    between atoms: S_1  and  N_9
REMARK    2  A    between atoms: S_1  and  C_23
REMARK    3  A    between atoms: N_11  and  C_19
REMARK    4  A    between atoms: C_14  and  C_18
REMARK                            x       y       z     vdW  Elec       q    Type
REMARK                         _______ _______ _______ _____ _____    ______ ____
ROOT
ATOM      6  O   UNL     1      10.331   8.738   6.921  0.00  0.00    -0.377 OA
ATOM      7  O   UNL     1       9.789   4.126   5.118  0.00  0.00    -0.252 OA
ATOM      9  N   UNL     1      12.015   5.076   0.841  0.00  0.00    -0.162 NA
ATOM     10  N   UNL     1      11.297   5.072   3.655  0.00  0.00    -0.282 N 
ATOM     12  N   UNL     1      10.479   6.275   5.560  0.00  0.00    -0.281 N 
ATOM     14  C   UNL     1      11.759   6.356   1.555  0.00  0.00    +0.183 C 
ATOM     15  C   UNL     1      11.952   6.251   3.068  0.00  0.00    +0.139 C 
ATOM     16  C   UNL     1      12.316   3.912   1.717  0.00  0.00    +0.129 C 
ATOM     17  C   UNL     1      11.294   3.859   2.840  0.00  0.00    +0.126 C 
ATOM     20  C   UNL     1      10.487   5.098   4.802  0.00  0.00    +0.305 C 
ATOM     24  C   UNL     1      11.690   6.927   6.071  0.00  0.00    +0.137 C 
ATOM     25  C   UNL     1       9.266   6.651   6.283  0.00  0.00    +0.137 C 
ATOM     28  C   UNL     1      11.488   8.433   6.134  0.00  0.00    +0.179 C 
ATOM     29  C   UNL     1       9.149   8.168   6.351  0.00  0.00    +0.179 C 
ENDROOT
BRANCH  14  18
ATOM      5  O   UNL     1       9.634   5.951   0.554  0.00  0.00    -0.274 OA
ATOM     11  N   UNL     1       9.995   7.968   1.660  0.00  0.00    -0.303 N 
ATOM     18  C   UNL     1      10.351   6.712   1.200  0.00  0.00    +0.234 C 
ATOM     35  H   UNL     1      10.661   8.496   2.218  0.00  0.00    +0.149 HD
BRANCH  11  19
ATOM      8  O   UNL     1       9.294   9.515  -0.689  0.00  0.00    -0.274 OA
ATOM     13  N   UNL     1       8.885  10.987   1.008  0.00  0.00    -0.314 N 
ATOM     19  C   UNL     1       8.698   8.556   1.429  0.00  0.00    +0.159 C 
ATOM     21  C   UNL     1       7.994   8.917   2.732  0.00  0.00    +0.033 C 
ATOM     22  C   UNL     1       8.560  10.199   3.324  0.00  0.00    +0.021 C 
ATOM     26  C   UNL     1       8.946   9.718   0.477  0.00  0.00    +0.233 C 
ATOM     27  C   UNL     1       8.376  11.324   2.323  0.00  0.00    +0.104 C 
ATOM     36  H   UNL     1       9.090  11.759   0.381  0.00  0.00    +0.149 HD
ENDBRANCH  11  19
ENDBRANCH  14  18
BRANCH   9   1
ATOM      1  S   UNL     1      12.900   5.169  -0.618  0.00  0.00    +0.062 S 
ATOM      3  O   UNL     1      14.142   4.453  -0.452  0.00  0.00    -0.153 OA
ATOM      4  O   UNL     1      12.872   6.535  -1.086  0.00  0.00    -0.153 OA
BRANCH   1  23
ATOM      2  F   UNL     1       9.394   1.966  -4.109  0.00  0.00    -0.205 F 
ATOM     23  C   UNL     1      11.851   4.210  -1.663  0.00  0.00    +0.106 A 
ATOM     30  C   UNL     1      12.079   2.842  -1.814  0.00  0.00    +0.031 A 
ATOM     31  C   UNL     1      10.794   4.821  -2.338  0.00  0.00    +0.031 A 
ATOM     32  C   UNL     1      11.249   2.084  -2.640  0.00  0.00    +0.040 A 
ATOM     33  C   UNL     1       9.964   4.062  -3.165  0.00  0.00    +0.040 A 
ATOM     34  C   UNL     1      10.191   2.694  -3.315  0.00  0.00    +0.124 A 
ENDBRANCH   1  23
ENDBRANCH   9   1
TORSDOF 4
ENDMDL
