MODEL 1
REMARK VINA RESULT:      -7.6      0.000      0.000
REMARK  Name = 26761906
REMARK  4 active torsions:
REMARK  status: ('A' for Active; 'I' for Inactive)
REMARK    1  A    between atoms: N_4  and  C_10
REMARK    2  A    between atoms: C_9  and  C_10
REMARK    3  A    between atoms: C_15  and  C_21
REMARK    4  A    between atoms: C_23  and  C_24
REMARK                            x       y       z     vdW  Elec       q    Type
REMARK                         _______ _______ _______ _____ _____    ______ ____
ROOT
ATOM      4  N   UNL     1      12.272   9.204  18.908  0.00  0.00    -0.285 NA
ATOM      5  N   UNL     1      14.010  11.422  16.473  0.00  0.00    -0.347 N 
ATOM      6  N   UNL     1      14.177   9.568  15.233  0.00  0.00    -0.240 NA
ATOM     15  C   UNL     1      12.936   7.937  18.473  0.00  0.00    +0.152 C 
ATOM     17  C   UNL     1      13.026  10.444  18.625  0.00  0.00    +0.140 C 
ATOM     18  C   UNL     1      13.228   7.936  16.930  0.00  0.00    +0.085 C 
ATOM     19  C   UNL     1      13.534  10.401  17.238  0.00  0.00    +0.053 A 
ATOM     20  C   UNL     1      13.651   9.276  16.458  0.00  0.00    +0.065 A 
ATOM     22  C   UNL     1      14.386  10.870  15.272  0.00  0.00    +0.197 A 
ATOM     31  H   UNL     1      14.081  12.397  16.734  0.00  0.00    +0.167 HD
ENDROOT
BRANCH  15  21
ATOM      1  O   UNL     1      13.909   6.568  20.267  0.00  0.00    -0.336 OA
ATOM      7  N   UNL     1      15.382   7.918  19.256  0.00  0.00    -0.190 NA
ATOM      8  N   UNL     1      15.139   6.342  20.897  0.00  0.00    -0.056 NA
ATOM     21  C   UNL     1      14.140   7.509  19.314  0.00  0.00    +0.245 A 
ATOM     23  C   UNL     1      15.958   7.174  20.245  0.00  0.00    +0.202 A 
BRANCH  23  24
ATOM      2  O   UNL     1      20.534   5.468  20.358  0.00  0.00    -0.453 OA
ATOM      3  O   UNL     1      21.367   7.477  21.397  0.00  0.00    -0.453 OA
ATOM     24  C   UNL     1      17.353   7.286  20.557  0.00  0.00    +0.026 A 
ATOM     25  C   UNL     1      18.217   6.230  20.256  0.00  0.00    +0.061 A 
ATOM     26  C   UNL     1      17.839   8.457  21.165  0.00  0.00    +0.015 A 
ATOM     27  C   UNL     1      19.551   6.384  20.575  0.00  0.00    +0.167 A 
ATOM     28  C   UNL     1      20.026   7.531  21.169  0.00  0.00    +0.166 A 
ATOM     29  C   UNL     1      19.194   8.587  21.477  0.00  0.00    +0.050 A 
ATOM     30  C   UNL     1      21.682   6.168  20.881  0.00  0.00    +0.466 C 
ENDBRANCH  23  24
ENDBRANCH  15  21
BRANCH   4  10
ATOM     10  C   UNL     1      11.782   9.178  20.281  0.00  0.00    +0.089 C 
BRANCH  10   9
ATOM      9  C   UNL     1      12.426  10.281  21.119  0.00  0.00    +0.003 C 
ATOM     11  C   UNL     1      11.357  11.075  21.882  0.00  0.00    +0.005 C 
ATOM     12  C   UNL     1      13.464   9.693  22.085  0.00  0.00    +0.005 C 
ATOM     13  C   UNL     1      11.981  12.151  22.768  0.00  0.00    +0.000 C 
ATOM     14  C   UNL     1      14.083  10.771  22.971  0.00  0.00    +0.000 C 
ATOM     16  C   UNL     1      13.016  11.564  23.721  0.00  0.00    +0.000 C 
ENDBRANCH  10   9
ENDBRANCH   4  10
TORSDOF 4
ENDMDL
MODEL 2
REMARK VINA RESULT:      -6.9     27.429     29.541
REMARK  Name = 26761906
REMARK  4 active torsions:
REMARK  status: ('A' for Active; 'I' for Inactive)
REMARK    1  A    between atoms: N_4  and  C_10
REMARK    2  A    between atoms: C_9  and  C_10
REMARK    3  A    between atoms: C_15  and  C_21
REMARK    4  A    between atoms: C_23  and  C_24
REMARK                            x       y       z     vdW  Elec       q    Type
REMARK                         _______ _______ _______ _____ _____    ______ ____
ROOT
ATOM      4  N   UNL     1      -3.086 -12.009  15.023  0.00  0.00    -0.285 NA
ATOM      5  N   UNL     1      -3.987 -15.435  13.874  0.00  0.00    -0.347 N 
ATOM      6  N   UNL     1      -1.875 -15.513  13.146  0.00  0.00    -0.240 NA
ATOM     15  C   UNL     1      -2.007 -11.781  14.014  0.00  0.00    +0.152 C 
ATOM     17  C   UNL     1      -4.119 -12.993  14.635  0.00  0.00    +0.140 C 
ATOM     18  C   UNL     1      -1.244 -13.110  13.670  0.00  0.00    +0.085 C 
ATOM     19  C   UNL     1      -3.462 -14.195  14.078  0.00  0.00    +0.053 A 
ATOM     20  C   UNL     1      -2.169 -14.267  13.620  0.00  0.00    +0.065 A 
ATOM     22  C   UNL     1      -2.991 -16.195  13.311  0.00  0.00    +0.197 A 
ATOM     31  H   UNL     1      -4.927 -15.741  14.090  0.00  0.00    +0.167 HD
ENDROOT
BRANCH  15  21
ATOM      1  O   UNL     1      -1.474 -10.211  12.200  0.00  0.00    -0.336 OA
ATOM      7  N   UNL     1      -3.588 -10.947  12.170  0.00  0.00    -0.190 NA
ATOM      8  N   UNL     1      -2.085  -9.595  11.101  0.00  0.00    -0.056 NA
ATOM     21  C   UNL     1      -2.428 -10.990  12.774  0.00  0.00    +0.245 A 
ATOM     23  C   UNL     1      -3.330 -10.079  11.150  0.00  0.00    +0.202 A 
BRANCH  23  24
ATOM      2  O   UNL     1      -5.405 -10.287   6.732  0.00  0.00    -0.453 OA
ATOM      3  O   UNL     1      -7.158  -8.761   7.370  0.00  0.00    -0.453 OA
ATOM     24  C   UNL     1      -4.337  -9.717  10.196  0.00  0.00    +0.026 A 
ATOM     25  C   UNL     1      -4.294 -10.250   8.905  0.00  0.00    +0.061 A 
ATOM     26  C   UNL     1      -5.359  -8.825  10.567  0.00  0.00    +0.015 A 
ATOM     27  C   UNL     1      -5.286  -9.872   8.022  0.00  0.00    +0.167 A 
ATOM     28  C   UNL     1      -6.286  -9.000   8.387  0.00  0.00    +0.166 A 
ATOM     29  C   UNL     1      -6.351  -8.459   9.654  0.00  0.00    +0.050 A 
ATOM     30  C   UNL     1      -6.594  -9.579   6.325  0.00  0.00    +0.466 C 
ENDBRANCH  23  24
ENDBRANCH  15  21
BRANCH   4  10
ATOM     10  C   UNL     1      -3.684 -10.785  15.542  0.00  0.00    +0.089 C 
BRANCH  10   9
ATOM      9  C   UNL     1      -4.715 -11.089  16.627  0.00  0.00    +0.003 C 
ATOM     11  C   UNL     1      -4.023 -11.386  17.965  0.00  0.00    +0.005 C 
ATOM     12  C   UNL     1      -5.711  -9.930  16.771  0.00  0.00    +0.005 C 
ATOM     13  C   UNL     1      -5.036 -11.642  19.078  0.00  0.00    +0.000 C 
ATOM     14  C   UNL     1      -6.720 -10.189  17.887  0.00  0.00    +0.000 C 
ATOM     16  C   UNL     1      -6.028 -10.492  19.213  0.00  0.00    +0.000 C 
ENDBRANCH  10   9
ENDBRANCH   4  10
TORSDOF 4
ENDMDL
MODEL 3
REMARK VINA RESULT:      -6.9     14.162     17.965
REMARK  Name = 26761906
REMARK  4 active torsions:
REMARK  status: ('A' for Active; 'I' for Inactive)
REMARK    1  A    between atoms: N_4  and  C_10
REMARK    2  A    between atoms: C_9  and  C_10
REMARK    3  A    between atoms: C_15  and  C_21
REMARK    4  A    between atoms: C_23  and  C_24
REMARK                            x       y       z     vdW  Elec       q    Type
REMARK                         _______ _______ _______ _____ _____    ______ ____
ROOT
ATOM      4  N   UNL     1       9.944   7.841   5.834  0.00  0.00    -0.285 NA
ATOM      5  N   UNL     1       8.708   5.842   8.722  0.00  0.00    -0.347 N 
ATOM      6  N   UNL     1      10.875   5.438   9.094  0.00  0.00    -0.240 NA
ATOM     15  C   UNL     1      11.218   7.080   5.647  0.00  0.00    +0.152 C 
ATOM     17  C   UNL     1       8.852   7.095   6.493  0.00  0.00    +0.140 C 
ATOM     18  C   UNL     1      11.794   6.569   7.015  0.00  0.00    +0.085 C 
ATOM     19  C   UNL     1       9.388   6.390   7.678  0.00  0.00    +0.053 A 
ATOM     20  C   UNL     1      10.713   6.126   7.926  0.00  0.00    +0.065 A 
ATOM     22  C   UNL     1       9.648   5.280   9.551  0.00  0.00    +0.197 A 
ATOM     31  H   UNL     1       7.706   5.842   8.864  0.00  0.00    +0.167 HD
ENDROOT
BRANCH  15  21
ATOM      1  O   UNL     1      10.510   4.855   4.879  0.00  0.00    -0.336 OA
ATOM      7  N   UNL     1      11.701   6.000   3.367  0.00  0.00    -0.190 NA
ATOM      8  N   UNL     1      10.611   4.027   3.754  0.00  0.00    -0.056 NA
ATOM     21  C   UNL     1      11.179   5.997   4.567  0.00  0.00    +0.245 A 
ATOM     23  C   UNL     1      11.327   4.772   2.906  0.00  0.00    +0.202 A 
BRANCH  23  24
ATOM      2  O   UNL     1      10.384   3.979  -1.822  0.00  0.00    -0.453 OA
ATOM      3  O   UNL     1      12.578   3.060  -2.211  0.00  0.00    -0.453 OA
ATOM     24  C   UNL     1      11.683   4.319   1.593  0.00  0.00    +0.026 A 
ATOM     25  C   UNL     1      10.758   4.415   0.551  0.00  0.00    +0.061 A 
ATOM     26  C   UNL     1      12.963   3.781   1.366  0.00  0.00    +0.015 A 
ATOM     27  C   UNL     1      11.147   3.966  -0.695  0.00  0.00    +0.167 A 
ATOM     28  C   UNL     1      12.399   3.440  -0.916  0.00  0.00    +0.166 A 
ATOM     29  C   UNL     1      13.332   3.334   0.095  0.00  0.00    +0.050 A 
ATOM     30  C   UNL     1      11.298   3.404  -2.778  0.00  0.00    +0.466 C 
ENDBRANCH  23  24
ENDBRANCH  15  21
BRANCH   4  10
ATOM     10  C   UNL     1       9.476   8.523   4.633  0.00  0.00    +0.089 C 
BRANCH  10   9
ATOM      9  C   UNL     1       8.328   9.479   4.951  0.00  0.00    +0.003 C 
ATOM     11  C   UNL     1       8.834  10.926   5.024  0.00  0.00    +0.005 C 
ATOM     12  C   UNL     1       7.205   9.343   3.915  0.00  0.00    +0.005 C 
ATOM     13  C   UNL     1       7.694  11.907   5.290  0.00  0.00    +0.000 C 
ATOM     14  C   UNL     1       6.069  10.327   4.182  0.00  0.00    +0.000 C 
ATOM     16  C   UNL     1       6.577  11.764   4.263  0.00  0.00    +0.000 C 
ENDBRANCH  10   9
ENDBRANCH   4  10
TORSDOF 4
ENDMDL
MODEL 4
REMARK VINA RESULT:      -6.8     13.183     15.778
REMARK  Name = 26761906
REMARK  4 active torsions:
REMARK  status: ('A' for Active; 'I' for Inactive)
REMARK    1  A    between atoms: N_4  and  C_10
REMARK    2  A    between atoms: C_9  and  C_10
REMARK    3  A    between atoms: C_15  and  C_21
REMARK    4  A    between atoms: C_23  and  C_24
REMARK                            x       y       z     vdW  Elec       q    Type
REMARK                         _______ _______ _______ _____ _____    ______ ____
ROOT
ATOM      4  N   UNL     1       9.344   6.092   5.194  0.00  0.00    -0.285 NA
ATOM      5  N   UNL     1      10.165   3.957   8.132  0.00  0.00    -0.347 N 
ATOM      6  N   UNL     1       9.145   5.559   9.310  0.00  0.00    -0.240 NA
ATOM     15  C   UNL     1       9.303   7.386   5.943  0.00  0.00    +0.152 C 
ATOM     17  C   UNL     1      10.170   5.031   5.807  0.00  0.00    +0.140 C 
ATOM     18  C   UNL     1       8.761   7.193   7.404  0.00  0.00    +0.085 C 
ATOM     19  C   UNL     1       9.871   4.954   7.253  0.00  0.00    +0.053 A 
ATOM     20  C   UNL     1       9.251   5.926   8.000  0.00  0.00    +0.065 A 
ATOM     22  C   UNL     1       9.707   4.368   9.360  0.00  0.00    +0.197 A 
ATOM     31  H   UNL     1      10.634   3.083   7.927  0.00  0.00    +0.167 HD
ENDROOT
BRANCH  15  21
ATOM      1  O   UNL     1      10.430   9.558   5.713  0.00  0.00    -0.336 OA
ATOM      7  N   UNL     1      11.832   7.830   5.967  0.00  0.00    -0.190 NA
ATOM      8  N   UNL     1      11.722  10.098   5.686  0.00  0.00    -0.056 NA
ATOM     21  C   UNL     1      10.585   8.218   5.881  0.00  0.00    +0.245 A 
ATOM     23  C   UNL     1      12.493   9.017   5.842  0.00  0.00    +0.202 A 
BRANCH  23  24
ATOM      2  O   UNL     1      16.705  11.297   6.806  0.00  0.00    -0.453 OA
ATOM      3  O   UNL     1      18.014   9.426   6.035  0.00  0.00    -0.453 OA
ATOM     24  C   UNL     1      13.925   9.090   5.878  0.00  0.00    +0.026 A 
ATOM     25  C   UNL     1      14.549  10.243   6.360  0.00  0.00    +0.061 A 
ATOM     26  C   UNL     1      14.689   7.999   5.427  0.00  0.00    +0.015 A 
ATOM     27  C   UNL     1      15.929  10.266   6.375  0.00  0.00    +0.167 A 
ATOM     28  C   UNL     1      16.676   9.198   5.934  0.00  0.00    +0.166 A 
ATOM     29  C   UNL     1      16.085   8.048   5.453  0.00  0.00    +0.050 A 
ATOM     30  C   UNL     1      18.024  10.758   6.588  0.00  0.00    +0.466 C 
ENDBRANCH  23  24
ENDBRANCH  15  21
BRANCH   4  10
ATOM     10  C   UNL     1       9.630   6.238   3.771  0.00  0.00    +0.089 C 
BRANCH  10   9
ATOM      9  C   UNL     1      10.891   5.469   3.380  0.00  0.00    +0.003 C 
ATOM     11  C   UNL     1      10.550   4.329   2.410  0.00  0.00    +0.005 C 
ATOM     12  C   UNL     1      11.935   6.413   2.769  0.00  0.00    +0.005 C 
ATOM     13  C   UNL     1      11.802   3.578   1.963  0.00  0.00    +0.000 C 
ATOM     14  C   UNL     1      13.184   5.657   2.321  0.00  0.00    +0.000 C 
ATOM     16  C   UNL     1      12.840   4.520   1.364  0.00  0.00    +0.000 C 
ENDBRANCH  10   9
ENDBRANCH   4  10
TORSDOF 4
ENDMDL
MODEL 5
REMARK VINA RESULT:      -6.7     26.322     28.315
REMARK  Name = 26761906
REMARK  4 active torsions:
REMARK  status: ('A' for Active; 'I' for Inactive)
REMARK    1  A    between atoms: N_4  and  C_10
REMARK    2  A    between atoms: C_9  and  C_10
REMARK    3  A    between atoms: C_15  and  C_21
REMARK    4  A    between atoms: C_23  and  C_24
REMARK                            x       y       z     vdW  Elec       q    Type
REMARK                         _______ _______ _______ _____ _____    ______ ____
ROOT
ATOM      4  N   UNL     1     -11.659   8.493  19.869  0.00  0.00    -0.285 NA
ATOM      5  N   UNL     1     -12.641   5.453  21.782  0.00  0.00    -0.347 N 
ATOM      6  N   UNL     1     -14.730   6.075  21.281  0.00  0.00    -0.240 NA
ATOM     15  C   UNL     1     -12.927   9.249  20.108  0.00  0.00    +0.152 C 
ATOM     17  C   UNL     1     -11.336   7.463  20.878  0.00  0.00    +0.140 C 
ATOM     18  C   UNL     1     -14.169   8.291  20.175  0.00  0.00    +0.085 C 
ATOM     19  C   UNL     1     -12.546   6.661  21.162  0.00  0.00    +0.053 A 
ATOM     20  C   UNL     1     -13.838   7.023  20.868  0.00  0.00    +0.065 A 
ATOM     22  C   UNL     1     -13.978   5.141  21.830  0.00  0.00    +0.197 A 
ATOM     31  H   UNL     1     -11.880   4.893  22.144  0.00  0.00    +0.167 HD
ENDROOT
BRANCH  15  21
ATOM      1  O   UNL     1     -13.192  11.543  20.950  0.00  0.00    -0.336 OA
ATOM      7  N   UNL     1     -12.581  10.065  22.518  0.00  0.00    -0.190 NA
ATOM      8  N   UNL     1     -13.081  12.266  22.144  0.00  0.00    -0.056 NA
ATOM     21  C   UNL     1     -12.881  10.256  21.259  0.00  0.00    +0.245 A 
ATOM     23  C   UNL     1     -12.718  11.325  23.022  0.00  0.00    +0.202 A 
BRANCH  23  24
ATOM      2  O   UNL     1     -10.929  10.255  27.441  0.00  0.00    -0.453 OA
ATOM      3  O   UNL     1     -11.751  12.315  28.386  0.00  0.00    -0.453 OA
ATOM     24  C   UNL     1     -12.485  11.613  24.408  0.00  0.00    +0.026 A 
ATOM     25  C   UNL     1     -11.784  10.698  25.198  0.00  0.00    +0.061 A 
ATOM     26  C   UNL     1     -12.966  12.813  24.959  0.00  0.00    +0.015 A 
ATOM     27  C   UNL     1     -11.585  11.019  26.525  0.00  0.00    +0.167 A 
ATOM     28  C   UNL     1     -12.055  12.194  27.065  0.00  0.00    +0.166 A 
ATOM     29  C   UNL     1     -12.750  13.114  26.307  0.00  0.00    +0.050 A 
ATOM     30  C   UNL     1     -11.039  11.083  28.617  0.00  0.00    +0.466 C 
ENDBRANCH  23  24
ENDBRANCH  15  21
BRANCH   4  10
ATOM     10  C   UNL     1     -10.507   9.340  19.583  0.00  0.00    +0.089 C 
BRANCH  10   9
ATOM      9  C   UNL     1     -10.179   9.340  18.091  0.00  0.00    +0.003 C 
ATOM     11  C   UNL     1     -10.728   8.076  17.415  0.00  0.00    +0.005 C 
ATOM     12  C   UNL     1     -10.727  10.604  17.415  0.00  0.00    +0.005 C 
ATOM     13  C   UNL     1     -10.457   8.079  15.912  0.00  0.00    +0.000 C 
ATOM     14  C   UNL     1     -10.457  10.602  15.912  0.00  0.00    +0.000 C 
ATOM     16  C   UNL     1     -10.997   9.340  15.246  0.00  0.00    +0.000 C 
ENDBRANCH  10   9
ENDBRANCH   4  10
TORSDOF 4
ENDMDL
MODEL 6
REMARK VINA RESULT:      -6.6     26.846     29.627
REMARK  Name = 26761906
REMARK  4 active torsions:
REMARK  status: ('A' for Active; 'I' for Inactive)
REMARK    1  A    between atoms: N_4  and  C_10
REMARK    2  A    between atoms: C_9  and  C_10
REMARK    3  A    between atoms: C_15  and  C_21
REMARK    4  A    between atoms: C_23  and  C_24
REMARK                            x       y       z     vdW  Elec       q    Type
REMARK                         _______ _______ _______ _____ _____    ______ ____
ROOT
ATOM      4  N   UNL     1      -1.959 -12.592  12.532  0.00  0.00    -0.285 NA
ATOM      5  N   UNL     1      -4.236 -11.182   9.945  0.00  0.00    -0.347 N 
ATOM      6  N   UNL     1      -3.083  -9.294  10.268  0.00  0.00    -0.240 NA
ATOM     15  C   UNL     1      -1.676 -11.295  13.219  0.00  0.00    +0.152 C 
ATOM     17  C   UNL     1      -3.236 -12.650  11.789  0.00  0.00    +0.140 C 
ATOM     18  C   UNL     1      -1.653 -10.095  12.207  0.00  0.00    +0.085 C 
ATOM     19  C   UNL     1      -3.387 -11.421  10.981  0.00  0.00    +0.053 A 
ATOM     20  C   UNL     1      -2.694 -10.248  11.163  0.00  0.00    +0.065 A 
ATOM     22  C   UNL     1      -4.015  -9.886   9.547  0.00  0.00    +0.197 A 
ATOM     31  H   UNL     1      -4.904 -11.828   9.544  0.00  0.00    +0.167 HD
ENDROOT
BRANCH  15  21
ATOM      1  O   UNL     1      -1.854 -10.958  15.647  0.00  0.00    -0.336 OA
ATOM      7  N   UNL     1      -3.811 -10.826  14.567  0.00  0.00    -0.190 NA
ATOM      8  N   UNL     1      -2.822 -10.698  16.626  0.00  0.00    -0.056 NA
ATOM     21  C   UNL     1      -2.521 -11.018  14.464  0.00  0.00    +0.245 A 
ATOM     23  C   UNL     1      -3.950 -10.634  15.910  0.00  0.00    +0.202 A 
BRANCH  23  24
ATOM      2  O   UNL     1      -8.601  -9.146  15.752  0.00  0.00    -0.453 OA
ATOM      3  O   UNL     1      -8.935  -9.605  18.094  0.00  0.00    -0.453 OA
ATOM     24  C   UNL     1      -5.228 -10.379  16.508  0.00  0.00    +0.026 A 
ATOM     25  C   UNL     1      -6.269  -9.867  15.728  0.00  0.00    +0.061 A 
ATOM     26  C   UNL     1      -5.423 -10.645  17.874  0.00  0.00    +0.015 A 
ATOM     27  C   UNL     1      -7.481  -9.638  16.347  0.00  0.00    +0.167 A 
ATOM     28  C   UNL     1      -7.671  -9.900  17.685  0.00  0.00    +0.166 A 
ATOM     29  C   UNL     1      -6.661 -10.405  18.477  0.00  0.00    +0.050 A 
ATOM     30  C   UNL     1      -9.518  -9.127  16.864  0.00  0.00    +0.466 C 
ENDBRANCH  23  24
ENDBRANCH  15  21
BRANCH   4  10
ATOM     10  C   UNL     1      -1.780 -13.766  13.378  0.00  0.00    +0.089 C 
BRANCH  10   9
ATOM      9  C   UNL     1      -3.056 -14.605  13.439  0.00  0.00    +0.003 C 
ATOM     11  C   UNL     1      -2.759 -16.068  13.081  0.00  0.00    +0.005 C 
ATOM     12  C   UNL     1      -3.708 -14.501  14.824  0.00  0.00    +0.005 C 
ATOM     13  C   UNL     1      -4.010 -16.937  13.186  0.00  0.00    +0.000 C 
ATOM     14  C   UNL     1      -4.957 -15.373  14.925  0.00  0.00    +0.000 C 
ATOM     16  C   UNL     1      -4.660 -16.825  14.560  0.00  0.00    +0.000 C 
ENDBRANCH  10   9
ENDBRANCH   4  10
TORSDOF 4
ENDMDL
MODEL 7
REMARK VINA RESULT:      -6.6      3.480      9.078
REMARK  Name = 26761906
REMARK  4 active torsions:
REMARK  status: ('A' for Active; 'I' for Inactive)
REMARK    1  A    between atoms: N_4  and  C_10
REMARK    2  A    between atoms: C_9  and  C_10
REMARK    3  A    between atoms: C_15  and  C_21
REMARK    4  A    between atoms: C_23  and  C_24
REMARK                            x       y       z     vdW  Elec       q    Type
REMARK                         _______ _______ _______ _____ _____    ______ ____
ROOT
ATOM      4  N   UNL     1      21.157   6.106  21.502  0.00  0.00    -0.285 NA
ATOM      5  N   UNL     1      22.477   9.392  20.350  0.00  0.00    -0.347 N 
ATOM      6  N   UNL     1      21.162  10.237  21.949  0.00  0.00    -0.240 NA
ATOM     15  C   UNL     1      19.863   6.631  22.035  0.00  0.00    +0.152 C 
ATOM     17  C   UNL     1      21.788   6.927  20.448  0.00  0.00    +0.140 C 
ATOM     18  C   UNL     1      20.025   8.073  22.635  0.00  0.00    +0.085 C 
ATOM     19  C   UNL     1      21.763   8.348  20.856  0.00  0.00    +0.053 A 
ATOM     20  C   UNL     1      20.962   8.891  21.830  0.00  0.00    +0.065 A 
ATOM     22  C   UNL     1      22.079  10.510  21.042  0.00  0.00    +0.197 A 
ATOM     31  H   UNL     1      23.163   9.357  19.607  0.00  0.00    +0.167 HD
ENDROOT
BRANCH  15  21
ATOM      1  O   UNL     1      18.868   5.785  19.953  0.00  0.00    -0.336 OA
ATOM      7  N   UNL     1      17.458   6.991  21.208  0.00  0.00    -0.190 NA
ATOM      8  N   UNL     1      17.652   5.809  19.258  0.00  0.00    -0.056 NA
ATOM     21  C   UNL     1      18.667   6.504  21.089  0.00  0.00    +0.245 A 
ATOM     23  C   UNL     1      16.871   6.539  20.062  0.00  0.00    +0.202 A 
BRANCH  23  24
ATOM      2  O   UNL     1      13.309   7.915  17.014  0.00  0.00    -0.453 OA
ATOM      3  O   UNL     1      11.624   7.703  18.724  0.00  0.00    -0.453 OA
ATOM     24  C   UNL     1      15.503   6.833  19.749  0.00  0.00    +0.026 A 
ATOM     25  C   UNL     1      15.158   7.239  18.458  0.00  0.00    +0.061 A 
ATOM     26  C   UNL     1      14.520   6.711  20.747  0.00  0.00    +0.015 A 
ATOM     27  C   UNL     1      13.829   7.510  18.205  0.00  0.00    +0.167 A 
ATOM     28  C   UNL     1      12.867   7.390  19.182  0.00  0.00    +0.166 A 
ATOM     29  C   UNL     1      13.181   6.991  20.465  0.00  0.00    +0.050 A 
ATOM     30  C   UNL     1      11.912   8.035  17.351  0.00  0.00    +0.466 C 
ENDBRANCH  23  24
ENDBRANCH  15  21
BRANCH   4  10
ATOM     10  C   UNL     1      21.119   4.696  21.130  0.00  0.00    +0.089 C 
BRANCH  10   9
ATOM      9  C   UNL     1      22.426   3.993  21.492  0.00  0.00    +0.003 C 
ATOM     11  C   UNL     1      22.504   3.740  23.004  0.00  0.00    +0.005 C 
ATOM     12  C   UNL     1      22.572   2.681  20.709  0.00  0.00    +0.005 C 
ATOM     13  C   UNL     1      23.779   2.991  23.384  0.00  0.00    +0.000 C 
ATOM     14  C   UNL     1      23.847   1.934  21.094  0.00  0.00    +0.000 C 
ATOM     16  C   UNL     1      23.925   1.692  22.598  0.00  0.00    +0.000 C 
ENDBRANCH  10   9
ENDBRANCH   4  10
TORSDOF 4
ENDMDL
MODEL 8
REMARK VINA RESULT:      -6.6     13.526     16.338
REMARK  Name = 26761906
REMARK  4 active torsions:
REMARK  status: ('A' for Active; 'I' for Inactive)
REMARK    1  A    between atoms: N_4  and  C_10
REMARK    2  A    between atoms: C_9  and  C_10
REMARK    3  A    between atoms: C_15  and  C_21
REMARK    4  A    between atoms: C_23  and  C_24
REMARK                            x       y       z     vdW  Elec       q    Type
REMARK                         _______ _______ _______ _____ _____    ______ ____
ROOT
ATOM      4  N   UNL     1      10.403   6.697   5.122  0.00  0.00    -0.285 NA
ATOM      5  N   UNL     1       9.799   3.861   7.458  0.00  0.00    -0.347 N 
ATOM      6  N   UNL     1       9.851   5.437   9.043  0.00  0.00    -0.240 NA
ATOM     15  C   UNL     1      11.091   7.578   6.114  0.00  0.00    +0.152 C 
ATOM     17  C   UNL     1      10.463   5.248   5.411  0.00  0.00    +0.140 C 
ATOM     18  C   UNL     1      10.506   7.391   7.559  0.00  0.00    +0.085 C 
ATOM     19  C   UNL     1      10.144   5.022   6.837  0.00  0.00    +0.053 A 
ATOM     20  C   UNL     1      10.174   5.972   7.829  0.00  0.00    +0.065 A 
ATOM     22  C   UNL     1       9.632   4.162   8.787  0.00  0.00    +0.197 A 
ATOM     31  H   UNL     1       9.689   2.950   7.030  0.00  0.00    +0.167 HD
ENDROOT
BRANCH  15  21
ATOM      1  O   UNL     1      13.233   6.828   7.057  0.00  0.00    -0.336 OA
ATOM      7  N   UNL     1      13.443   8.093   5.221  0.00  0.00    -0.190 NA
ATOM      8  N   UNL     1      14.608   6.936   6.814  0.00  0.00    -0.056 NA
ATOM     21  C   UNL     1      12.620   7.538   6.073  0.00  0.00    +0.245 A 
ATOM     23  C   UNL     1      14.652   7.697   5.715  0.00  0.00    +0.202 A 
BRANCH  23  24
ATOM      2  O   UNL     1      17.635   8.060   1.863  0.00  0.00    -0.453 OA
ATOM      3  O   UNL     1      19.363   9.114   3.171  0.00  0.00    -0.453 OA
ATOM     24  C   UNL     1      15.884   8.076   5.088  0.00  0.00    +0.026 A 
ATOM     25  C   UNL     1      16.072   7.833   3.725  0.00  0.00    +0.061 A 
ATOM     26  C   UNL     1      16.893   8.689   5.851  0.00  0.00    +0.015 A 
ATOM     27  C   UNL     1      17.275   8.216   3.166  0.00  0.00    +0.167 A 
ATOM     28  C   UNL     1      18.262   8.817   3.914  0.00  0.00    +0.166 A 
ATOM     29  C   UNL     1      18.101   9.068   5.261  0.00  0.00    +0.050 A 
ATOM     30  C   UNL     1      18.959   8.631   1.874  0.00  0.00    +0.466 C 
ENDBRANCH  23  24
ENDBRANCH  15  21
BRANCH   4  10
ATOM     10  C   UNL     1      10.750   6.979   3.734  0.00  0.00    +0.089 C 
BRANCH  10   9
ATOM      9  C   UNL     1      11.121   5.700   2.985  0.00  0.00    +0.003 C 
ATOM     11  C   UNL     1      10.169   5.469   1.804  0.00  0.00    +0.005 C 
ATOM     12  C   UNL     1      12.580   5.753   2.510  0.00  0.00    +0.005 C 
ATOM     13  C   UNL     1      10.553   4.223   1.008  0.00  0.00    +0.000 C 
ATOM     14  C   UNL     1      12.958   4.507   1.713  0.00  0.00    +0.000 C 
ATOM     16  C   UNL     1      12.004   4.276   0.545  0.00  0.00    +0.000 C 
ENDBRANCH  10   9
ENDBRANCH   4  10
TORSDOF 4
ENDMDL
MODEL 9
REMARK VINA RESULT:      -6.5     26.590     29.216
REMARK  Name = 26761906
REMARK  4 active torsions:
REMARK  status: ('A' for Active; 'I' for Inactive)
REMARK    1  A    between atoms: N_4  and  C_10
REMARK    2  A    between atoms: C_9  and  C_10
REMARK    3  A    between atoms: C_15  and  C_21
REMARK    4  A    between atoms: C_23  and  C_24
REMARK                            x       y       z     vdW  Elec       q    Type
REMARK                         _______ _______ _______ _____ _____    ______ ____
ROOT
ATOM      4  N   UNL     1     -12.685   7.136  20.390  0.00  0.00    -0.285 NA
ATOM      5  N   UNL     1     -14.533   4.566  22.352  0.00  0.00    -0.347 N 
ATOM      6  N   UNL     1     -16.347   5.736  21.769  0.00  0.00    -0.240 NA
ATOM     15  C   UNL     1     -13.691   8.227  20.569  0.00  0.00    +0.152 C 
ATOM     17  C   UNL     1     -12.691   6.091  21.436  0.00  0.00    +0.140 C 
ATOM     18  C   UNL     1     -15.156   7.663  20.622  0.00  0.00    +0.085 C 
ATOM     19  C   UNL     1     -14.085   5.676  21.703  0.00  0.00    +0.053 A 
ATOM     20  C   UNL     1     -15.214   6.379  21.359  0.00  0.00    +0.065 A 
ATOM     22  C   UNL     1     -15.905   4.647  22.366  0.00  0.00    +0.197 A 
ATOM     31  H   UNL     1     -13.971   3.826  22.752  0.00  0.00    +0.167 HD
ENDROOT
BRANCH  15  21
ATOM      1  O   UNL     1     -12.995  10.464  21.313  0.00  0.00    -0.336 OA
ATOM      7  N   UNL     1     -13.445   9.049  22.990  0.00  0.00    -0.190 NA
ATOM      8  N   UNL     1     -12.776  11.180  22.497  0.00  0.00    -0.056 NA
ATOM     21  C   UNL     1     -13.386   9.219  21.694  0.00  0.00    +0.245 A 
ATOM     23  C   UNL     1     -13.062  10.278  23.441  0.00  0.00    +0.202 A 
BRANCH  23  24
ATOM      2  O   UNL     1     -14.893  10.437  27.968  0.00  0.00    -0.453 OA
ATOM      3  O   UNL     1     -12.864  11.375  28.867  0.00  0.00    -0.453 OA
ATOM     24  C   UNL     1     -12.978  10.574  24.842  0.00  0.00    +0.026 A 
ATOM     25  C   UNL     1     -14.070  10.316  25.673  0.00  0.00    +0.061 A 
ATOM     26  C   UNL     1     -11.794  11.123  25.366  0.00  0.00    +0.015 A 
ATOM     27  C   UNL     1     -13.941  10.618  27.014  0.00  0.00    +0.167 A 
ATOM     28  C   UNL     1     -12.782  11.155  27.526  0.00  0.00    +0.166 A 
ATOM     29  C   UNL     1     -11.689  11.419  26.727  0.00  0.00    +0.050 A 
ATOM     30  C   UNL     1     -14.204  10.919  29.139  0.00  0.00    +0.466 C 
ENDBRANCH  23  24
ENDBRANCH  15  21
BRANCH   4  10
ATOM     10  C   UNL     1     -11.334   7.611  20.118  0.00  0.00    +0.089 C 
BRANCH  10   9
ATOM      9  C   UNL     1     -11.318   8.591  18.946  0.00  0.00    +0.003 C 
ATOM     11  C   UNL     1     -10.347   9.748  19.221  0.00  0.00    +0.005 C 
ATOM     12  C   UNL     1     -10.955   7.871  17.640  0.00  0.00    +0.005 C 
ATOM     13  C   UNL     1     -10.275  10.714  18.041  0.00  0.00    +0.000 C 
ATOM     14  C   UNL     1     -10.881   8.840  16.463  0.00  0.00    +0.000 C 
ATOM     16  C   UNL     1      -9.922   9.993  16.744  0.00  0.00    +0.000 C 
ENDBRANCH  10   9
ENDBRANCH   4  10
TORSDOF 4
ENDMDL
MODEL 10
REMARK VINA RESULT:      -6.4     29.343     31.782
REMARK  Name = 26761906
REMARK  4 active torsions:
REMARK  status: ('A' for Active; 'I' for Inactive)
REMARK    1  A    between atoms: N_4  and  C_10
REMARK    2  A    between atoms: C_9  and  C_10
REMARK    3  A    between atoms: C_15  and  C_21
REMARK    4  A    between atoms: C_23  and  C_24
REMARK                            x       y       z     vdW  Elec       q    Type
REMARK                         _______ _______ _______ _____ _____    ______ ____
ROOT
ATOM      4  N   UNL     1     -12.370 -10.110  18.111  0.00  0.00    -0.285 NA
ATOM      5  N   UNL     1     -14.050 -12.967  19.809  0.00  0.00    -0.347 N 
ATOM      6  N   UNL     1     -13.599 -11.837  21.685  0.00  0.00    -0.240 NA
ATOM     15  C   UNL     1     -11.506  -9.722  19.268  0.00  0.00    +0.152 C 
ATOM     17  C   UNL     1     -12.813 -11.520  18.096  0.00  0.00    +0.140 C 
ATOM     18  C   UNL     1     -12.226  -9.974  20.640  0.00  0.00    +0.085 C 
ATOM     19  C   UNL     1     -13.295 -11.895  19.443  0.00  0.00    +0.053 A 
ATOM     20  C   UNL     1     -13.028 -11.220  20.609  0.00  0.00    +0.065 A 
ATOM     22  C   UNL     1     -14.207 -12.888  21.172  0.00  0.00    +0.197 A 
ATOM     31  H   UNL     1     -14.422 -13.686  19.202  0.00  0.00    +0.167 HD
ENDROOT
BRANCH  15  21
ATOM      1  O   UNL     1      -9.720 -11.103  20.241  0.00  0.00    -0.336 OA
ATOM      7  N   UNL     1      -9.129 -10.053  18.353  0.00  0.00    -0.190 NA
ATOM      8  N   UNL     1      -8.390 -11.467  19.993  0.00  0.00    -0.056 NA
ATOM     21  C   UNL     1     -10.077 -10.269  19.228  0.00  0.00    +0.245 A 
ATOM     23  C   UNL     1      -8.113 -10.808  18.863  0.00  0.00    +0.202 A 
BRANCH  23  24
ATOM      2  O   UNL     1      -5.162 -10.371  14.994  0.00  0.00    -0.453 OA
ATOM      3  O   UNL     1      -3.231 -11.061  16.259  0.00  0.00    -0.453 OA
ATOM     24  C   UNL     1      -6.834 -10.885  18.219  0.00  0.00    +0.026 A 
ATOM     25  C   UNL     1      -6.717 -10.558  16.866  0.00  0.00    +0.061 A 
ATOM     26  C   UNL     1      -5.707 -11.289  18.957  0.00  0.00    +0.015 A 
ATOM     27  C   UNL     1      -5.466 -10.647  16.291  0.00  0.00    +0.167 A 
ATOM     28  C   UNL     1      -4.363 -11.042  17.014  0.00  0.00    +0.166 A 
ATOM     29  C   UNL     1      -4.451 -11.370  18.351  0.00  0.00    +0.050 A 
ATOM     30  C   UNL     1      -3.745 -10.636  14.981  0.00  0.00    +0.466 C 
ENDBRANCH  23  24
ENDBRANCH  15  21
BRANCH   4  10
ATOM     10  C   UNL     1     -11.846  -9.701  16.813  0.00  0.00    +0.089 C 
BRANCH  10   9
ATOM      9  C   UNL     1     -12.059  -8.207  16.577  0.00  0.00    +0.003 C 
ATOM     11  C   UNL     1     -10.731  -7.518  16.232  0.00  0.00    +0.005 C 
ATOM     12  C   UNL     1     -13.099  -7.975  15.472  0.00  0.00    +0.005 C 
ATOM     13  C   UNL     1     -10.927  -6.032  15.939  0.00  0.00    +0.000 C 
ATOM     14  C   UNL     1     -13.290  -6.488  15.181  0.00  0.00    +0.000 C 
ATOM     16  C   UNL     1     -11.967  -5.806  14.847  0.00  0.00    +0.000 C 
ENDBRANCH  10   9
ENDBRANCH   4  10
TORSDOF 4
ENDMDL
