REMARK  Name = 75367092
REMARK  7 active torsions:
REMARK  status: ('A' for Active; 'I' for Inactive)
REMARK    1  A    between atoms: S_1  and  N_8
REMARK    2  A    between atoms: S_1  and  C_19
REMARK    3  A    between atoms: O_3  and  C_10
REMARK    4  A    between atoms: N_7  and  C_9
REMARK    5  A    between atoms: N_7  and  C_12
REMARK    6  A    between atoms: N_8  and  C_16
REMARK    7  A    between atoms: C_11  and  C_16
REMARK                            x       y       z     vdW  Elec       q    Type
REMARK                         _______ _______ _______ _____ _____    ______ ____
ROOT
ATOM      2  O   UNL     1       1.108   0.840   0.681  0.00  0.00    -0.371 OA
ATOM      9  C   UNL     1      -0.914  -0.246   0.070  0.00  0.00    +0.111 C 
ATOM     10  C   UNL     1       0.258  -1.036  -0.482  0.00  0.00    +0.164 C 
ATOM     11  C   UNL     1       1.390  -0.543   0.409  0.00  0.00    +0.164 C 
ATOM     13  C   UNL     1      -0.266   1.101   0.346  0.00  0.00    +0.181 C 
ENDROOT
BRANCH  10   3
ATOM      3  O   UNL     1       0.073  -2.434  -0.376  0.00  0.00    -0.388 OA
ATOM     21  H   UNL     1      -0.093  -2.651   0.557  0.00  0.00    +0.210 HD
ENDBRANCH  10   3
BRANCH   9   7
ATOM      7  N   UNL     1      -2.040  -0.156  -0.845  0.00  0.00    -0.306 NA
ATOM     20  H   UNL     1      -2.216  -1.064  -1.274  0.00  0.00    +0.123 HD
BRANCH   7  12
ATOM      4  O   UNL     1      -6.089   0.122   0.228  0.00  0.00    -0.380 OA
ATOM     12  C   UNL     1      -3.242   0.307  -0.156  0.00  0.00    +0.058 C 
ATOM     14  C   UNL     1      -3.891  -0.828   0.643  0.00  0.00    +0.047 C 
ATOM     15  C   UNL     1      -4.245   0.881  -1.161  0.00  0.00    +0.047 C 
ATOM     17  C   UNL     1      -5.213  -0.364   1.245  0.00  0.00    +0.161 C 
ATOM     18  C   UNL     1      -5.547   1.250  -0.459  0.00  0.00    +0.161 C 
ENDBRANCH   7  12
ENDBRANCH   9   7
BRANCH  11  16
ATOM     16  C   UNL     1       2.760  -0.672  -0.233  0.00  0.00    +0.139 C 
BRANCH  16   8
ATOM      8  N   UNL     1       3.792  -0.173   0.697  0.00  0.00    -0.192 NA
ATOM     22  H   UNL     1       3.896  -0.753   1.540  0.00  0.00    +0.148 HD
BRANCH   8   1
ATOM      1  S   UNL     1       5.226   0.499   0.063  0.00  0.00    +0.027 S 
ATOM      5  O   UNL     1       6.212   0.640   1.117  0.00  0.00    -0.158 OA
ATOM      6  O   UNL     1       4.872   1.628  -0.776  0.00  0.00    -0.158 OA
ATOM     19  C   UNL     1       5.757  -0.815  -1.011  0.00  0.00    +0.214 C 
ENDBRANCH   8   1
ENDBRANCH  16   8
ENDBRANCH  11  16
TORSDOF 6
