MODEL 1
REMARK VINA RESULT:      -6.2      0.000      0.000
REMARK  Name = 45783393
REMARK  8 active torsions:
REMARK  status: ('A' for Active; 'I' for Inactive)
REMARK    1  A    between atoms: O_3  and  C_26
REMARK    2  A    between atoms: O_3  and  C_27
REMARK    3  A    between atoms: N_4  and  C_13
REMARK    4  A    between atoms: N_7  and  C_23
REMARK    5  A    between atoms: C_9  and  C_14
REMARK    6  A    between atoms: C_13  and  C_15
REMARK    7  A    between atoms: C_16  and  C_18
REMARK    8  A    between atoms: C_23  and  C_26
REMARK                            x       y       z     vdW  Elec       q    Type
REMARK                         _______ _______ _______ _____ _____    ______ ____
ROOT
ATOM      2  O   UNL     1      16.767   9.401  21.144  0.00  0.00    -0.336 OA
ATOM      5  N   UNL     1      14.921   8.865  22.294  0.00  0.00    -0.190 NA
ATOM      6  N   UNL     1      16.330  10.584  21.754  0.00  0.00    -0.056 NA
ATOM     14  C   UNL     1      15.882   8.438  21.513  0.00  0.00    +0.245 A 
ATOM     16  C   UNL     1      15.238  10.187  22.413  0.00  0.00    +0.205 A 
ENDROOT
BRANCH  16  18
ATOM      7  N   UNL     1      12.436   9.835  22.719  0.00  0.00    -0.326 N 
ATOM      8  N   UNL     1      12.298  11.759  24.090  0.00  0.00    -0.240 NA
ATOM     18  C   UNL     1      14.442  11.085  23.198  0.00  0.00    +0.062 A 
ATOM     21  C   UNL     1      13.074  10.929  23.357  0.00  0.00    +0.130 A 
ATOM     22  C   UNL     1      15.053  12.162  23.831  0.00  0.00    +0.016 A 
ATOM     24  C   UNL     1      14.287  13.038  24.593  0.00  0.00    +0.020 A 
ATOM     25  C   UNL     1      12.926  12.794  24.691  0.00  0.00    +0.113 A 
ATOM     28  H   UNL     1      12.973   8.980  22.625  0.00  0.00    +0.148 HD
BRANCH   7  23
ATOM     23  C   UNL     1      11.033   9.805  22.466  0.00  0.00    +0.131 C 
BRANCH  23  26
ATOM     26  C   UNL     1      10.550   8.367  22.384  0.00  0.00    +0.178 C 
BRANCH  26   3
ATOM      3  O   UNL     1      11.628   7.527  21.988  0.00  0.00    -0.381 OA
ATOM     27  C   UNL     1      11.167   6.253  21.564  0.00  0.00    +0.194 C 
ENDBRANCH  26   3
ENDBRANCH  23  26
ENDBRANCH   7  23
ENDBRANCH  16  18
BRANCH  14   9
ATOM      4  N   UNL     1      15.927   6.949  19.520  0.00  0.00    -0.287 NA
ATOM      9  C   UNL     1      16.137   7.045  20.978  0.00  0.00    +0.146 C 
ATOM     10  C   UNL     1      17.590   6.583  21.194  0.00  0.00    +0.030 C 
ATOM     11  C   UNL     1      18.093   6.191  19.813  0.00  0.00    +0.017 C 
ATOM     12  C   UNL     1      16.822   5.896  19.041  0.00  0.00    +0.085 C 
BRANCH   4  13
ATOM     13  C   UNL     1      14.539   6.696  19.156  0.00  0.00    +0.127 C 
BRANCH  13  15
ATOM      1  S   UNL     1      12.979   8.993  18.994  0.00  0.00    -0.100 S 
ATOM     15  C   UNL     1      13.977   7.792  18.290  0.00  0.00    +0.004 A 
ATOM     17  C   UNL     1      14.151   7.992  16.939  0.00  0.00    +0.012 A 
ATOM     19  C   UNL     1      13.456   9.146  16.474  0.00  0.00    +0.008 A 
ATOM     20  C   UNL     1      12.777   9.784  17.489  0.00  0.00    +0.045 A 
ENDBRANCH  13  15
ENDBRANCH   4  13
ENDBRANCH  14   9
TORSDOF 7
ENDMDL
MODEL 2
REMARK VINA RESULT:      -6.1     16.170     19.464
REMARK  Name = 45783393
REMARK  8 active torsions:
REMARK  status: ('A' for Active; 'I' for Inactive)
REMARK    1  A    between atoms: O_3  and  C_26
REMARK    2  A    between atoms: O_3  and  C_27
REMARK    3  A    between atoms: N_4  and  C_13
REMARK    4  A    between atoms: N_7  and  C_23
REMARK    5  A    between atoms: C_9  and  C_14
REMARK    6  A    between atoms: C_13  and  C_15
REMARK    7  A    between atoms: C_16  and  C_18
REMARK    8  A    between atoms: C_23  and  C_26
REMARK                            x       y       z     vdW  Elec       q    Type
REMARK                         _______ _______ _______ _____ _____    ______ ____
ROOT
ATOM      2  O   UNL     1      11.487   3.168   2.776  0.00  0.00    -0.336 OA
ATOM      5  N   UNL     1      11.947   5.312   2.318  0.00  0.00    -0.190 NA
ATOM      6  N   UNL     1      10.577   3.929   3.521  0.00  0.00    -0.056 NA
ATOM     14  C   UNL     1      12.256   4.059   2.097  0.00  0.00    +0.245 A 
ATOM     16  C   UNL     1      10.912   5.182   3.198  0.00  0.00    +0.205 A 
ENDROOT
BRANCH  16  18
ATOM      7  N   UNL     1      11.228   5.978   5.906  0.00  0.00    -0.326 N 
ATOM      8  N   UNL     1       9.747   7.798   5.592  0.00  0.00    -0.240 NA
ATOM     18  C   UNL     1      10.232   6.325   3.736  0.00  0.00    +0.062 A 
ATOM     21  C   UNL     1      10.375   6.726   5.055  0.00  0.00    +0.130 A 
ATOM     22  C   UNL     1       9.392   7.068   2.916  0.00  0.00    +0.016 A 
ATOM     24  C   UNL     1       8.730   8.177   3.431  0.00  0.00    +0.020 A 
ATOM     25  C   UNL     1       8.939   8.497   4.764  0.00  0.00    +0.113 A 
ATOM     28  H   UNL     1      12.044   5.554   5.480  0.00  0.00    +0.148 HD
BRANCH   7  23
ATOM     23  C   UNL     1      11.135   6.032   7.327  0.00  0.00    +0.131 C 
BRANCH  23  26
ATOM     26  C   UNL     1      10.048   5.088   7.813  0.00  0.00    +0.178 C 
BRANCH  26   3
ATOM      3  O   UNL     1       9.424   5.637   8.967  0.00  0.00    -0.381 OA
ATOM     27  C   UNL     1       9.096   4.629   9.912  0.00  0.00    +0.194 C 
ENDBRANCH  26   3
ENDBRANCH  23  26
ENDBRANCH   7  23
ENDBRANCH  16  18
BRANCH  14   9
ATOM      4  N   UNL     1      13.229   3.952  -0.191  0.00  0.00    -0.287 NA
ATOM      9  C   UNL     1      13.332   3.478   1.203  0.00  0.00    +0.146 C 
ATOM     10  C   UNL     1      14.752   3.877   1.648  0.00  0.00    +0.030 C 
ATOM     11  C   UNL     1      15.389   4.512   0.420  0.00  0.00    +0.017 C 
ATOM     12  C   UNL     1      14.588   3.942  -0.733  0.00  0.00    +0.085 C 
BRANCH   4  13
ATOM     13  C   UNL     1      12.310   3.161  -1.000  0.00  0.00    +0.127 C 
BRANCH  13  15
ATOM      1  S   UNL     1      10.746   3.898  -3.178  0.00  0.00    -0.100 S 
ATOM     15  C   UNL     1      11.166   3.989  -1.520  0.00  0.00    +0.004 A 
ATOM     17  C   UNL     1      10.355   4.862  -0.829  0.00  0.00    +0.012 A 
ATOM     19  C   UNL     1       9.376   5.465  -1.671  0.00  0.00    +0.008 A 
ATOM     20  C   UNL     1       9.477   5.028  -2.974  0.00  0.00    +0.045 A 
ENDBRANCH  13  15
ENDBRANCH   4  13
ENDBRANCH  14   9
TORSDOF 7
ENDMDL
MODEL 3
REMARK VINA RESULT:      -5.9     26.066     28.646
REMARK  Name = 45783393
REMARK  8 active torsions:
REMARK  status: ('A' for Active; 'I' for Inactive)
REMARK    1  A    between atoms: O_3  and  C_26
REMARK    2  A    between atoms: O_3  and  C_27
REMARK    3  A    between atoms: N_4  and  C_13
REMARK    4  A    between atoms: N_7  and  C_23
REMARK    5  A    between atoms: C_9  and  C_14
REMARK    6  A    between atoms: C_13  and  C_15
REMARK    7  A    between atoms: C_16  and  C_18
REMARK    8  A    between atoms: C_23  and  C_26
REMARK                            x       y       z     vdW  Elec       q    Type
REMARK                         _______ _______ _______ _____ _____    ______ ____
ROOT
ATOM      2  O   UNL     1      -5.180  -9.661  15.647  0.00  0.00    -0.336 OA
ATOM      5  N   UNL     1      -5.325 -11.484  16.940  0.00  0.00    -0.190 NA
ATOM      6  N   UNL     1      -6.384  -9.543  16.352  0.00  0.00    -0.056 NA
ATOM     14  C   UNL     1      -4.620 -10.830  16.051  0.00  0.00    +0.245 A 
ATOM     16  C   UNL     1      -6.399 -10.655  17.093  0.00  0.00    +0.205 A 
ENDROOT
BRANCH  16  18
ATOM      7  N   UNL     1      -8.777  -9.105  17.191  0.00  0.00    -0.326 N 
ATOM      8  N   UNL     1      -9.663 -10.490  18.894  0.00  0.00    -0.240 NA
ATOM     18  C   UNL     1      -7.470 -10.967  17.994  0.00  0.00    +0.062 A 
ATOM     21  C   UNL     1      -8.637 -10.222  18.055  0.00  0.00    +0.130 A 
ATOM     22  C   UNL     1      -7.348 -12.058  18.847  0.00  0.00    +0.016 A 
ATOM     24  C   UNL     1      -8.383 -12.366  19.724  0.00  0.00    +0.020 A 
ATOM     25  C   UNL     1      -9.509 -11.558  19.708  0.00  0.00    +0.113 A 
ATOM     28  H   UNL     1      -8.341  -9.173  16.279  0.00  0.00    +0.148 HD
BRANCH   7  23
ATOM     23  C   UNL     1      -9.705  -8.052  17.441  0.00  0.00    +0.131 C 
BRANCH  23  26
ATOM     26  C   UNL     1     -10.287  -7.551  16.130  0.00  0.00    +0.178 C 
BRANCH  26   3
ATOM      3  O   UNL     1     -10.907  -6.288  16.339  0.00  0.00    -0.381 OA
ATOM     27  C   UNL     1     -11.725  -5.921  15.238  0.00  0.00    +0.194 C 
ENDBRANCH  26   3
ENDBRANCH  23  26
ENDBRANCH   7  23
ENDBRANCH  16  18
BRANCH  14   9
ATOM      4  N   UNL     1      -3.067 -10.520  14.131  0.00  0.00    -0.287 NA
ATOM      9  C   UNL     1      -3.289 -11.193  15.427  0.00  0.00    +0.146 C 
ATOM     10  C   UNL     1      -2.090 -10.772  16.297  0.00  0.00    +0.030 C 
ATOM     11  C   UNL     1      -1.220  -9.916  15.388  0.00  0.00    +0.017 C 
ATOM     12  C   UNL     1      -1.620 -10.355  13.994  0.00  0.00    +0.085 C 
BRANCH   4  13
ATOM     13  C   UNL     1      -3.647 -11.238  13.004  0.00  0.00    +0.127 C 
BRANCH  13  15
ATOM      1  S   UNL     1      -5.359  -9.445  11.745  0.00  0.00    -0.100 S 
ATOM     15  C   UNL     1      -3.896 -10.330  11.829  0.00  0.00    +0.004 A 
ATOM     17  C   UNL     1      -3.081 -10.087  10.746  0.00  0.00    +0.012 A 
ATOM     19  C   UNL     1      -3.666  -9.161   9.834  0.00  0.00    +0.008 A 
ATOM     20  C   UNL     1      -4.905  -8.732  10.256  0.00  0.00    +0.045 A 
ENDBRANCH  13  15
ENDBRANCH   4  13
ENDBRANCH  14   9
TORSDOF 7
ENDMDL
MODEL 4
REMARK VINA RESULT:      -5.9     16.242     19.662
REMARK  Name = 45783393
REMARK  8 active torsions:
REMARK  status: ('A' for Active; 'I' for Inactive)
REMARK    1  A    between atoms: O_3  and  C_26
REMARK    2  A    between atoms: O_3  and  C_27
REMARK    3  A    between atoms: N_4  and  C_13
REMARK    4  A    between atoms: N_7  and  C_23
REMARK    5  A    between atoms: C_9  and  C_14
REMARK    6  A    between atoms: C_13  and  C_15
REMARK    7  A    between atoms: C_16  and  C_18
REMARK    8  A    between atoms: C_23  and  C_26
REMARK                            x       y       z     vdW  Elec       q    Type
REMARK                         _______ _______ _______ _____ _____    ______ ____
ROOT
ATOM      2  O   UNL     1      11.474   3.235   2.583  0.00  0.00    -0.336 OA
ATOM      5  N   UNL     1      12.162   5.353   2.347  0.00  0.00    -0.190 NA
ATOM      6  N   UNL     1      10.599   4.016   3.349  0.00  0.00    -0.056 NA
ATOM     14  C   UNL     1      12.363   4.100   2.028  0.00  0.00    +0.245 A 
ATOM     16  C   UNL     1      11.070   5.253   3.159  0.00  0.00    +0.205 A 
ENDROOT
BRANCH  16  18
ATOM      7  N   UNL     1      12.025   6.324   5.610  0.00  0.00    -0.326 N 
ATOM      8  N   UNL     1      10.382   8.027   5.559  0.00  0.00    -0.240 NA
ATOM     18  C   UNL     1      10.472   6.406   3.766  0.00  0.00    +0.062 A 
ATOM     21  C   UNL     1      10.925   6.942   4.961  0.00  0.00    +0.130 A 
ATOM     22  C   UNL     1       9.394   7.023   3.143  0.00  0.00    +0.016 A 
ATOM     24  C   UNL     1       8.809   8.142   3.726  0.00  0.00    +0.020 A 
ATOM     25  C   UNL     1       9.336   8.601   4.923  0.00  0.00    +0.113 A 
ATOM     28  H   UNL     1      12.730   5.902   5.017  0.00  0.00    +0.148 HD
BRANCH   7  23
ATOM     23  C   UNL     1      12.304   6.512   6.996  0.00  0.00    +0.131 C 
BRANCH  23  26
ATOM     26  C   UNL     1      13.796   6.712   7.202  0.00  0.00    +0.178 C 
BRANCH  26   3
ATOM      3  O   UNL     1      14.380   7.198   6.000  0.00  0.00    -0.381 OA
ATOM     27  C   UNL     1      15.148   8.370   6.230  0.00  0.00    +0.194 C 
ENDBRANCH  26   3
ENDBRANCH  23  26
ENDBRANCH   7  23
ENDBRANCH  16  18
BRANCH  14   9
ATOM      4  N   UNL     1      13.318   3.938  -0.265  0.00  0.00    -0.287 NA
ATOM      9  C   UNL     1      13.429   3.494   1.139  0.00  0.00    +0.146 C 
ATOM     10  C   UNL     1      14.854   3.893   1.565  0.00  0.00    +0.030 C 
ATOM     11  C   UNL     1      15.486   4.498   0.319  0.00  0.00    +0.017 C 
ATOM     12  C   UNL     1      14.673   3.908  -0.815  0.00  0.00    +0.085 C 
BRANCH   4  13
ATOM     13  C   UNL     1      12.389   3.135  -1.049  0.00  0.00    +0.127 C 
BRANCH  13  15
ATOM      1  S   UNL     1      10.589   3.700  -3.092  0.00  0.00    -0.100 S 
ATOM     15  C   UNL     1      11.205   3.941  -1.513  0.00  0.00    +0.004 A 
ATOM     17  C   UNL     1      10.498   4.902  -0.824  0.00  0.00    +0.012 A 
ATOM     19  C   UNL     1       9.436   5.447  -1.602  0.00  0.00    +0.008 A 
ATOM     20  C   UNL     1       9.373   4.881  -2.857  0.00  0.00    +0.045 A 
ENDBRANCH  13  15
ENDBRANCH   4  13
ENDBRANCH  14   9
TORSDOF 7
ENDMDL
MODEL 5
REMARK VINA RESULT:      -5.8      3.221      6.484
REMARK  Name = 45783393
REMARK  8 active torsions:
REMARK  status: ('A' for Active; 'I' for Inactive)
REMARK    1  A    between atoms: O_3  and  C_26
REMARK    2  A    between atoms: O_3  and  C_27
REMARK    3  A    between atoms: N_4  and  C_13
REMARK    4  A    between atoms: N_7  and  C_23
REMARK    5  A    between atoms: C_9  and  C_14
REMARK    6  A    between atoms: C_13  and  C_15
REMARK    7  A    between atoms: C_16  and  C_18
REMARK    8  A    between atoms: C_23  and  C_26
REMARK                            x       y       z     vdW  Elec       q    Type
REMARK                         _______ _______ _______ _____ _____    ______ ____
ROOT
ATOM      2  O   UNL     1      13.088   7.641  17.093  0.00  0.00    -0.336 OA
ATOM      5  N   UNL     1      13.059   9.723  17.919  0.00  0.00    -0.190 NA
ATOM      6  N   UNL     1      13.606   8.467  16.087  0.00  0.00    -0.056 NA
ATOM     14  C   UNL     1      12.792   8.460  18.136  0.00  0.00    +0.245 A 
ATOM     16  C   UNL     1      13.557   9.678  16.649  0.00  0.00    +0.205 A 
ENDROOT
BRANCH  16  18
ATOM      7  N   UNL     1      15.392  11.495  17.831  0.00  0.00    -0.326 N 
ATOM      8  N   UNL     1      15.322  12.883  15.916  0.00  0.00    -0.240 NA
ATOM     18  C   UNL     1      13.996  10.862  15.969  0.00  0.00    +0.062 A 
ATOM     21  C   UNL     1      14.891  11.759  16.531  0.00  0.00    +0.130 A 
ATOM     22  C   UNL     1      13.514  11.135  14.694  0.00  0.00    +0.016 A 
ATOM     24  C   UNL     1      13.935  12.281  14.029  0.00  0.00    +0.020 A 
ATOM     25  C   UNL     1      14.832  13.115  14.677  0.00  0.00    +0.113 A 
ATOM     28  H   UNL     1      15.520  10.522  18.086  0.00  0.00    +0.148 HD
BRANCH   7  23
ATOM     23  C   UNL     1      15.963  12.509  18.655  0.00  0.00    +0.131 C 
BRANCH  23  26
ATOM     26  C   UNL     1      15.255  12.545  20.000  0.00  0.00    +0.178 C 
BRANCH  26   3
ATOM      3  O   UNL     1      13.852  12.658  19.794  0.00  0.00    -0.381 OA
ATOM     27  C   UNL     1      13.122  11.931  20.771  0.00  0.00    +0.194 C 
ENDBRANCH  26   3
ENDBRANCH  23  26
ENDBRANCH   7  23
ENDBRANCH  16  18
BRANCH  14   9
ATOM      4  N   UNL     1      13.130   7.836  20.522  0.00  0.00    -0.287 NA
ATOM      9  C   UNL     1      12.209   7.800  19.368  0.00  0.00    +0.146 C 
ATOM     10  C   UNL     1      10.930   8.497  19.867  0.00  0.00    +0.030 C 
ATOM     11  C   UNL     1      11.204   8.835  21.325  0.00  0.00    +0.017 C 
ATOM     12  C   UNL     1      12.292   7.856  21.720  0.00  0.00    +0.085 C 
BRANCH   4  13
ATOM     13  C   UNL     1      14.079   6.730  20.534  0.00  0.00    +0.127 C 
BRANCH  13  15
ATOM      1  S   UNL     1      15.881   8.849  20.478  0.00  0.00    -0.100 S 
ATOM     15  C   UNL     1      15.490   7.205  20.758  0.00  0.00    +0.004 A 
ATOM     17  C   UNL     1      16.583   6.479  21.177  0.00  0.00    +0.012 A 
ATOM     19  C   UNL     1      17.756   7.282  21.270  0.00  0.00    +0.008 A 
ATOM     20  C   UNL     1      17.515   8.592  20.918  0.00  0.00    +0.045 A 
ENDBRANCH  13  15
ENDBRANCH   4  13
ENDBRANCH  14   9
TORSDOF 7
ENDMDL
MODEL 6
REMARK VINA RESULT:      -5.7     26.503     29.287
REMARK  Name = 45783393
REMARK  8 active torsions:
REMARK  status: ('A' for Active; 'I' for Inactive)
REMARK    1  A    between atoms: O_3  and  C_26
REMARK    2  A    between atoms: O_3  and  C_27
REMARK    3  A    between atoms: N_4  and  C_13
REMARK    4  A    between atoms: N_7  and  C_23
REMARK    5  A    between atoms: C_9  and  C_14
REMARK    6  A    between atoms: C_13  and  C_15
REMARK    7  A    between atoms: C_16  and  C_18
REMARK    8  A    between atoms: C_23  and  C_26
REMARK                            x       y       z     vdW  Elec       q    Type
REMARK                         _______ _______ _______ _____ _____    ______ ____
ROOT
ATOM      2  O   UNL     1      -7.499 -11.367  14.400  0.00  0.00    -0.336 OA
ATOM      5  N   UNL     1      -6.309  -9.989  15.705  0.00  0.00    -0.190 NA
ATOM      6  N   UNL     1      -6.153 -11.614  14.102  0.00  0.00    -0.056 NA
ATOM     14  C   UNL     1      -7.502 -10.397  15.352  0.00  0.00    +0.245 A 
ATOM     16  C   UNL     1      -5.514 -10.764  14.911  0.00  0.00    +0.205 A 
ENDROOT
BRANCH  16  18
ATOM      7  N   UNL     1      -3.966 -10.448  12.550  0.00  0.00    -0.326 N 
ATOM      8  N   UNL     1      -1.965 -10.415  13.812  0.00  0.00    -0.240 NA
ATOM     18  C   UNL     1      -4.084 -10.665  14.950  0.00  0.00    +0.062 A 
ATOM     21  C   UNL     1      -3.314 -10.511  13.808  0.00  0.00    +0.130 A 
ATOM     22  C   UNL     1      -3.429 -10.725  16.174  0.00  0.00    +0.016 A 
ATOM     24  C   UNL     1      -2.042 -10.629  16.219  0.00  0.00    +0.020 A 
ATOM     25  C   UNL     1      -1.363 -10.477  15.021  0.00  0.00    +0.113 A 
ATOM     28  H   UNL     1      -4.883 -10.015  12.530  0.00  0.00    +0.148 HD
BRANCH   7  23
ATOM     23  C   UNL     1      -3.292 -10.706  11.321  0.00  0.00    +0.131 C 
BRANCH  23  26
ATOM     26  C   UNL     1      -3.674  -9.658  10.289  0.00  0.00    +0.178 C 
BRANCH  26   3
ATOM      3  O   UNL     1      -4.791  -8.914  10.760  0.00  0.00    -0.381 OA
ATOM     27  C   UNL     1      -5.387  -8.154   9.718  0.00  0.00    +0.194 C 
ENDBRANCH  26   3
ENDBRANCH  23  26
ENDBRANCH   7  23
ENDBRANCH  16  18
BRANCH  14   9
ATOM      4  N   UNL     1      -8.806  -9.401  17.223  0.00  0.00    -0.287 NA
ATOM      9  C   UNL     1      -8.858  -9.946  15.852  0.00  0.00    +0.146 C 
ATOM     10  C   UNL     1      -9.457  -8.810  15.002  0.00  0.00    +0.030 C 
ATOM     11  C   UNL     1      -9.764  -7.694  15.990  0.00  0.00    +0.017 C 
ATOM     12  C   UNL     1      -9.882  -8.416  17.318  0.00  0.00    +0.085 C 
BRANCH   4  13
ATOM     13  C   UNL     1      -8.909 -10.427  18.253  0.00  0.00    +0.127 C 
BRANCH  13  15
ATOM      1  S   UNL     1      -7.208 -12.627  18.186  0.00  0.00    -0.100 S 
ATOM     15  C   UNL     1      -7.564 -11.005  18.605  0.00  0.00    +0.004 A 
ATOM     17  C   UNL     1      -6.512 -10.396  19.253  0.00  0.00    +0.012 A 
ATOM     19  C   UNL     1      -5.399 -11.272  19.407  0.00  0.00    +0.008 A 
ATOM     20  C   UNL     1      -5.643 -12.517  18.870  0.00  0.00    +0.045 A 
ENDBRANCH  13  15
ENDBRANCH   4  13
ENDBRANCH  14   9
TORSDOF 7
ENDMDL
MODEL 7
REMARK VINA RESULT:      -5.7     26.068     28.995
REMARK  Name = 45783393
REMARK  8 active torsions:
REMARK  status: ('A' for Active; 'I' for Inactive)
REMARK    1  A    between atoms: O_3  and  C_26
REMARK    2  A    between atoms: O_3  and  C_27
REMARK    3  A    between atoms: N_4  and  C_13
REMARK    4  A    between atoms: N_7  and  C_23
REMARK    5  A    between atoms: C_9  and  C_14
REMARK    6  A    between atoms: C_13  and  C_15
REMARK    7  A    between atoms: C_16  and  C_18
REMARK    8  A    between atoms: C_23  and  C_26
REMARK                            x       y       z     vdW  Elec       q    Type
REMARK                         _______ _______ _______ _____ _____    ______ ____
ROOT
ATOM      2  O   UNL     1      -4.139 -11.020  17.874  0.00  0.00    -0.336 OA
ATOM      5  N   UNL     1      -5.573 -10.644  16.195  0.00  0.00    -0.190 NA
ATOM      6  N   UNL     1      -5.369 -10.716  18.472  0.00  0.00    -0.056 NA
ATOM     14  C   UNL     1      -4.347 -10.956  16.533  0.00  0.00    +0.245 A 
ATOM     16  C   UNL     1      -6.162 -10.506  17.418  0.00  0.00    +0.205 A 
ENDROOT
BRANCH  16  18
ATOM      7  N   UNL     1      -8.054 -12.286  18.567  0.00  0.00    -0.326 N 
ATOM      8  N   UNL     1      -9.795 -10.713  18.250  0.00  0.00    -0.240 NA
ATOM     18  C   UNL     1      -7.547 -10.157  17.552  0.00  0.00    +0.062 A 
ATOM     21  C   UNL     1      -8.483 -11.013  18.110  0.00  0.00    +0.130 A 
ATOM     22  C   UNL     1      -7.983  -8.914  17.109  0.00  0.00    +0.016 A 
ATOM     24  C   UNL     1      -9.325  -8.569  17.236  0.00  0.00    +0.020 A 
ATOM     25  C   UNL     1     -10.182  -9.496  17.808  0.00  0.00    +0.113 A 
ATOM     28  H   UNL     1      -7.116 -12.345  18.947  0.00  0.00    +0.148 HD
BRANCH   7  23
ATOM     23  C   UNL     1      -8.953 -13.375  18.763  0.00  0.00    +0.131 C 
BRANCH  23  26
ATOM     26  C   UNL     1      -9.090 -13.676  20.246  0.00  0.00    +0.178 C 
BRANCH  26   3
ATOM      3  O   UNL     1     -10.241 -13.018  20.759  0.00  0.00    -0.381 OA
ATOM     27  C   UNL     1     -11.438 -13.579  20.237  0.00  0.00    +0.194 C 
ENDBRANCH  26   3
ENDBRANCH  23  26
ENDBRANCH   7  23
ENDBRANCH  16  18
BRANCH  14   9
ATOM      4  N   UNL     1      -3.191 -10.507  14.375  0.00  0.00    -0.287 NA
ATOM      9  C   UNL     1      -3.153 -11.251  15.650  0.00  0.00    +0.146 C 
ATOM     10  C   UNL     1      -1.818 -10.844  16.301  0.00  0.00    +0.030 C 
ATOM     11  C   UNL     1      -1.150  -9.919  15.294  0.00  0.00    +0.017 C 
ATOM     12  C   UNL     1      -1.799 -10.297  13.978  0.00  0.00    +0.085 C 
BRANCH   4  13
ATOM     13  C   UNL     1      -3.962 -11.182  13.339  0.00  0.00    +0.127 C 
BRANCH  13  15
ATOM      1  S   UNL     1      -5.903  -9.458  12.340  0.00  0.00    -0.100 S 
ATOM     15  C   UNL     1      -4.380 -10.235  12.246  0.00  0.00    +0.004 A 
ATOM     17  C   UNL     1      -3.686  -9.876  11.111  0.00  0.00    +0.012 A 
ATOM     19  C   UNL     1      -4.414  -8.950  10.309  0.00  0.00    +0.008 A 
ATOM     20  C   UNL     1      -5.637  -8.638  10.862  0.00  0.00    +0.045 A 
ENDBRANCH  13  15
ENDBRANCH   4  13
ENDBRANCH  14   9
TORSDOF 7
ENDMDL
MODEL 8
REMARK VINA RESULT:      -5.6     26.325     28.520
REMARK  Name = 45783393
REMARK  8 active torsions:
REMARK  status: ('A' for Active; 'I' for Inactive)
REMARK    1  A    between atoms: O_3  and  C_26
REMARK    2  A    between atoms: O_3  and  C_27
REMARK    3  A    between atoms: N_4  and  C_13
REMARK    4  A    between atoms: N_7  and  C_23
REMARK    5  A    between atoms: C_9  and  C_14
REMARK    6  A    between atoms: C_13  and  C_15
REMARK    7  A    between atoms: C_16  and  C_18
REMARK    8  A    between atoms: C_23  and  C_26
REMARK                            x       y       z     vdW  Elec       q    Type
REMARK                         _______ _______ _______ _____ _____    ______ ____
ROOT
ATOM      2  O   UNL     1      -5.697 -12.094  14.008  0.00  0.00    -0.336 OA
ATOM      5  N   UNL     1      -5.492 -10.290  15.320  0.00  0.00    -0.190 NA
ATOM      6  N   UNL     1      -6.999 -11.727  14.373  0.00  0.00    -0.056 NA
ATOM     14  C   UNL     1      -4.872 -11.197  14.608  0.00  0.00    +0.245 A 
ATOM     16  C   UNL     1      -6.795 -10.657  15.146  0.00  0.00    +0.205 A 
ENDROOT
BRANCH  16  18
ATOM      7  N   UNL     1      -6.881 -10.180  17.945  0.00  0.00    -0.326 N 
ATOM      8  N   UNL     1      -8.929  -9.013  17.729  0.00  0.00    -0.240 NA
ATOM     18  C   UNL     1      -7.870  -9.932  15.759  0.00  0.00    +0.062 A 
ATOM     21  C   UNL     1      -7.928  -9.691  17.123  0.00  0.00    +0.130 A 
ATOM     22  C   UNL     1      -8.904  -9.447  14.967  0.00  0.00    +0.016 A 
ATOM     24  C   UNL     1      -9.951  -8.744  15.555  0.00  0.00    +0.020 A 
ATOM     25  C   UNL     1      -9.917  -8.556  16.927  0.00  0.00    +0.113 A 
ATOM     28  H   UNL     1      -5.953 -10.209  17.538  0.00  0.00    +0.148 HD
BRANCH   7  23
ATOM     23  C   UNL     1      -7.029 -10.360  19.352  0.00  0.00    +0.131 C 
BRANCH  23  26
ATOM     26  C   UNL     1      -5.933 -11.272  19.877  0.00  0.00    +0.178 C 
BRANCH  26   3
ATOM      3  O   UNL     1      -4.795 -11.183  19.028  0.00  0.00    -0.381 OA
ATOM     27  C   UNL     1      -3.824 -12.167  19.354  0.00  0.00    +0.194 C 
ENDBRANCH  26   3
ENDBRANCH  23  26
ENDBRANCH   7  23
ENDBRANCH  16  18
BRANCH  14   9
ATOM      4  N   UNL     1      -2.868 -10.465  13.326  0.00  0.00    -0.287 NA
ATOM      9  C   UNL     1      -3.388 -11.377  14.364  0.00  0.00    +0.146 C 
ATOM     10  C   UNL     1      -2.540 -11.072  15.613  0.00  0.00    +0.030 C 
ATOM     11  C   UNL     1      -1.533 -10.023  15.163  0.00  0.00    +0.017 C 
ATOM     12  C   UNL     1      -1.467 -10.213  13.661  0.00  0.00    +0.085 C 
BRANCH   4  13
ATOM     13  C   UNL     1      -3.023 -10.987  11.974  0.00  0.00    +0.127 C 
BRANCH  13  15
ATOM      1  S   UNL     1      -5.325  -9.489  11.537  0.00  0.00    -0.100 S 
ATOM     15  C   UNL     1      -3.763 -10.025  11.083  0.00  0.00    +0.004 A 
ATOM     17  C   UNL     1      -3.356  -9.477   9.887  0.00  0.00    +0.012 A 
ATOM     19  C   UNL     1      -4.339  -8.605   9.336  0.00  0.00    +0.008 A 
ATOM     20  C   UNL     1      -5.460  -8.520  10.132  0.00  0.00    +0.045 A 
ENDBRANCH  13  15
ENDBRANCH   4  13
ENDBRANCH  14   9
TORSDOF 7
ENDMDL
MODEL 9
REMARK VINA RESULT:      -5.4     27.073     28.705
REMARK  Name = 45783393
REMARK  8 active torsions:
REMARK  status: ('A' for Active; 'I' for Inactive)
REMARK    1  A    between atoms: O_3  and  C_26
REMARK    2  A    between atoms: O_3  and  C_27
REMARK    3  A    between atoms: N_4  and  C_13
REMARK    4  A    between atoms: N_7  and  C_23
REMARK    5  A    between atoms: C_9  and  C_14
REMARK    6  A    between atoms: C_13  and  C_15
REMARK    7  A    between atoms: C_16  and  C_18
REMARK    8  A    between atoms: C_23  and  C_26
REMARK                            x       y       z     vdW  Elec       q    Type
REMARK                         _______ _______ _______ _____ _____    ______ ____
ROOT
ATOM      2  O   UNL     1      -2.222 -10.358  14.666  0.00  0.00    -0.336 OA
ATOM      5  N   UNL     1      -4.266 -11.254  14.853  0.00  0.00    -0.190 NA
ATOM      6  N   UNL     1      -2.533 -10.336  16.032  0.00  0.00    -0.056 NA
ATOM     14  C   UNL     1      -3.294 -10.913  14.044  0.00  0.00    +0.245 A 
ATOM     16  C   UNL     1      -3.753 -10.880  16.061  0.00  0.00    +0.205 A 
ENDROOT
BRANCH  16  18
ATOM      7  N   UNL     1      -6.455 -10.046  16.329  0.00  0.00    -0.326 N 
ATOM      8  N   UNL     1      -6.521 -10.821  18.565  0.00  0.00    -0.240 NA
ATOM     18  C   UNL     1      -4.486 -11.064  17.280  0.00  0.00    +0.062 A 
ATOM     21  C   UNL     1      -5.804 -10.662  17.428  0.00  0.00    +0.130 A 
ATOM     22  C   UNL     1      -3.863 -11.666  18.367  0.00  0.00    +0.016 A 
ATOM     24  C   UNL     1      -4.567 -11.847  19.552  0.00  0.00    +0.020 A 
ATOM     25  C   UNL     1      -5.881 -11.411  19.600  0.00  0.00    +0.113 A 
ATOM     28  H   UNL     1      -6.187 -10.358  15.403  0.00  0.00    +0.148 HD
BRANCH   7  23
ATOM     23  C   UNL     1      -7.621  -9.239  16.481  0.00  0.00    +0.131 C 
BRANCH  23  26
ATOM     26  C   UNL     1      -8.780  -9.851  15.711  0.00  0.00    +0.178 C 
BRANCH  26   3
ATOM      3  O   UNL     1      -9.713 -10.412  16.626  0.00  0.00    -0.381 OA
ATOM     27  C   UNL     1      -9.599 -11.826  16.685  0.00  0.00    +0.194 C 
ENDBRANCH  26   3
ENDBRANCH  23  26
ENDBRANCH   7  23
ENDBRANCH  16  18
BRANCH  14   9
ATOM      4  N   UNL     1      -4.251 -10.288  11.833  0.00  0.00    -0.287 NA
ATOM      9  C   UNL     1      -3.204 -11.053  12.539  0.00  0.00    +0.146 C 
ATOM     10  C   UNL     1      -1.877 -10.515  11.971  0.00  0.00    +0.030 C 
ATOM     11  C   UNL     1      -2.281  -9.499  10.913  0.00  0.00    +0.017 C 
ATOM     12  C   UNL     1      -3.688  -9.916  10.536  0.00  0.00    +0.085 C 
BRANCH   4  13
ATOM     13  C   UNL     1      -5.504 -11.021  11.698  0.00  0.00    +0.127 C 
BRANCH  13  15
ATOM      1  S   UNL     1      -6.920 -11.003   9.304  0.00  0.00    -0.100 S 
ATOM     15  C   UNL     1      -6.479 -10.303  10.803  0.00  0.00    +0.004 A 
ATOM     17  C   UNL     1      -7.109  -9.096  11.015  0.00  0.00    +0.012 A 
ATOM     19  C   UNL     1      -7.966  -8.742   9.933  0.00  0.00    +0.008 A 
ATOM     20  C   UNL     1      -7.957  -9.692   8.935  0.00  0.00    +0.045 A 
ENDBRANCH  13  15
ENDBRANCH   4  13
ENDBRANCH  14   9
TORSDOF 7
ENDMDL
MODEL 10
REMARK VINA RESULT:      -5.3     26.793     28.888
REMARK  Name = 45783393
REMARK  8 active torsions:
REMARK  status: ('A' for Active; 'I' for Inactive)
REMARK    1  A    between atoms: O_3  and  C_26
REMARK    2  A    between atoms: O_3  and  C_27
REMARK    3  A    between atoms: N_4  and  C_13
REMARK    4  A    between atoms: N_7  and  C_23
REMARK    5  A    between atoms: C_9  and  C_14
REMARK    6  A    between atoms: C_13  and  C_15
REMARK    7  A    between atoms: C_16  and  C_18
REMARK    8  A    between atoms: C_23  and  C_26
REMARK                            x       y       z     vdW  Elec       q    Type
REMARK                         _______ _______ _______ _____ _____    ______ ____
ROOT
ATOM      2  O   UNL     1      -2.090 -10.311  14.505  0.00  0.00    -0.336 OA
ATOM      5  N   UNL     1      -4.084 -11.331  14.497  0.00  0.00    -0.190 NA
ATOM      6  N   UNL     1      -2.476 -10.423  15.847  0.00  0.00    -0.056 NA
ATOM     14  C   UNL     1      -3.092 -10.869  13.777  0.00  0.00    +0.245 A 
ATOM     16  C   UNL     1      -3.661 -11.034  15.760  0.00  0.00    +0.205 A 
ENDROOT
BRANCH  16  18
ATOM      7  N   UNL     1      -4.267 -13.722  16.450  0.00  0.00    -0.326 N 
ATOM      8  N   UNL     1      -5.489 -13.007  18.347  0.00  0.00    -0.240 NA
ATOM     18  C   UNL     1      -4.446 -11.362  16.915  0.00  0.00    +0.062 A 
ATOM     21  C   UNL     1      -4.751 -12.667  17.266  0.00  0.00    +0.130 A 
ATOM     22  C   UNL     1      -4.928 -10.340  17.724  0.00  0.00    +0.016 A 
ATOM     24  C   UNL     1      -5.690 -10.650  18.845  0.00  0.00    +0.020 A 
ATOM     25  C   UNL     1      -5.940 -11.987  19.110  0.00  0.00    +0.113 A 
ATOM     28  H   UNL     1      -3.369 -13.581  16.002  0.00  0.00    +0.148 HD
BRANCH   7  23
ATOM     23  C   UNL     1      -4.841 -15.027  16.462  0.00  0.00    +0.131 C 
BRANCH  23  26
ATOM     26  C   UNL     1      -4.589 -15.717  15.131  0.00  0.00    +0.178 C 
BRANCH  26   3
ATOM      3  O   UNL     1      -4.492 -14.740  14.102  0.00  0.00    -0.381 OA
ATOM     27  C   UNL     1      -3.442 -15.042  13.194  0.00  0.00    +0.194 C 
ENDBRANCH  26   3
ENDBRANCH  23  26
ENDBRANCH   7  23
ENDBRANCH  16  18
BRANCH  14   9
ATOM      4  N   UNL     1      -3.954 -10.094  11.575  0.00  0.00    -0.287 NA
ATOM      9  C   UNL     1      -2.913 -10.874  12.274  0.00  0.00    +0.146 C 
ATOM     10  C   UNL     1      -1.583 -10.236  11.832  0.00  0.00    +0.030 C 
ATOM     11  C   UNL     1      -1.973  -9.149  10.841  0.00  0.00    +0.017 C 
ATOM     12  C   UNL     1      -3.337  -9.588  10.348  0.00  0.00    +0.085 C 
BRANCH   4  13
ATOM     13  C   UNL     1      -5.162 -10.862  11.305  0.00  0.00    +0.127 C 
BRANCH  13  15
ATOM      1  S   UNL     1      -6.420 -10.753   8.826  0.00  0.00    -0.100 S 
ATOM     15  C   UNL     1      -6.101 -10.125  10.387  0.00  0.00    +0.004 A 
ATOM     17  C   UNL     1      -6.785  -8.952  10.622  0.00  0.00    +0.012 A 
ATOM     19  C   UNL     1      -7.581  -8.564   9.505  0.00  0.00    +0.008 A 
ATOM     20  C   UNL     1      -7.475  -9.456   8.460  0.00  0.00    +0.045 A 
ENDBRANCH  13  15
ENDBRANCH   4  13
ENDBRANCH  14   9
TORSDOF 7
ENDMDL
