MODEL 1
REMARK VINA RESULT:      -7.0      0.000      0.000
REMARK  Name = 51138093
REMARK  11 active torsions:
REMARK  status: ('A' for Active; 'I' for Inactive)
REMARK    1  A    between atoms: N_3  and  C_20
REMARK    2  A    between atoms: N_4  and  C_25
REMARK    3  A    between atoms: N_5  and  C_29
REMARK    4  A    between atoms: C_7  and  C_13
REMARK    5  A    between atoms: C_9  and  C_18
REMARK    6  A    between atoms: C_13  and  C_15
REMARK    7  A    between atoms: C_15  and  C_22
REMARK    8  A    between atoms: C_15  and  C_23
REMARK    9  A    between atoms: C_20  and  C_24
REMARK   10  A    between atoms: C_25  and  C_26
REMARK   11  A    between atoms: C_25  and  C_27
REMARK                            x       y       z     vdW  Elec       q    Type
REMARK                         _______ _______ _______ _____ _____    ______ ____
ROOT
ATOM      2  N   UNL     1      -6.750 -10.833  16.153  0.00  0.00    -0.299 NA
ATOM      3  N   UNL     1      -3.925 -10.231  12.009  0.00  0.00    -0.339 N 
ATOM      7  C   UNL     1      -5.366 -10.701  16.629  0.00  0.00    +0.085 C 
ATOM      8  C   UNL     1      -4.284 -10.689  15.545  0.00  0.00    -0.021 A 
ATOM      9  C   UNL     1      -7.219  -9.725  15.334  0.00  0.00    +0.145 C 
ATOM     10  C   UNL     1      -4.513 -10.458  14.159  0.00  0.00    +0.008 A 
ATOM     11  C   UNL     1      -5.683 -10.174  13.372  0.00  0.00    -0.020 A 
ATOM     12  C   UNL     1      -7.092 -10.035  13.843  0.00  0.00    +0.065 C 
ATOM     14  C   UNL     1      -3.431 -10.460  13.270  0.00  0.00    +0.050 A 
ATOM     16  C   UNL     1      -5.276 -10.052  12.059  0.00  0.00    +0.091 A 
ATOM     17  C   UNL     1      -2.929 -10.842  15.938  0.00  0.00    +0.006 A 
ATOM     19  C   UNL     1      -2.108 -10.660  13.671  0.00  0.00    +0.026 A 
ATOM     21  C   UNL     1      -1.874 -10.839  15.028  0.00  0.00    +0.002 A 
ATOM     31  H   UNL     1      -6.888 -11.725  15.680  0.00  0.00    +0.123 HD
ENDROOT
BRANCH   9  18
ATOM      1  O   UNL     1      -9.301 -10.456  16.241  0.00  0.00    -0.274 OA
ATOM      4  N   UNL     1      -9.172  -8.341  15.278  0.00  0.00    -0.312 N 
ATOM     18  C   UNL     1      -8.668  -9.566  15.680  0.00  0.00    +0.231 C 
ATOM     32  H   UNL     1      -8.538  -7.653  14.880  0.00  0.00    +0.149 HD
BRANCH   4  25
ATOM     25  C   UNL     1     -10.549  -7.949  15.475  0.00  0.00    +0.067 C 
ATOM     26  C   UNL     1     -11.381  -8.307  14.251  0.00  0.00    +0.027 C 
ATOM     27  C   UNL     1     -10.641  -6.461  15.789  0.00  0.00    +0.027 C 
ENDBRANCH   4  25
ENDBRANCH   9  18
BRANCH   7  13
ATOM     13  C   UNL     1      -5.188 -11.856  17.630  0.00  0.00    +0.026 C 
BRANCH  13  15
ATOM     15  C   UNL     1      -4.759 -11.381  19.022  0.00  0.00    -0.015 C 
ATOM     22  C   UNL     1      -3.607 -12.256  19.521  0.00  0.00    +0.007 C 
ATOM     23  C   UNL     1      -5.906 -11.410  20.034  0.00  0.00    +0.007 C 
ENDBRANCH  13  15
ENDBRANCH   7  13
BRANCH   3  20
ATOM     20  C   UNL     1      -3.140 -10.165  10.794  0.00  0.00    +0.196 C 
BRANCH  20  24
ATOM      5  N   UNL     1      -4.355 -11.422   8.982  0.00  0.00    -0.336 N 
ATOM      6  N   UNL     1      -4.420  -9.207   8.850  0.00  0.00    -0.239 NA
ATOM     24  C   UNL     1      -3.974 -10.234   9.539  0.00  0.00    +0.129 A 
ATOM     28  C   UNL     1      -5.092 -11.135   7.868  0.00  0.00    +0.106 A 
ATOM     29  C   UNL     1      -4.047 -12.746   9.468  0.00  0.00    +0.150 C 
ATOM     30  C   UNL     1      -5.119  -9.761   7.808  0.00  0.00    +0.130 A 
ENDBRANCH  20  24
ENDBRANCH   3  20
TORSDOF 6
ENDMDL
MODEL 2
REMARK VINA RESULT:      -6.8     27.752     29.975
REMARK  Name = 51138093
REMARK  11 active torsions:
REMARK  status: ('A' for Active; 'I' for Inactive)
REMARK    1  A    between atoms: N_3  and  C_20
REMARK    2  A    between atoms: N_4  and  C_25
REMARK    3  A    between atoms: N_5  and  C_29
REMARK    4  A    between atoms: C_7  and  C_13
REMARK    5  A    between atoms: C_9  and  C_18
REMARK    6  A    between atoms: C_13  and  C_15
REMARK    7  A    between atoms: C_15  and  C_22
REMARK    8  A    between atoms: C_15  and  C_23
REMARK    9  A    between atoms: C_20  and  C_24
REMARK   10  A    between atoms: C_25  and  C_26
REMARK   11  A    between atoms: C_25  and  C_27
REMARK                            x       y       z     vdW  Elec       q    Type
REMARK                         _______ _______ _______ _____ _____    ______ ____
ROOT
ATOM      2  N   UNL     1      12.840   8.553  20.584  0.00  0.00    -0.299 NA
ATOM      3  N   UNL     1      17.781   9.115  21.464  0.00  0.00    -0.339 N 
ATOM      7  C   UNL     1      13.466   7.293  20.161  0.00  0.00    +0.085 C 
ATOM      8  C   UNL     1      14.998   7.275  20.157  0.00  0.00    -0.021 A 
ATOM      9  C   UNL     1      13.105   8.930  21.964  0.00  0.00    +0.145 C 
ATOM     10  C   UNL     1      15.831   8.216  20.825  0.00  0.00    +0.008 A 
ATOM     11  C   UNL     1      15.578   9.366  21.652  0.00  0.00    -0.020 A 
ATOM     12  C   UNL     1      14.258   9.927  22.063  0.00  0.00    +0.065 C 
ATOM     14  C   UNL     1      17.223   8.080  20.753  0.00  0.00    +0.050 A 
ATOM     16  C   UNL     1      16.803   9.891  22.013  0.00  0.00    +0.091 A 
ATOM     17  C   UNL     1      15.661   6.204  19.506  0.00  0.00    +0.006 A 
ATOM     19  C   UNL     1      17.858   7.044  20.067  0.00  0.00    +0.026 A 
ATOM     21  C   UNL     1      17.050   6.097  19.453  0.00  0.00    +0.002 A 
ATOM     31  H   UNL     1      13.076   9.309  19.943  0.00  0.00    +0.123 HD
ENDROOT
BRANCH   9  18
ATOM      1  O   UNL     1      10.736   9.168  22.125  0.00  0.00    -0.274 OA
ATOM      4  N   UNL     1      12.100  10.696  23.230  0.00  0.00    -0.312 N 
ATOM     18  C   UNL     1      11.846   9.588  22.441  0.00  0.00    +0.231 C 
ATOM     32  H   UNL     1      13.061  10.914  23.481  0.00  0.00    +0.149 HD
BRANCH   4  25
ATOM     25  C   UNL     1      11.056  11.520  23.797  0.00  0.00    +0.067 C 
ATOM     26  C   UNL     1      10.935  12.827  23.025  0.00  0.00    +0.027 C 
ATOM     27  C   UNL     1      11.320  11.774  25.276  0.00  0.00    +0.027 C 
ENDBRANCH   4  25
ENDBRANCH   9  18
BRANCH   7  13
ATOM     13  C   UNL     1      12.867   7.008  18.772  0.00  0.00    +0.026 C 
BRANCH  13  15
ATOM     15  C   UNL     1      12.900   8.226  17.846  0.00  0.00    -0.015 C 
ATOM     22  C   UNL     1      11.504   8.452  17.259  0.00  0.00    +0.007 C 
ATOM     23  C   UNL     1      13.918   8.079  16.713  0.00  0.00    +0.007 C 
ENDBRANCH  13  15
ENDBRANCH   7  13
BRANCH   3  20
ATOM     20  C   UNL     1      19.199   9.353  21.633  0.00  0.00    +0.196 C 
BRANCH  20  24
ATOM      5  N   UNL     1      20.267   9.303  23.913  0.00  0.00    -0.336 N 
ATOM      6  N   UNL     1      19.911   7.332  22.954  0.00  0.00    -0.239 NA
ATOM     24  C   UNL     1      19.788   8.634  22.821  0.00  0.00    +0.129 A 
ATOM     28  C   UNL     1      20.724   8.368  24.798  0.00  0.00    +0.106 A 
ATOM     29  C   UNL     1      20.293  10.732  24.111  0.00  0.00    +0.150 C 
ATOM     30  C   UNL     1      20.493   7.159  24.184  0.00  0.00    +0.130 A 
ENDBRANCH  20  24
ENDBRANCH   3  20
TORSDOF 6
ENDMDL
MODEL 3
REMARK VINA RESULT:      -6.8     28.613     31.093
REMARK  Name = 51138093
REMARK  11 active torsions:
REMARK  status: ('A' for Active; 'I' for Inactive)
REMARK    1  A    between atoms: N_3  and  C_20
REMARK    2  A    between atoms: N_4  and  C_25
REMARK    3  A    between atoms: N_5  and  C_29
REMARK    4  A    between atoms: C_7  and  C_13
REMARK    5  A    between atoms: C_9  and  C_18
REMARK    6  A    between atoms: C_13  and  C_15
REMARK    7  A    between atoms: C_15  and  C_22
REMARK    8  A    between atoms: C_15  and  C_23
REMARK    9  A    between atoms: C_20  and  C_24
REMARK   10  A    between atoms: C_25  and  C_26
REMARK   11  A    between atoms: C_25  and  C_27
REMARK                            x       y       z     vdW  Elec       q    Type
REMARK                         _______ _______ _______ _____ _____    ______ ____
ROOT
ATOM      2  N   UNL     1      19.004   8.774  22.415  0.00  0.00    -0.299 NA
ATOM      3  N   UNL     1      14.475   8.722  20.180  0.00  0.00    -0.339 N 
ATOM      7  C   UNL     1      19.103   7.780  21.338  0.00  0.00    +0.085 C 
ATOM      8  C   UNL     1      17.794   7.442  20.617  0.00  0.00    -0.021 A 
ATOM      9  C   UNL     1      18.598  10.103  21.982  0.00  0.00    +0.145 C 
ATOM     10  C   UNL     1      16.604   8.223  20.666  0.00  0.00    +0.008 A 
ATOM     11  C   UNL     1      16.245   9.458  21.310  0.00  0.00    -0.020 A 
ATOM     12  C   UNL     1      17.099  10.324  22.175  0.00  0.00    +0.065 C 
ATOM     14  C   UNL     1      15.476   7.809  19.949  0.00  0.00    +0.050 A 
ATOM     16  C   UNL     1      14.928   9.720  20.991  0.00  0.00    +0.091 A 
ATOM     17  C   UNL     1      17.762   6.307  19.767  0.00  0.00    +0.006 A 
ATOM     19  C   UNL     1      15.450   6.661  19.154  0.00  0.00    +0.026 A 
ATOM     21  C   UNL     1      16.622   5.921  19.065  0.00  0.00    +0.002 A 
ATOM     31  H   UNL     1      18.408   8.434  23.170  0.00  0.00    +0.123 HD
ENDROOT
BRANCH   9  18
ATOM      1  O   UNL     1      18.796  11.992  23.427  0.00  0.00    -0.274 OA
ATOM      4  N   UNL     1      20.699  10.744  22.935  0.00  0.00    -0.312 N 
ATOM     18  C   UNL     1      19.351  11.051  22.865  0.00  0.00    +0.231 C 
ATOM     32  H   UNL     1      21.037   9.901  22.479  0.00  0.00    +0.149 HD
BRANCH   4  25
ATOM     25  C   UNL     1      21.647  11.519  23.703  0.00  0.00    +0.067 C 
ATOM     26  C   UNL     1      22.309  12.570  22.822  0.00  0.00    +0.027 C 
ATOM     27  C   UNL     1      22.684  10.607  24.348  0.00  0.00    +0.027 C 
ENDBRANCH   4  25
ENDBRANCH   9  18
BRANCH   7  13
ATOM     13  C   UNL     1      19.748   6.550  22.000  0.00  0.00    +0.026 C 
BRANCH  13  15
ATOM     15  C   UNL     1      21.091   6.167  21.371  0.00  0.00    -0.015 C 
ATOM     22  C   UNL     1      21.559   7.301  20.455  0.00  0.00    +0.007 C 
ATOM     23  C   UNL     1      21.020   4.860  20.581  0.00  0.00    +0.007 C 
ENDBRANCH  13  15
ENDBRANCH   7  13
BRANCH   3  20
ATOM     20  C   UNL     1      13.136   8.661  19.633  0.00  0.00    +0.196 C 
BRANCH  20  24
ATOM      5  N   UNL     1      11.376   8.608  21.433  0.00  0.00    -0.336 N 
ATOM      6  N   UNL     1      11.939   6.648  20.555  0.00  0.00    -0.239 NA
ATOM     24  C   UNL     1      12.157   7.944  20.529  0.00  0.00    +0.129 A 
ATOM     28  C   UNL     1      10.611   7.677  22.077  0.00  0.00    +0.106 A 
ATOM     29  C   UNL     1      11.351  10.031  21.677  0.00  0.00    +0.150 C 
ATOM     30  C   UNL     1      10.976   6.474  21.517  0.00  0.00    +0.130 A 
ENDBRANCH  20  24
ENDBRANCH   3  20
TORSDOF 6
ENDMDL
MODEL 4
REMARK VINA RESULT:      -6.8      1.505      2.184
REMARK  Name = 51138093
REMARK  11 active torsions:
REMARK  status: ('A' for Active; 'I' for Inactive)
REMARK    1  A    between atoms: N_3  and  C_20
REMARK    2  A    between atoms: N_4  and  C_25
REMARK    3  A    between atoms: N_5  and  C_29
REMARK    4  A    between atoms: C_7  and  C_13
REMARK    5  A    between atoms: C_9  and  C_18
REMARK    6  A    between atoms: C_13  and  C_15
REMARK    7  A    between atoms: C_15  and  C_22
REMARK    8  A    between atoms: C_15  and  C_23
REMARK    9  A    between atoms: C_20  and  C_24
REMARK   10  A    between atoms: C_25  and  C_26
REMARK   11  A    between atoms: C_25  and  C_27
REMARK                            x       y       z     vdW  Elec       q    Type
REMARK                         _______ _______ _______ _____ _____    ______ ____
ROOT
ATOM      2  N   UNL     1      -6.847 -10.970  16.672  0.00  0.00    -0.299 NA
ATOM      3  N   UNL     1      -3.827 -10.351  12.671  0.00  0.00    -0.339 N 
ATOM      7  C   UNL     1      -5.491 -10.819  17.216  0.00  0.00    +0.085 C 
ATOM      8  C   UNL     1      -4.356 -10.799  16.187  0.00  0.00    -0.021 A 
ATOM      9  C   UNL     1      -7.288  -9.871  15.826  0.00  0.00    +0.145 C 
ATOM     10  C   UNL     1      -4.518 -10.576  14.791  0.00  0.00    +0.008 A 
ATOM     11  C   UNL     1      -5.652 -10.309  13.945  0.00  0.00    -0.020 A 
ATOM     12  C   UNL     1      -7.084 -10.186  14.345  0.00  0.00    +0.065 C 
ATOM     14  C   UNL     1      -3.394 -10.569  13.957  0.00  0.00    +0.050 A 
ATOM     16  C   UNL     1      -5.181 -10.187  12.653  0.00  0.00    +0.091 A 
ATOM     17  C   UNL     1      -3.021 -10.934  16.648  0.00  0.00    +0.006 A 
ATOM     19  C   UNL     1      -2.090 -10.751  14.424  0.00  0.00    +0.026 A 
ATOM     21  C   UNL     1      -1.922 -10.922  15.791  0.00  0.00    +0.002 A 
ATOM     31  H   UNL     1      -6.951 -11.866  16.197  0.00  0.00    +0.123 HD
ENDROOT
BRANCH   9  18
ATOM      1  O   UNL     1      -9.503  -9.139  15.323  0.00  0.00    -0.274 OA
ATOM      4  N   UNL     1      -9.123 -10.306  17.301  0.00  0.00    -0.312 N 
ATOM     18  C   UNL     1      -8.754  -9.728  16.099  0.00  0.00    +0.231 C 
ATOM     32  H   UNL     1      -8.429 -10.825  17.832  0.00  0.00    +0.149 HD
BRANCH   4  25
ATOM     25  C   UNL     1     -10.477 -10.287  17.806  0.00  0.00    +0.067 C 
ATOM     26  C   UNL     1     -10.473 -10.202  19.327  0.00  0.00    +0.027 C 
ATOM     27  C   UNL     1     -11.245 -11.511  17.323  0.00  0.00    +0.027 C 
ENDBRANCH   4  25
ENDBRANCH   9  18
BRANCH   7  13
ATOM     13  C   UNL     1      -5.349 -11.968  18.230  0.00  0.00    +0.026 C 
BRANCH  13  15
ATOM     15  C   UNL     1      -5.995 -11.656  19.583  0.00  0.00    -0.015 C 
ATOM     22  C   UNL     1      -7.326 -12.406  19.691  0.00  0.00    +0.007 C 
ATOM     23  C   UNL     1      -6.229 -10.159  19.793  0.00  0.00    +0.007 C 
ENDBRANCH  13  15
ENDBRANCH   7  13
BRANCH   3  20
ATOM     20  C   UNL     1      -2.984 -10.280  11.497  0.00  0.00    +0.196 C 
BRANCH  20  24
ATOM      5  N   UNL     1      -4.125 -10.282   9.253  0.00  0.00    -0.336 N 
ATOM      6  N   UNL     1      -3.632 -12.273  10.103  0.00  0.00    -0.239 NA
ATOM     24  C   UNL     1      -3.574 -10.974  10.295  0.00  0.00    +0.129 A 
ATOM     28  C   UNL     1      -4.561 -11.198   8.338  0.00  0.00    +0.106 A 
ATOM     29  C   UNL     1      -4.232  -8.848   9.124  0.00  0.00    +0.150 C 
ATOM     30  C   UNL     1      -4.246 -12.420   8.885  0.00  0.00    +0.130 A 
ENDBRANCH  20  24
ENDBRANCH   3  20
TORSDOF 6
ENDMDL
MODEL 5
REMARK VINA RESULT:      -6.7     29.845     31.703
REMARK  Name = 51138093
REMARK  11 active torsions:
REMARK  status: ('A' for Active; 'I' for Inactive)
REMARK    1  A    between atoms: N_3  and  C_20
REMARK    2  A    between atoms: N_4  and  C_25
REMARK    3  A    between atoms: N_5  and  C_29
REMARK    4  A    between atoms: C_7  and  C_13
REMARK    5  A    between atoms: C_9  and  C_18
REMARK    6  A    between atoms: C_13  and  C_15
REMARK    7  A    between atoms: C_15  and  C_22
REMARK    8  A    between atoms: C_15  and  C_23
REMARK    9  A    between atoms: C_20  and  C_24
REMARK   10  A    between atoms: C_25  and  C_26
REMARK   11  A    between atoms: C_25  and  C_27
REMARK                            x       y       z     vdW  Elec       q    Type
REMARK                         _______ _______ _______ _____ _____    ______ ____
ROOT
ATOM      2  N   UNL     1      -1.793  12.297  34.492  0.00  0.00    -0.299 NA
ATOM      3  N   UNL     1      -1.450   8.286  37.542  0.00  0.00    -0.339 N 
ATOM      7  C   UNL     1      -3.050  12.267  35.254  0.00  0.00    +0.085 C 
ATOM      8  C   UNL     1      -3.273  11.028  36.128  0.00  0.00    -0.021 A 
ATOM      9  C   UNL     1      -0.589  12.338  35.308  0.00  0.00    +0.145 C 
ATOM     10  C   UNL     1      -2.260  10.106  36.517  0.00  0.00    +0.008 A 
ATOM     11  C   UNL     1      -0.844  10.015  36.279  0.00  0.00    -0.020 A 
ATOM     12  C   UNL     1       0.014  10.947  35.491  0.00  0.00    +0.065 C 
ATOM     14  C   UNL     1      -2.594   9.017  37.332  0.00  0.00    +0.050 A 
ATOM     16  C   UNL     1      -0.392   8.879  36.919  0.00  0.00    +0.091 A 
ATOM     17  C   UNL     1      -4.565  10.803  36.666  0.00  0.00    +0.006 A 
ATOM     19  C   UNL     1      -3.884   8.786  37.814  0.00  0.00    +0.026 A 
ATOM     21  C   UNL     1      -4.865   9.709  37.476  0.00  0.00    +0.002 A 
ATOM     31  H   UNL     1      -1.757  11.532  33.820  0.00  0.00    +0.123 HD
ENDROOT
BRANCH   9  18
ATOM      1  O   UNL     1       0.996  14.108  35.080  0.00  0.00    -0.274 OA
ATOM      4  N   UNL     1       0.446  12.838  33.208  0.00  0.00    -0.312 N 
ATOM     18  C   UNL     1       0.375  13.194  34.543  0.00  0.00    +0.231 C 
ATOM     32  H   UNL     1      -0.065  12.020  32.887  0.00  0.00    +0.149 HD
BRANCH   4  25
ATOM     25  C   UNL     1       1.286  13.522  32.251  0.00  0.00    +0.067 C 
ATOM     26  C   UNL     1       0.623  14.814  31.794  0.00  0.00    +0.027 C 
ATOM     27  C   UNL     1       1.598  12.613  31.068  0.00  0.00    +0.027 C 
ENDBRANCH   4  25
ENDBRANCH   9  18
BRANCH   7  13
ATOM     13  C   UNL     1      -4.151  12.449  34.195  0.00  0.00    +0.026 C 
BRANCH  13  15
ATOM     15  C   UNL     1      -3.938  13.685  33.317  0.00  0.00    -0.015 C 
ATOM     22  C   UNL     1      -4.950  14.765  33.711  0.00  0.00    +0.007 C 
ATOM     23  C   UNL     1      -4.066  13.378  31.824  0.00  0.00    +0.007 C 
ENDBRANCH  13  15
ENDBRANCH   7  13
BRANCH   3  20
ATOM     20  C   UNL     1      -1.358   7.071  38.324  0.00  0.00    +0.196 C 
BRANCH  20  24
ATOM      5  N   UNL     1       0.232   6.222  40.082  0.00  0.00    -0.336 N 
ATOM      6  N   UNL     1      -0.476   8.312  40.328  0.00  0.00    -0.239 NA
ATOM     24  C   UNL     1      -0.543   7.231  39.583  0.00  0.00    +0.129 A 
ATOM     28  C   UNL     1       0.832   6.689  41.218  0.00  0.00    +0.106 A 
ATOM     29  C   UNL     1       0.399   4.901  39.526  0.00  0.00    +0.150 C 
ATOM     30  C   UNL     1       0.380   7.982  41.348  0.00  0.00    +0.130 A 
ENDBRANCH  20  24
ENDBRANCH   3  20
TORSDOF 6
ENDMDL
MODEL 6
REMARK VINA RESULT:      -6.6     28.237     30.834
REMARK  Name = 51138093
REMARK  11 active torsions:
REMARK  status: ('A' for Active; 'I' for Inactive)
REMARK    1  A    between atoms: N_3  and  C_20
REMARK    2  A    between atoms: N_4  and  C_25
REMARK    3  A    between atoms: N_5  and  C_29
REMARK    4  A    between atoms: C_7  and  C_13
REMARK    5  A    between atoms: C_9  and  C_18
REMARK    6  A    between atoms: C_13  and  C_15
REMARK    7  A    between atoms: C_15  and  C_22
REMARK    8  A    between atoms: C_15  and  C_23
REMARK    9  A    between atoms: C_20  and  C_24
REMARK   10  A    between atoms: C_25  and  C_26
REMARK   11  A    between atoms: C_25  and  C_27
REMARK                            x       y       z     vdW  Elec       q    Type
REMARK                         _______ _______ _______ _____ _____    ______ ____
ROOT
ATOM      2  N   UNL     1      19.438   8.390  21.247  0.00  0.00    -0.299 NA
ATOM      3  N   UNL     1      14.646   7.885  19.732  0.00  0.00    -0.339 N 
ATOM      7  C   UNL     1      18.811   9.701  21.465  0.00  0.00    +0.085 C 
ATOM      8  C   UNL     1      17.392   9.864  20.911  0.00  0.00    -0.021 A 
ATOM      9  C   UNL     1      18.773   7.280  21.914  0.00  0.00    +0.145 C 
ATOM     10  C   UNL     1      16.534   8.795  20.524  0.00  0.00    +0.008 A 
ATOM     11  C   UNL     1      16.659   7.362  20.525  0.00  0.00    -0.020 A 
ATOM     12  C   UNL     1      17.825   6.544  20.969  0.00  0.00    +0.065 C 
ATOM     14  C   UNL     1      15.250   9.079  20.044  0.00  0.00    +0.050 A 
ATOM     16  C   UNL     1      15.481   6.847  20.022  0.00  0.00    +0.091 A 
ATOM     17  C   UNL     1      16.838  11.168  20.839  0.00  0.00    +0.006 A 
ATOM     19  C   UNL     1      14.739  10.375  19.936  0.00  0.00    +0.026 A 
ATOM     21  C   UNL     1      15.555  11.418  20.356  0.00  0.00    +0.002 A 
ATOM     31  H   UNL     1      19.557   8.205  20.252  0.00  0.00    +0.123 HD
ENDROOT
BRANCH   9  18
ATOM      1  O   UNL     1      20.138   6.142  23.506  0.00  0.00    -0.274 OA
ATOM      4  N   UNL     1      20.535   5.808  21.237  0.00  0.00    -0.312 N 
ATOM     18  C   UNL     1      19.875   6.352  22.325  0.00  0.00    +0.231 C 
ATOM     32  H   UNL     1      20.188   6.002  20.302  0.00  0.00    +0.149 HD
BRANCH   4  25
ATOM     25  C   UNL     1      21.651   4.897  21.363  0.00  0.00    +0.067 C 
ATOM     26  C   UNL     1      22.793   5.332  20.455  0.00  0.00    +0.027 C 
ATOM     27  C   UNL     1      21.214   3.470  21.056  0.00  0.00    +0.027 C 
ENDBRANCH   4  25
ENDBRANCH   9  18
BRANCH   7  13
ATOM     13  C   UNL     1      19.801  10.712  20.859  0.00  0.00    +0.026 C 
BRANCH  13  15
ATOM     15  C   UNL     1      20.360  11.694  21.893  0.00  0.00    -0.015 C 
ATOM     22  C   UNL     1      19.992  11.211  23.298  0.00  0.00    +0.007 C 
ATOM     23  C   UNL     1      19.848  13.120  21.687  0.00  0.00    +0.007 C 
ENDBRANCH  13  15
ENDBRANCH   7  13
BRANCH   3  20
ATOM     20  C   UNL     1      13.312   7.730  19.192  0.00  0.00    +0.196 C 
BRANCH  20  24
ATOM      5  N   UNL     1      11.551   8.250  20.916  0.00  0.00    -0.336 N 
ATOM      6  N   UNL     1      11.996   6.099  20.587  0.00  0.00    -0.239 NA
ATOM     24  C   UNL     1      12.292   7.329  20.228  0.00  0.00    +0.129 A 
ATOM     28  C   UNL     1      10.732   7.564  21.767  0.00  0.00    +0.106 A 
ATOM     29  C   UNL     1      11.611   9.686  20.780  0.00  0.00    +0.150 C 
ATOM     30  C   UNL     1      11.024   6.238  21.545  0.00  0.00    +0.130 A 
ENDBRANCH  20  24
ENDBRANCH   3  20
TORSDOF 6
ENDMDL
MODEL 7
REMARK VINA RESULT:      -6.6     20.304     25.137
REMARK  Name = 51138093
REMARK  11 active torsions:
REMARK  status: ('A' for Active; 'I' for Inactive)
REMARK    1  A    between atoms: N_3  and  C_20
REMARK    2  A    between atoms: N_4  and  C_25
REMARK    3  A    between atoms: N_5  and  C_29
REMARK    4  A    between atoms: C_7  and  C_13
REMARK    5  A    between atoms: C_9  and  C_18
REMARK    6  A    between atoms: C_13  and  C_15
REMARK    7  A    between atoms: C_15  and  C_22
REMARK    8  A    between atoms: C_15  and  C_23
REMARK    9  A    between atoms: C_20  and  C_24
REMARK   10  A    between atoms: C_25  and  C_26
REMARK   11  A    between atoms: C_25  and  C_27
REMARK                            x       y       z     vdW  Elec       q    Type
REMARK                         _______ _______ _______ _____ _____    ______ ____
ROOT
ATOM      2  N   UNL     1     -15.083   2.793  28.917  0.00  0.00    -0.299 NA
ATOM      3  N   UNL     1     -16.009   6.445  32.281  0.00  0.00    -0.339 N 
ATOM      7  C   UNL     1     -14.959   2.159  30.237  0.00  0.00    +0.085 C 
ATOM      8  C   UNL     1     -15.016   3.105  31.441  0.00  0.00    -0.021 A 
ATOM      9  C   UNL     1     -16.362   3.443  28.672  0.00  0.00    +0.145 C 
ATOM     10  C   UNL     1     -15.502   4.443  31.411  0.00  0.00    +0.008 A 
ATOM     11  C   UNL     1     -16.058   5.284  30.384  0.00  0.00    -0.020 A 
ATOM     12  C   UNL     1     -16.291   4.944  28.950  0.00  0.00    +0.065 C 
ATOM     14  C   UNL     1     -15.513   5.201  32.589  0.00  0.00    +0.050 A 
ATOM     16  C   UNL     1     -16.345   6.504  30.961  0.00  0.00    +0.091 A 
ATOM     17  C   UNL     1     -14.631   2.608  32.713  0.00  0.00    +0.006 A 
ATOM     19  C   UNL     1     -15.085   4.708  33.823  0.00  0.00    +0.026 A 
ATOM     21  C   UNL     1     -14.654   3.389  33.867  0.00  0.00    +0.002 A 
ATOM     31  H   UNL     1     -14.306   3.430  28.746  0.00  0.00    +0.123 HD
ENDROOT
BRANCH   9  18
ATOM      1  O   UNL     1     -17.034   2.145  26.787  0.00  0.00    -0.274 OA
ATOM      4  N   UNL     1     -16.385   4.356  26.459  0.00  0.00    -0.312 N 
ATOM     18  C   UNL     1     -16.641   3.226  27.217  0.00  0.00    +0.231 C 
ATOM     32  H   UNL     1     -16.125   5.218  26.931  0.00  0.00    +0.149 HD
BRANCH   4  25
ATOM     25  C   UNL     1     -16.554   4.402  25.024  0.00  0.00    +0.067 C 
ATOM     26  C   UNL     1     -15.233   4.101  24.327  0.00  0.00    +0.027 C 
ATOM     27  C   UNL     1     -17.110   5.753  24.595  0.00  0.00    +0.027 C 
ENDBRANCH   4  25
ENDBRANCH   9  18
BRANCH   7  13
ATOM     13  C   UNL     1     -13.640   1.370  30.168  0.00  0.00    +0.026 C 
BRANCH  13  15
ATOM     15  C   UNL     1     -13.820  -0.121  30.467  0.00  0.00    -0.015 C 
ATOM     22  C   UNL     1     -13.369  -0.937  29.251  0.00  0.00    +0.007 C 
ATOM     23  C   UNL     1     -15.262  -0.482  30.824  0.00  0.00    +0.007 C 
ENDBRANCH  13  15
ENDBRANCH   7  13
BRANCH   3  20
ATOM     20  C   UNL     1     -16.177   7.539  33.213  0.00  0.00    +0.196 C 
BRANCH  20  24
ATOM      5  N   UNL     1     -14.821   9.577  32.622  0.00  0.00    -0.336 N 
ATOM      6  N   UNL     1     -13.912   8.189  34.098  0.00  0.00    -0.239 NA
ATOM     24  C   UNL     1     -14.956   8.417  33.332  0.00  0.00    +0.129 A 
ATOM     28  C   UNL     1     -13.615  10.124  32.956  0.00  0.00    +0.106 A 
ATOM     29  C   UNL     1     -15.768  10.136  31.687  0.00  0.00    +0.150 C 
ATOM     30  C   UNL     1     -13.072   9.250  33.869  0.00  0.00    +0.130 A 
ENDBRANCH  20  24
ENDBRANCH   3  20
TORSDOF 6
ENDMDL
MODEL 8
REMARK VINA RESULT:      -6.6      2.119      7.075
REMARK  Name = 51138093
REMARK  11 active torsions:
REMARK  status: ('A' for Active; 'I' for Inactive)
REMARK    1  A    between atoms: N_3  and  C_20
REMARK    2  A    between atoms: N_4  and  C_25
REMARK    3  A    between atoms: N_5  and  C_29
REMARK    4  A    between atoms: C_7  and  C_13
REMARK    5  A    between atoms: C_9  and  C_18
REMARK    6  A    between atoms: C_13  and  C_15
REMARK    7  A    between atoms: C_15  and  C_22
REMARK    8  A    between atoms: C_15  and  C_23
REMARK    9  A    between atoms: C_20  and  C_24
REMARK   10  A    between atoms: C_25  and  C_26
REMARK   11  A    between atoms: C_25  and  C_27
REMARK                            x       y       z     vdW  Elec       q    Type
REMARK                         _______ _______ _______ _____ _____    ______ ____
ROOT
ATOM      2  N   UNL     1      -4.572 -10.573  14.550  0.00  0.00    -0.299 NA
ATOM      3  N   UNL     1      -8.845  -9.632  17.073  0.00  0.00    -0.339 N 
ATOM      7  C   UNL     1      -4.400 -11.195  15.870  0.00  0.00    +0.085 C 
ATOM      8  C   UNL     1      -5.495 -10.893  16.899  0.00  0.00    -0.021 A 
ATOM      9  C   UNL     1      -5.745 -11.022  13.815  0.00  0.00    +0.145 C 
ATOM     10  C   UNL     1      -6.784 -10.369  16.596  0.00  0.00    +0.008 A 
ATOM     11  C   UNL     1      -7.450  -9.993  15.377  0.00  0.00    -0.020 A 
ATOM     12  C   UNL     1      -6.918 -10.058  13.985  0.00  0.00    +0.065 C 
ATOM     14  C   UNL     1      -7.701 -10.151  17.631  0.00  0.00    +0.050 A 
ATOM     16  C   UNL     1      -8.707  -9.539  15.720  0.00  0.00    +0.091 A 
ATOM     17  C   UNL     1      -5.258 -11.226  18.257  0.00  0.00    +0.006 A 
ATOM     19  C   UNL     1      -7.432 -10.441  18.970  0.00  0.00    +0.026 A 
ATOM     21  C   UNL     1      -6.194 -10.997  19.264  0.00  0.00    +0.002 A 
ATOM     31  H   UNL     1      -4.548  -9.556  14.620  0.00  0.00    +0.123 HD
ENDROOT
BRANCH   9  18
ATOM      1  O   UNL     1      -5.289 -12.075  11.722  0.00  0.00    -0.274 OA
ATOM      4  N   UNL     1      -4.984  -9.775  11.918  0.00  0.00    -0.312 N 
ATOM     18  C   UNL     1      -5.327 -11.035  12.376  0.00  0.00    +0.231 C 
ATOM     32  H   UNL     1      -5.116  -8.975  12.530  0.00  0.00    +0.149 HD
BRANCH   4  25
ATOM     25  C   UNL     1      -4.526  -9.521  10.571  0.00  0.00    +0.067 C 
ATOM     26  C   UNL     1      -3.003  -9.511  10.524  0.00  0.00    +0.027 C 
ATOM     27  C   UNL     1      -5.103  -8.212  10.048  0.00  0.00    +0.027 C 
ENDBRANCH   4  25
ENDBRANCH   9  18
BRANCH   7  13
ATOM     13  C   UNL     1      -3.007 -10.736  16.337  0.00  0.00    +0.026 C 
BRANCH  13  15
ATOM     15  C   UNL     1      -2.008 -10.592  15.187  0.00  0.00    -0.015 C 
ATOM     22  C   UNL     1      -1.660 -11.982  14.645  0.00  0.00    +0.007 C 
ATOM     23  C   UNL     1      -0.728  -9.866  15.604  0.00  0.00    +0.007 C 
ENDBRANCH  13  15
ENDBRANCH   7  13
BRANCH   3  20
ATOM     20  C   UNL     1     -10.039  -9.254  17.798  0.00  0.00    +0.196 C 
BRANCH  20  24
ATOM      5  N   UNL     1     -12.063  -8.498  16.505  0.00  0.00    -0.336 N 
ATOM      6  N   UNL     1     -10.545  -6.939  16.948  0.00  0.00    -0.239 NA
ATOM     24  C   UNL     1     -10.862  -8.208  17.089  0.00  0.00    +0.129 A 
ATOM     28  C   UNL     1     -12.543  -7.343  15.957  0.00  0.00    +0.106 A 
ATOM     29  C   UNL     1     -12.720  -9.783  16.466  0.00  0.00    +0.150 C 
ATOM     30  C   UNL     1     -11.589  -6.394  16.243  0.00  0.00    +0.130 A 
ENDBRANCH  20  24
ENDBRANCH   3  20
TORSDOF 6
ENDMDL
MODEL 9
REMARK VINA RESULT:      -6.5      2.553      4.060
REMARK  Name = 51138093
REMARK  11 active torsions:
REMARK  status: ('A' for Active; 'I' for Inactive)
REMARK    1  A    between atoms: N_3  and  C_20
REMARK    2  A    between atoms: N_4  and  C_25
REMARK    3  A    between atoms: N_5  and  C_29
REMARK    4  A    between atoms: C_7  and  C_13
REMARK    5  A    between atoms: C_9  and  C_18
REMARK    6  A    between atoms: C_13  and  C_15
REMARK    7  A    between atoms: C_15  and  C_22
REMARK    8  A    between atoms: C_15  and  C_23
REMARK    9  A    between atoms: C_20  and  C_24
REMARK   10  A    between atoms: C_25  and  C_26
REMARK   11  A    between atoms: C_25  and  C_27
REMARK                            x       y       z     vdW  Elec       q    Type
REMARK                         _______ _______ _______ _____ _____    ______ ____
ROOT
ATOM      2  N   UNL     1      -8.587 -10.328  17.607  0.00  0.00    -0.299 NA
ATOM      3  N   UNL     1      -3.780 -10.892  16.162  0.00  0.00    -0.339 N 
ATOM      7  C   UNL     1      -7.829 -10.594  18.838  0.00  0.00    +0.085 C 
ATOM      8  C   UNL     1      -6.360 -10.985  18.648  0.00  0.00    -0.021 A 
ATOM      9  C   UNL     1      -8.115  -9.186  16.838  0.00  0.00    +0.145 C 
ATOM     10  C   UNL     1      -5.606 -10.787  17.457  0.00  0.00    +0.008 A 
ATOM     11  C   UNL     1      -5.899 -10.211  16.171  0.00  0.00    -0.020 A 
ATOM     12  C   UNL     1      -7.185  -9.617  15.705  0.00  0.00    +0.065 C 
ATOM     14  C   UNL     1      -4.262 -11.178  17.417  0.00  0.00    +0.050 A 
ATOM     16  C   UNL     1      -4.753 -10.306  15.408  0.00  0.00    +0.091 A 
ATOM     17  C   UNL     1      -5.652 -11.519  19.755  0.00  0.00    +0.006 A 
ATOM     19  C   UNL     1      -3.595 -11.746  18.504  0.00  0.00    +0.026 A 
ATOM     21  C   UNL     1      -4.313 -11.898  19.683  0.00  0.00    +0.002 A 
ATOM     31  H   UNL     1      -8.645 -11.165  17.027  0.00  0.00    +0.123 HD
ENDROOT
BRANCH   9  18
ATOM      1  O   UNL     1      -9.724  -8.830  15.112  0.00  0.00    -0.274 OA
ATOM      4  N   UNL     1      -9.962  -7.691  17.129  0.00  0.00    -0.312 N 
ATOM     18  C   UNL     1      -9.348  -8.570  16.252  0.00  0.00    +0.231 C 
ATOM     32  H   UNL     1      -9.599  -7.603  18.074  0.00  0.00    +0.149 HD
BRANCH   4  25
ATOM     25  C   UNL     1     -11.158  -6.949  16.797  0.00  0.00    +0.067 C 
ATOM     26  C   UNL     1     -12.294  -7.904  16.456  0.00  0.00    +0.027 C 
ATOM     27  C   UNL     1     -10.886  -5.982  15.652  0.00  0.00    +0.027 C 
ENDBRANCH   4  25
ENDBRANCH   9  18
BRANCH   7  13
ATOM     13  C   UNL     1      -8.641 -11.680  19.567  0.00  0.00    +0.026 C 
BRANCH  13  15
ATOM     15  C   UNL     1      -9.336 -12.651  18.608  0.00  0.00    -0.015 C 
ATOM     22  C   UNL     1     -10.726 -12.989  19.153  0.00  0.00    +0.007 C 
ATOM     23  C   UNL     1      -8.540 -13.939  18.393  0.00  0.00    +0.007 C 
ENDBRANCH  13  15
ENDBRANCH   7  13
BRANCH   3  20
ATOM     20  C   UNL     1      -2.434 -11.150  15.697  0.00  0.00    +0.196 C 
BRANCH  20  24
ATOM      5  N   UNL     1      -2.615 -12.508  13.585  0.00  0.00    -0.336 N 
ATOM      6  N   UNL     1      -1.997 -10.390  13.338  0.00  0.00    -0.239 NA
ATOM     24  C   UNL     1      -2.340 -11.320  14.202  0.00  0.00    +0.129 A 
ATOM     28  C   UNL     1      -2.437 -12.325  12.243  0.00  0.00    +0.106 A 
ATOM     29  C   UNL     1      -3.021 -13.740  14.219  0.00  0.00    +0.150 C 
ATOM     30  C   UNL     1      -2.056 -11.009  12.115  0.00  0.00    +0.130 A 
ENDBRANCH  20  24
ENDBRANCH   3  20
TORSDOF 6
ENDMDL
MODEL 10
REMARK VINA RESULT:      -6.4     24.949     28.383
REMARK  Name = 51138093
REMARK  11 active torsions:
REMARK  status: ('A' for Active; 'I' for Inactive)
REMARK    1  A    between atoms: N_3  and  C_20
REMARK    2  A    between atoms: N_4  and  C_25
REMARK    3  A    between atoms: N_5  and  C_29
REMARK    4  A    between atoms: C_7  and  C_13
REMARK    5  A    between atoms: C_9  and  C_18
REMARK    6  A    between atoms: C_13  and  C_15
REMARK    7  A    between atoms: C_15  and  C_22
REMARK    8  A    between atoms: C_15  and  C_23
REMARK    9  A    between atoms: C_20  and  C_24
REMARK   10  A    between atoms: C_25  and  C_26
REMARK   11  A    between atoms: C_25  and  C_27
REMARK                            x       y       z     vdW  Elec       q    Type
REMARK                         _______ _______ _______ _____ _____    ______ ____
ROOT
ATOM      2  N   UNL     1      15.353   6.317   2.568  0.00  0.00    -0.299 NA
ATOM      3  N   UNL     1      10.742   6.304   4.630  0.00  0.00    -0.339 N 
ATOM      7  C   UNL     1      14.483   5.648   1.592  0.00  0.00    +0.085 C 
ATOM      8  C   UNL     1      13.055   5.352   2.062  0.00  0.00    -0.021 A 
ATOM      9  C   UNL     1      14.926   7.656   2.947  0.00  0.00    +0.145 C 
ATOM     10  C   UNL     1      12.421   5.951   3.188  0.00  0.00    +0.008 A 
ATOM     11  C   UNL     1      12.825   6.932   4.160  0.00  0.00    -0.020 A 
ATOM     12  C   UNL     1      14.133   7.644   4.253  0.00  0.00    +0.065 C 
ATOM     14  C   UNL     1      11.102   5.603   3.504  0.00  0.00    +0.050 A 
ATOM     16  C   UNL     1      11.767   7.110   5.029  0.00  0.00    +0.091 A 
ATOM     17  C   UNL     1      12.254   4.474   1.288  0.00  0.00    +0.006 A 
ATOM     19  C   UNL     1      10.345   4.699   2.755  0.00  0.00    +0.026 A 
ATOM     21  C   UNL     1      10.943   4.148   1.629  0.00  0.00    +0.002 A 
ATOM     31  H   UNL     1      15.498   5.730   3.389  0.00  0.00    +0.123 HD
ENDROOT
BRANCH   9  18
ATOM      1  O   UNL     1      16.196   9.535   3.688  0.00  0.00    -0.274 OA
ATOM      4  N   UNL     1      17.298   7.767   2.648  0.00  0.00    -0.312 N 
ATOM     18  C   UNL     1      16.192   8.431   3.150  0.00  0.00    +0.231 C 
ATOM     32  H   UNL     1      17.185   6.827   2.281  0.00  0.00    +0.149 HD
BRANCH   4  25
ATOM     25  C   UNL     1      18.637   8.311   2.699  0.00  0.00    +0.067 C 
ATOM     26  C   UNL     1      19.408   7.936   1.440  0.00  0.00    +0.027 C 
ATOM     27  C   UNL     1      19.360   7.835   3.952  0.00  0.00    +0.027 C 
ENDBRANCH   4  25
ENDBRANCH   9  18
BRANCH   7  13
ATOM     13  C   UNL     1      15.250   4.374   1.196  0.00  0.00    +0.026 C 
BRANCH  13  15
ATOM     15  C   UNL     1      15.821   4.438  -0.224  0.00  0.00    -0.015 C 
ATOM     22  C   UNL     1      16.503   5.793  -0.432  0.00  0.00    +0.007 C 
ATOM     23  C   UNL     1      14.755   4.226  -1.299  0.00  0.00    +0.007 C 
ENDBRANCH  13  15
ENDBRANCH   7  13
BRANCH   3  20
ATOM     20  C   UNL     1       9.460   6.228   5.297  0.00  0.00    +0.196 C 
BRANCH  20  24
ATOM      5  N   UNL     1       9.275   6.376   7.804  0.00  0.00    -0.336 N 
ATOM      6  N   UNL     1       9.867   4.401   6.981  0.00  0.00    -0.239 NA
ATOM     24  C   UNL     1       9.542   5.640   6.684  0.00  0.00    +0.129 A 
ATOM     28  C   UNL     1       9.439   5.555   8.883  0.00  0.00    +0.106 A 
ATOM     29  C   UNL     1       8.888   7.766   7.855  0.00  0.00    +0.150 C 
ATOM     30  C   UNL     1       9.804   4.341   8.349  0.00  0.00    +0.130 A 
ENDBRANCH  20  24
ENDBRANCH   3  20
TORSDOF 6
ENDMDL
