MODEL 1
REMARK VINA RESULT:      -5.4      0.000      0.000
REMARK  Name = 75537145
REMARK  6 active torsions:
REMARK  status: ('A' for Active; 'I' for Inactive)
REMARK    1  A    between atoms: O_3  and  C_16
REMARK    2  A    between atoms: O_3  and  C_20
REMARK    3  A    between atoms: N_5  and  C_15
REMARK    4  A    between atoms: N_6  and  C_14
REMARK    5  A    between atoms: C_14  and  C_16
REMARK    6  A    between atoms: C_15  and  C_17
REMARK                            x       y       z     vdW  Elec       q    Type
REMARK                         _______ _______ _______ _____ _____    ______ ____
ROOT
ATOM      2  O   UNL     1      12.076   6.356  19.674  0.00  0.00    -0.252 OA
ATOM      4  N   UNL     1      12.340   8.459  20.687  0.00  0.00    -0.278 N 
ATOM      5  N   UNL     1      11.658  10.810  22.071  0.00  0.00    -0.293 NA
ATOM      6  N   UNL     1      13.290   8.117  18.680  0.00  0.00    -0.281 N 
ATOM      8  C   UNL     1      13.095   9.668  20.430  0.00  0.00    +0.109 C 
ATOM      9  C   UNL     1      12.236  10.900  20.715  0.00  0.00    +0.109 C 
ATOM     10  C   UNL     1      13.541   9.516  18.977  0.00  0.00    +0.133 C 
ATOM     11  C   UNL     1      11.610   8.329  21.930  0.00  0.00    +0.125 C 
ATOM     12  C   UNL     1      10.813   9.607  22.203  0.00  0.00    +0.104 C 
ATOM     13  C   UNL     1      12.517   7.497  19.683  0.00  0.00    +0.305 C 
ENDROOT
BRANCH   6  14
ATOM     14  C   UNL     1      13.678   7.519  17.421  0.00  0.00    +0.137 C 
BRANCH  14  16
ATOM     16  C   UNL     1      14.131   8.568  16.423  0.00  0.00    +0.178 C 
BRANCH  16   3
ATOM      3  O   UNL     1      13.234   8.589  15.320  0.00  0.00    -0.381 OA
ATOM     20  C   UNL     1      12.136   9.460  15.556  0.00  0.00    +0.194 C 
ENDBRANCH  16   3
ENDBRANCH  14  16
ENDBRANCH   6  14
BRANCH   5  15
ATOM     15  C   UNL     1      10.884  12.013  22.375  0.00  0.00    +0.147 C 
BRANCH  15  17
ATOM      1  S   UNL     1      12.798  12.684  24.275  0.00  0.00    -0.079 S 
ATOM      7  N   UNL     1      10.245  12.874  24.630  0.00  0.00    -0.251 NA
ATOM     17  C   UNL     1      11.168  12.528  23.761  0.00  0.00    +0.092 A 
ATOM     18  C   UNL     1      12.240  13.266  25.788  0.00  0.00    +0.066 A 
ATOM     19  C   UNL     1      10.861  13.297  25.792  0.00  0.00    +0.119 A 
ENDBRANCH  15  17
ENDBRANCH   5  15
TORSDOF 5
ENDMDL
MODEL 2
REMARK VINA RESULT:      -5.1      6.012      7.900
REMARK  Name = 75537145
REMARK  6 active torsions:
REMARK  status: ('A' for Active; 'I' for Inactive)
REMARK    1  A    between atoms: O_3  and  C_16
REMARK    2  A    between atoms: O_3  and  C_20
REMARK    3  A    between atoms: N_5  and  C_15
REMARK    4  A    between atoms: N_6  and  C_14
REMARK    5  A    between atoms: C_14  and  C_16
REMARK    6  A    between atoms: C_15  and  C_17
REMARK                            x       y       z     vdW  Elec       q    Type
REMARK                         _______ _______ _______ _____ _____    ______ ____
ROOT
ATOM      2  O   UNL     1      19.421   8.232  22.730  0.00  0.00    -0.252 OA
ATOM      4  N   UNL     1      17.785   7.786  21.105  0.00  0.00    -0.278 N 
ATOM      5  N   UNL     1      15.232   7.457  19.971  0.00  0.00    -0.293 NA
ATOM      6  N   UNL     1      19.562   6.417  21.230  0.00  0.00    -0.281 N 
ATOM      8  C   UNL     1      17.625   6.878  19.988  0.00  0.00    +0.109 C 
ATOM      9  C   UNL     1      16.195   6.338  19.943  0.00  0.00    +0.109 C 
ATOM     10  C   UNL     1      18.704   5.822  20.220  0.00  0.00    +0.133 C 
ATOM     11  C   UNL     1      16.808   8.834  21.312  0.00  0.00    +0.125 C 
ATOM     12  C   UNL     1      15.394   8.260  21.200  0.00  0.00    +0.104 C 
ATOM     13  C   UNL     1      18.980   7.567  21.802  0.00  0.00    +0.305 C 
ENDROOT
BRANCH   6  14
ATOM     14  C   UNL     1      20.787   5.783  21.666  0.00  0.00    +0.137 C 
BRANCH  14  16
ATOM     16  C   UNL     1      21.492   5.086  20.517  0.00  0.00    +0.178 C 
BRANCH  16   3
ATOM      3  O   UNL     1      21.859   3.772  20.917  0.00  0.00    -0.381 OA
ATOM     20  C   UNL     1      21.979   3.671  22.330  0.00  0.00    +0.194 C 
ENDBRANCH  16   3
ENDBRANCH  14  16
ENDBRANCH   6  14
BRANCH   5  15
ATOM     15  C   UNL     1      13.863   6.953  19.867  0.00  0.00    +0.147 C 
BRANCH  15  17
ATOM      1  S   UNL     1      13.929   8.443  17.521  0.00  0.00    -0.079 S 
ATOM      7  N   UNL     1      11.770   7.750  18.763  0.00  0.00    -0.251 NA
ATOM     17  C   UNL     1      13.082   7.668  18.797  0.00  0.00    +0.092 A 
ATOM     18  C   UNL     1      12.427   8.933  16.854  0.00  0.00    +0.066 A 
ATOM     19  C   UNL     1      11.397   8.475  17.649  0.00  0.00    +0.119 A 
ENDBRANCH  15  17
ENDBRANCH   5  15
TORSDOF 5
ENDMDL
MODEL 3
REMARK VINA RESULT:      -5.1      1.735      1.993
REMARK  Name = 75537145
REMARK  6 active torsions:
REMARK  status: ('A' for Active; 'I' for Inactive)
REMARK    1  A    between atoms: O_3  and  C_16
REMARK    2  A    between atoms: O_3  and  C_20
REMARK    3  A    between atoms: N_5  and  C_15
REMARK    4  A    between atoms: N_6  and  C_14
REMARK    5  A    between atoms: C_14  and  C_16
REMARK    6  A    between atoms: C_15  and  C_17
REMARK                            x       y       z     vdW  Elec       q    Type
REMARK                         _______ _______ _______ _____ _____    ______ ____
ROOT
ATOM      2  O   UNL     1      10.992   6.959  20.708  0.00  0.00    -0.252 OA
ATOM      4  N   UNL     1      11.982   8.683  21.958  0.00  0.00    -0.278 N 
ATOM      5  N   UNL     1      12.222  11.127  23.330  0.00  0.00    -0.293 NA
ATOM      6  N   UNL     1      13.154   7.790  20.262  0.00  0.00    -0.281 N 
ATOM      8  C   UNL     1      13.282   9.318  22.038  0.00  0.00    +0.109 C 
ATOM      9  C   UNL     1      13.124  10.830  22.199  0.00  0.00    +0.109 C 
ATOM     10  C   UNL     1      13.981   8.877  20.754  0.00  0.00    +0.133 C 
ATOM     11  C   UNL     1      10.968   9.017  22.935  0.00  0.00    +0.125 C 
ATOM     12  C   UNL     1      10.887  10.535  23.107  0.00  0.00    +0.104 C 
ATOM     13  C   UNL     1      11.926   7.712  20.949  0.00  0.00    +0.305 C 
ENDROOT
BRANCH   6  14
ATOM     14  C   UNL     1      13.526   7.007  19.104  0.00  0.00    +0.137 C 
BRANCH  14  16
ATOM     16  C   UNL     1      13.169   7.720  17.813  0.00  0.00    +0.178 C 
BRANCH  16   3
ATOM      3  O   UNL     1      11.846   7.367  17.429  0.00  0.00    -0.381 OA
ATOM     20  C   UNL     1      11.096   8.507  17.033  0.00  0.00    +0.194 C 
ENDBRANCH  16   3
ENDBRANCH  14  16
ENDBRANCH   6  14
BRANCH   5  15
ATOM     15  C   UNL     1      12.113  12.571  23.529  0.00  0.00    +0.147 C 
BRANCH  15  17
ATOM      1  S   UNL     1      13.185  14.688  24.978  0.00  0.00    -0.079 S 
ATOM      7  N   UNL     1      13.214  12.218  25.743  0.00  0.00    -0.251 NA
ATOM     17  C   UNL     1      12.829  13.021  24.775  0.00  0.00    +0.092 A 
ATOM     18  C   UNL     1      13.915  14.324  26.486  0.00  0.00    +0.066 A 
ATOM     19  C   UNL     1      13.836  12.967  26.723  0.00  0.00    +0.119 A 
ENDBRANCH  15  17
ENDBRANCH   5  15
TORSDOF 5
ENDMDL
MODEL 4
REMARK VINA RESULT:      -5.0      5.434      7.484
REMARK  Name = 75537145
REMARK  6 active torsions:
REMARK  status: ('A' for Active; 'I' for Inactive)
REMARK    1  A    between atoms: O_3  and  C_16
REMARK    2  A    between atoms: O_3  and  C_20
REMARK    3  A    between atoms: N_5  and  C_15
REMARK    4  A    between atoms: N_6  and  C_14
REMARK    5  A    between atoms: C_14  and  C_16
REMARK    6  A    between atoms: C_15  and  C_17
REMARK                            x       y       z     vdW  Elec       q    Type
REMARK                         _______ _______ _______ _____ _____    ______ ____
ROOT
ATOM      2  O   UNL     1      13.928  11.059  21.503  0.00  0.00    -0.252 OA
ATOM      4  N   UNL     1      15.257   9.135  21.728  0.00  0.00    -0.278 N 
ATOM      5  N   UNL     1      17.383   7.346  21.287  0.00  0.00    -0.293 NA
ATOM      6  N   UNL     1      13.029   8.881  21.605  0.00  0.00    -0.281 N 
ATOM      8  C   UNL     1      15.039   7.719  21.944  0.00  0.00    +0.109 C 
ATOM      9  C   UNL     1      15.992   6.897  21.075  0.00  0.00    +0.109 C 
ATOM     10  C   UNL     1      13.557   7.528  21.630  0.00  0.00    +0.133 C 
ATOM     11  C   UNL     1      16.606   9.658  21.766  0.00  0.00    +0.125 C 
ATOM     12  C   UNL     1      17.534   8.772  20.933  0.00  0.00    +0.104 C 
ATOM     13  C   UNL     1      14.056   9.846  21.605  0.00  0.00    +0.305 C 
ENDROOT
BRANCH   6  14
ATOM     14  C   UNL     1      11.616   9.150  21.446  0.00  0.00    +0.137 C 
BRANCH  14  16
ATOM     16  C   UNL     1      10.923   8.044  20.671  0.00  0.00    +0.178 C 
BRANCH  16   3
ATOM      3  O   UNL     1      10.576   8.521  19.377  0.00  0.00    -0.381 OA
ATOM     20  C   UNL     1      11.658   8.387  18.465  0.00  0.00    +0.194 C 
ENDBRANCH  16   3
ENDBRANCH  14  16
ENDBRANCH   6  14
BRANCH   5  15
ATOM     15  C   UNL     1      18.307   6.525  20.506  0.00  0.00    +0.147 C 
BRANCH  15  17
ATOM      1  S   UNL     1      20.669   5.064  20.617  0.00  0.00    -0.079 S 
ATOM      7  N   UNL     1      19.826   6.640  22.485  0.00  0.00    -0.251 NA
ATOM     17  C   UNL     1      19.540   6.166  21.292  0.00  0.00    +0.092 A 
ATOM     18  C   UNL     1      21.632   5.225  22.027  0.00  0.00    +0.066 A 
ATOM     19  C   UNL     1      21.025   6.100  22.904  0.00  0.00    +0.119 A 
ENDBRANCH  15  17
ENDBRANCH   5  15
TORSDOF 5
ENDMDL
MODEL 5
REMARK VINA RESULT:      -4.8      3.302      7.115
REMARK  Name = 75537145
REMARK  6 active torsions:
REMARK  status: ('A' for Active; 'I' for Inactive)
REMARK    1  A    between atoms: O_3  and  C_16
REMARK    2  A    between atoms: O_3  and  C_20
REMARK    3  A    between atoms: N_5  and  C_15
REMARK    4  A    between atoms: N_6  and  C_14
REMARK    5  A    between atoms: C_14  and  C_16
REMARK    6  A    between atoms: C_15  and  C_17
REMARK                            x       y       z     vdW  Elec       q    Type
REMARK                         _______ _______ _______ _____ _____    ______ ____
ROOT
ATOM      2  O   UNL     1      14.326  11.265  23.179  0.00  0.00    -0.252 OA
ATOM      4  N   UNL     1      13.346   9.411  22.119  0.00  0.00    -0.278 N 
ATOM      5  N   UNL     1      12.994   7.339  20.250  0.00  0.00    -0.293 NA
ATOM      6  N   UNL     1      12.010  11.098  22.764  0.00  0.00    -0.281 N 
ATOM      8  C   UNL     1      12.005   8.942  21.836  0.00  0.00    +0.109 C 
ATOM      9  C   UNL     1      11.935   8.354  20.427  0.00  0.00    +0.109 C 
ATOM     10  C   UNL     1      11.134  10.176  22.062  0.00  0.00    +0.133 C 
ATOM     11  C   UNL     1      14.473   8.546  21.841  0.00  0.00    +0.125 C 
ATOM     12  C   UNL     1      14.331   7.934  20.446  0.00  0.00    +0.104 C 
ATOM     13  C   UNL     1      13.351  10.664  22.746  0.00  0.00    +0.305 C 
ENDROOT
BRANCH   6  14
ATOM     14  C   UNL     1      11.539  12.368  23.271  0.00  0.00    +0.137 C 
BRANCH  14  16
ATOM     16  C   UNL     1      10.710  12.192  24.529  0.00  0.00    +0.178 C 
BRANCH  16   3
ATOM      3  O   UNL     1      11.574  12.003  25.642  0.00  0.00    -0.381 OA
ATOM     20  C   UNL     1      12.598  12.988  25.681  0.00  0.00    +0.194 C 
ENDBRANCH  16   3
ENDBRANCH  14  16
ENDBRANCH   6  14
BRANCH   5  15
ATOM     15  C   UNL     1      12.896   6.727  18.925  0.00  0.00    +0.147 C 
BRANCH  15  17
ATOM      1  S   UNL     1      13.761   8.729  17.201  0.00  0.00    -0.079 S 
ATOM      7  N   UNL     1      11.314   7.920  17.406  0.00  0.00    -0.251 NA
ATOM     17  C   UNL     1      12.531   7.735  17.868  0.00  0.00    +0.092 A 
ATOM     18  C   UNL     1      12.583   9.475  16.203  0.00  0.00    +0.066 A 
ATOM     19  C   UNL     1      11.346   8.917  16.451  0.00  0.00    +0.119 A 
ENDBRANCH  15  17
ENDBRANCH   5  15
TORSDOF 5
ENDMDL
MODEL 6
REMARK VINA RESULT:      -4.8     27.254     29.254
REMARK  Name = 75537145
REMARK  6 active torsions:
REMARK  status: ('A' for Active; 'I' for Inactive)
REMARK    1  A    between atoms: O_3  and  C_16
REMARK    2  A    between atoms: O_3  and  C_20
REMARK    3  A    between atoms: N_5  and  C_15
REMARK    4  A    between atoms: N_6  and  C_14
REMARK    5  A    between atoms: C_14  and  C_16
REMARK    6  A    between atoms: C_15  and  C_17
REMARK                            x       y       z     vdW  Elec       q    Type
REMARK                         _______ _______ _______ _____ _____    ______ ____
ROOT
ATOM      2  O   UNL     1      -6.174 -11.251  20.560  0.00  0.00    -0.252 OA
ATOM      4  N   UNL     1      -5.728 -11.624  18.284  0.00  0.00    -0.278 N 
ATOM      5  N   UNL     1      -5.086 -11.050  15.606  0.00  0.00    -0.293 NA
ATOM      6  N   UNL     1      -7.468 -12.695  19.217  0.00  0.00    -0.281 N 
ATOM      8  C   UNL     1      -6.215 -12.504  17.242  0.00  0.00    +0.109 C 
ATOM      9  C   UNL     1      -6.353 -11.741  15.924  0.00  0.00    +0.109 C 
ATOM     10  C   UNL     1      -7.524 -13.048  17.809  0.00  0.00    +0.133 C 
ATOM     11  C   UNL     1      -4.575 -10.788  18.024  0.00  0.00    +0.125 C 
ATOM     12  C   UNL     1      -4.729 -10.091  16.671  0.00  0.00    +0.104 C 
ATOM     13  C   UNL     1      -6.421 -11.792  19.490  0.00  0.00    +0.305 C 
ENDROOT
BRANCH   6  14
ATOM     14  C   UNL     1      -8.479 -13.127  20.157  0.00  0.00    +0.137 C 
BRANCH  14  16
ATOM     16  C   UNL     1      -9.784 -12.379  19.952  0.00  0.00    +0.178 C 
BRANCH  16   3
ATOM      3  O   UNL     1      -9.598 -11.007  20.274  0.00  0.00    -0.381 OA
ATOM     20  C   UNL     1     -10.783 -10.254  20.054  0.00  0.00    +0.194 C 
ENDBRANCH  16   3
ENDBRANCH  14  16
ENDBRANCH   6  14
BRANCH   5  15
ATOM     15  C   UNL     1      -5.189 -10.367  14.317  0.00  0.00    +0.147 C 
BRANCH  15  17
ATOM      1  S   UNL     1      -2.887 -11.875  13.923  0.00  0.00    -0.079 S 
ATOM      7  N   UNL     1      -3.872 -10.217  12.201  0.00  0.00    -0.251 NA
ATOM     17  C   UNL     1      -4.051 -10.727  13.400  0.00  0.00    +0.092 A 
ATOM     18  C   UNL     1      -2.067 -11.689  12.429  0.00  0.00    +0.066 A 
ATOM     19  C   UNL     1      -2.735 -10.770  11.646  0.00  0.00    +0.119 A 
ENDBRANCH  15  17
ENDBRANCH   5  15
TORSDOF 5
ENDMDL
MODEL 7
REMARK VINA RESULT:      -4.7     26.630     28.394
REMARK  Name = 75537145
REMARK  6 active torsions:
REMARK  status: ('A' for Active; 'I' for Inactive)
REMARK    1  A    between atoms: O_3  and  C_16
REMARK    2  A    between atoms: O_3  and  C_20
REMARK    3  A    between atoms: N_5  and  C_15
REMARK    4  A    between atoms: N_6  and  C_14
REMARK    5  A    between atoms: C_14  and  C_16
REMARK    6  A    between atoms: C_15  and  C_17
REMARK                            x       y       z     vdW  Elec       q    Type
REMARK                         _______ _______ _______ _____ _____    ______ ____
ROOT
ATOM      2  O   UNL     1      -1.444 -10.703  15.098  0.00  0.00    -0.252 OA
ATOM      4  N   UNL     1      -2.785 -10.658  13.169  0.00  0.00    -0.278 N 
ATOM      5  N   UNL     1      -3.671  -9.915  10.605  0.00  0.00    -0.293 NA
ATOM      6  N   UNL     1      -3.802 -10.651  15.172  0.00  0.00    -0.281 N 
ATOM      8  C   UNL     1      -4.197 -10.750  12.861  0.00  0.00    +0.109 C 
ATOM      9  C   UNL     1      -4.568  -9.748  11.767  0.00  0.00    +0.109 C 
ATOM     10  C   UNL     1      -4.878 -10.513  14.207  0.00  0.00    +0.133 C 
ATOM     11  C   UNL     1      -1.822 -10.661  12.088  0.00  0.00    +0.125 C 
ATOM     12  C   UNL     1      -2.264  -9.691  10.991  0.00  0.00    +0.104 C 
ATOM     13  C   UNL     1      -2.538 -10.679  14.548  0.00  0.00    +0.305 C 
ENDROOT
BRANCH   6  14
ATOM     14  C   UNL     1      -4.039 -10.607  16.598  0.00  0.00    +0.137 C 
BRANCH  14  16
ATOM     16  C   UNL     1      -5.499 -10.332  16.911  0.00  0.00    +0.178 C 
BRANCH  16   3
ATOM      3  O   UNL     1      -5.720 -10.488  18.306  0.00  0.00    -0.381 OA
ATOM     20  C   UNL     1      -4.890 -11.503  18.856  0.00  0.00    +0.194 C 
ENDBRANCH  16   3
ENDBRANCH  14  16
ENDBRANCH   6  14
BRANCH   5  15
ATOM     15  C   UNL     1      -4.057  -9.002   9.530  0.00  0.00    +0.147 C 
BRANCH  15  17
ATOM      1  S   UNL     1      -6.669  -8.983   8.580  0.00  0.00    -0.079 S 
ATOM      7  N   UNL     1      -4.836 -10.633   7.807  0.00  0.00    -0.251 NA
ATOM     17  C   UNL     1      -5.076  -9.619   8.609  0.00  0.00    +0.092 A 
ATOM     18  C   UNL     1      -7.089 -10.150   7.396  0.00  0.00    +0.066 A 
ATOM     19  C   UNL     1      -5.991 -10.936   7.112  0.00  0.00    +0.119 A 
ENDBRANCH  15  17
ENDBRANCH   5  15
TORSDOF 5
ENDMDL
MODEL 8
REMARK VINA RESULT:      -4.7     26.784     28.535
REMARK  Name = 75537145
REMARK  6 active torsions:
REMARK  status: ('A' for Active; 'I' for Inactive)
REMARK    1  A    between atoms: O_3  and  C_16
REMARK    2  A    between atoms: O_3  and  C_20
REMARK    3  A    between atoms: N_5  and  C_15
REMARK    4  A    between atoms: N_6  and  C_14
REMARK    5  A    between atoms: C_14  and  C_16
REMARK    6  A    between atoms: C_15  and  C_17
REMARK                            x       y       z     vdW  Elec       q    Type
REMARK                         _______ _______ _______ _____ _____    ______ ____
ROOT
ATOM      2  O   UNL     1      -8.080 -10.896  19.755  0.00  0.00    -0.252 OA
ATOM      4  N   UNL     1      -6.590 -11.089  17.950  0.00  0.00    -0.278 N 
ATOM      5  N   UNL     1      -4.144 -11.182  16.563  0.00  0.00    -0.293 NA
ATOM      6  N   UNL     1      -8.420  -9.814  17.687  0.00  0.00    -0.281 N 
ATOM      8  C   UNL     1      -6.556 -10.686  16.559  0.00  0.00    +0.109 C 
ATOM      9  C   UNL     1      -5.162 -10.180  16.186  0.00  0.00    +0.109 C 
ATOM     10  C   UNL     1      -7.667  -9.644  16.456  0.00  0.00    +0.133 C 
ATOM     11  C   UNL     1      -5.548 -11.954  18.463  0.00  0.00    +0.125 C 
ATOM     12  C   UNL     1      -4.177 -11.443  18.017  0.00  0.00    +0.104 C 
ATOM     13  C   UNL     1      -7.741 -10.637  18.608  0.00  0.00    +0.305 C 
ENDROOT
BRANCH   6  14
ATOM     14  C   UNL     1      -9.641  -9.083  17.946  0.00  0.00    +0.137 C 
BRANCH  14  16
ATOM     16  C   UNL     1      -9.812  -7.925  16.980  0.00  0.00    +0.178 C 
BRANCH  16   3
ATOM      3  O   UNL     1     -11.198  -7.680  16.778  0.00  0.00    -0.381 OA
ATOM     20  C   UNL     1     -11.634  -8.161  15.513  0.00  0.00    +0.194 C 
ENDBRANCH  16   3
ENDBRANCH  14  16
ENDBRANCH   6  14
BRANCH   5  15
ATOM     15  C   UNL     1      -2.813 -10.733  16.156  0.00  0.00    +0.147 C 
BRANCH  15  17
ATOM      1  S   UNL     1      -2.564 -12.772  14.283  0.00  0.00    -0.079 S 
ATOM      7  N   UNL     1      -2.179 -10.264  13.787  0.00  0.00    -0.251 NA
ATOM     17  C   UNL     1      -2.503 -11.116  14.734  0.00  0.00    +0.092 A 
ATOM     18  C   UNL     1      -2.125 -12.328  12.686  0.00  0.00    +0.066 A 
ATOM     19  C   UNL     1      -1.963 -10.960  12.614  0.00  0.00    +0.119 A 
ENDBRANCH  15  17
ENDBRANCH   5  15
TORSDOF 5
ENDMDL
MODEL 9
REMARK VINA RESULT:      -4.7      3.518      7.127
REMARK  Name = 75537145
REMARK  6 active torsions:
REMARK  status: ('A' for Active; 'I' for Inactive)
REMARK    1  A    between atoms: O_3  and  C_16
REMARK    2  A    between atoms: O_3  and  C_20
REMARK    3  A    between atoms: N_5  and  C_15
REMARK    4  A    between atoms: N_6  and  C_14
REMARK    5  A    between atoms: C_14  and  C_16
REMARK    6  A    between atoms: C_15  and  C_17
REMARK                            x       y       z     vdW  Elec       q    Type
REMARK                         _______ _______ _______ _____ _____    ______ ____
ROOT
ATOM      2  O   UNL     1      11.063  10.845  25.086  0.00  0.00    -0.252 OA
ATOM      4  N   UNL     1      11.371  10.279  22.828  0.00  0.00    -0.278 N 
ATOM      5  N   UNL     1      12.072   8.742  20.578  0.00  0.00    -0.293 NA
ATOM      6  N   UNL     1      12.003  12.324  23.507  0.00  0.00    -0.281 N 
ATOM      8  C   UNL     1      11.778  10.957  21.614  0.00  0.00    +0.109 C 
ATOM      9  C   UNL     1      12.703  10.061  20.790  0.00  0.00    +0.109 C 
ATOM     10  C   UNL     1      12.415  12.250  22.117  0.00  0.00    +0.133 C 
ATOM     11  C   UNL     1      10.875   8.921  22.749  0.00  0.00    +0.125 C 
ATOM     12  C   UNL     1      11.799   8.077  21.868  0.00  0.00    +0.104 C 
ATOM     13  C   UNL     1      11.428  11.116  23.950  0.00  0.00    +0.305 C 
ENDROOT
BRANCH   6  14
ATOM     14  C   UNL     1      12.306  13.470  24.337  0.00  0.00    +0.137 C 
BRANCH  14  16
ATOM     16  C   UNL     1      11.430  14.659  23.987  0.00  0.00    +0.178 C 
BRANCH  16   3
ATOM      3  O   UNL     1      10.078  14.360  24.309  0.00  0.00    -0.381 OA
ATOM     20  C   UNL     1       9.209  14.631  23.217  0.00  0.00    +0.194 C 
ENDBRANCH  16   3
ENDBRANCH  14  16
ENDBRANCH   6  14
BRANCH   5  15
ATOM     15  C   UNL     1      12.924   7.899  19.740  0.00  0.00    +0.147 C 
BRANCH  15  17
ATOM      1  S   UNL     1      11.731   8.660  17.348  0.00  0.00    -0.079 S 
ATOM      7  N   UNL     1      14.257   8.862  17.861  0.00  0.00    -0.251 NA
ATOM     17  C   UNL     1      13.104   8.478  18.362  0.00  0.00    +0.092 A 
ATOM     18  C   UNL     1      12.747   9.310  16.130  0.00  0.00    +0.066 A 
ATOM     19  C   UNL     1      14.051   9.339  16.581  0.00  0.00    +0.119 A 
ENDBRANCH  15  17
ENDBRANCH   5  15
TORSDOF 5
ENDMDL
MODEL 10
REMARK VINA RESULT:      -4.6      3.451      7.035
REMARK  Name = 75537145
REMARK  6 active torsions:
REMARK  status: ('A' for Active; 'I' for Inactive)
REMARK    1  A    between atoms: O_3  and  C_16
REMARK    2  A    between atoms: O_3  and  C_20
REMARK    3  A    between atoms: N_5  and  C_15
REMARK    4  A    between atoms: N_6  and  C_14
REMARK    5  A    between atoms: C_14  and  C_16
REMARK    6  A    between atoms: C_15  and  C_17
REMARK                            x       y       z     vdW  Elec       q    Type
REMARK                         _______ _______ _______ _____ _____    ______ ____
ROOT
ATOM      2  O   UNL     1      10.380   8.414  22.978  0.00  0.00    -0.252 OA
ATOM      4  N   UNL     1      11.470   9.378  21.134  0.00  0.00    -0.278 N 
ATOM      5  N   UNL     1      13.168   9.585  18.902  0.00  0.00    -0.293 NA
ATOM      6  N   UNL     1      11.328  10.573  23.031  0.00  0.00    -0.281 N 
ATOM      8  C   UNL     1      12.025  10.671  20.792  0.00  0.00    +0.109 C 
ATOM      9  C   UNL     1      13.349  10.501  20.046  0.00  0.00    +0.109 C 
ATOM     10  C   UNL     1      12.133  11.387  22.137  0.00  0.00    +0.133 C 
ATOM     11  C   UNL     1      11.385   8.352  20.117  0.00  0.00    +0.125 C 
ATOM     12  C   UNL     1      12.710   8.257  19.358  0.00  0.00    +0.104 C 
ATOM     13  C   UNL     1      10.979   9.339  22.446  0.00  0.00    +0.305 C 
ENDROOT
BRANCH   6  14
ATOM     14  C   UNL     1      11.070  10.963  24.400  0.00  0.00    +0.137 C 
BRANCH  14  16
ATOM     16  C   UNL     1      11.213  12.462  24.588  0.00  0.00    +0.178 C 
BRANCH  16   3
ATOM      3  O   UNL     1       9.928  13.069  24.526  0.00  0.00    -0.381 OA
ATOM     20  C   UNL     1       9.902  14.140  23.591  0.00  0.00    +0.194 C 
ENDBRANCH  16   3
ENDBRANCH  14  16
ENDBRANCH   6  14
BRANCH   5  15
ATOM     15  C   UNL     1      14.415   9.462  18.146  0.00  0.00    +0.147 C 
BRANCH  15  17
ATOM      1  S   UNL     1      13.467  10.091  15.610  0.00  0.00    -0.079 S 
ATOM      7  N   UNL     1      15.210  11.484  16.916  0.00  0.00    -0.251 NA
ATOM     17  C   UNL     1      14.456  10.409  16.976  0.00  0.00    +0.092 A 
ATOM     18  C   UNL     1      14.085  11.505  14.863  0.00  0.00    +0.066 A 
ATOM     19  C   UNL     1      14.996  12.112  15.704  0.00  0.00    +0.119 A 
ENDBRANCH  15  17
ENDBRANCH   5  15
TORSDOF 5
ENDMDL
