REMARK  Name = 71693122
REMARK  14 active torsions:
REMARK  status: ('A' for Active; 'I' for Inactive)
REMARK    1  A    between atoms: O_2  and  C_27
REMARK    2  A    between atoms: N_4  and  C_19
REMARK    3  A    between atoms: N_5  and  C_31
REMARK    4  A    between atoms: C_7  and  C_16
REMARK    5  A    between atoms: C_7  and  C_18
REMARK    6  A    between atoms: C_8  and  C_17
REMARK    7  A    between atoms: C_9  and  C_19
REMARK    8  A    between atoms: C_13  and  C_22
REMARK    9  A    between atoms: C_16  and  C_23
REMARK   10  A    between atoms: C_17  and  C_24
REMARK   11  A    between atoms: C_17  and  C_25
REMARK   12  A    between atoms: C_18  and  C_27
REMARK   13  A    between atoms: C_20  and  C_26
REMARK   14  A    between atoms: C_22  and  C_28
REMARK                            x       y       z     vdW  Elec       q    Type
REMARK                         _______ _______ _______ _____ _____    ______ ____
ROOT
ATOM      8  C   UNL     1       0.174   2.187   1.024  0.00  0.00    +0.000 C 
ATOM      9  C   UNL     1      -0.632   3.362   0.416  0.00  0.00    +0.032 C 
ATOM     12  C   UNL     1       1.626   2.217   0.522  0.00  0.00    +0.012 C 
ATOM     13  C   UNL     1       1.714   2.127  -1.013  0.00  0.00    +0.022 C 
ATOM     20  C   UNL     1       0.745   3.075  -1.689  0.00  0.00    -0.073 C 
ATOM     21  C   UNL     1      -0.289   3.628  -1.031  0.00  0.00    -0.022 C 
ATOM     26  C   UNL     1       1.019   3.410  -3.129  0.00  0.00    +0.039 C 
ENDROOT
BRANCH   8  17
ATOM     17  C   UNL     1       0.154   2.216   2.555  0.00  0.00    -0.013 C 
ATOM     24  C   UNL     1       0.398   0.818   3.117  0.00  0.00    +0.007 C 
ATOM     25  C   UNL     1       1.193   3.200   3.083  0.00  0.00    +0.007 C 
ENDBRANCH   8  17
BRANCH   9  19
ATOM     19  C   UNL     1      -2.140   3.126   0.548  0.00  0.00    +0.112 C 
BRANCH  19   4
ATOM      1  O   UNL     1      -3.402   0.696   1.485  0.00  0.00    -0.276 OA
ATOM      4  N   UNL     1      -2.549   2.005  -0.238  0.00  0.00    -0.315 N 
ATOM     23  C   UNL     1      -3.154   0.865   0.294  0.00  0.00    +0.214 C 
ATOM     36  H   UNL     1      -2.443   2.065  -1.247  0.00  0.00    +0.149 HD
BRANCH  23  16
ATOM     16  C   UNL     1      -3.481  -0.161  -0.776  0.00  0.00    +0.103 C 
BRANCH  16   7
ATOM      7  C   UNL     1      -4.114  -1.434  -0.199  0.00  0.00    -0.011 C 
ATOM     10  C   UNL     1      -4.519  -2.405  -1.331  0.00  0.00    +0.008 C 
ATOM     11  C   UNL     1      -5.434  -1.093   0.534  0.00  0.00    +0.008 C 
ATOM     14  C   UNL     1      -6.028  -2.253  -1.466  0.00  0.00    +0.001 C 
ATOM     15  C   UNL     1      -6.477  -2.049  -0.031  0.00  0.00    +0.001 C 
BRANCH   7  18
ATOM     18  C   UNL     1      -3.115  -2.104   0.752  0.00  0.00    +0.127 C 
BRANCH  18  27
ATOM      3  O   UNL     1      -1.696  -3.177  -0.915  0.00  0.00    -0.251 OA
ATOM     27  C   UNL     1      -1.832  -2.438   0.049  0.00  0.00    +0.305 C 
BRANCH  27   2
ATOM      2  O   UNL     1      -0.805  -1.784   0.650  0.00  0.00    -0.481 OA
ATOM     37  H   UNL     1       0.054  -1.975   0.217  0.00  0.00    +0.295 HD
ENDBRANCH  27   2
ENDBRANCH  18  27
ENDBRANCH   7  18
ENDBRANCH  16   7
ENDBRANCH  23  16
ENDBRANCH  19   4
ENDBRANCH   9  19
BRANCH  13  22
ATOM     22  C   UNL     1       1.500   0.688  -1.495  0.00  0.00    +0.082 C 
BRANCH  22  28
ATOM      5  N   UNL     1       3.784  -0.330  -1.255  0.00  0.00    -0.331 N 
ATOM      6  N   UNL     1       2.215  -1.094   0.121  0.00  0.00    -0.232 NA
ATOM     28  C   UNL     1       2.479  -0.256  -0.857  0.00  0.00    +0.111 A 
ATOM     29  C   UNL     1       4.405  -1.277  -0.483  0.00  0.00    +0.069 A 
ATOM     30  C   UNL     1       3.405  -1.740   0.368  0.00  0.00    +0.089 A 
ATOM     31  C   UNL     1       4.404   0.450  -2.303  0.00  0.00    +0.150 C 
ATOM     32  C   UNL     1       5.715  -1.756  -0.456  0.00  0.00    +0.028 A 
ATOM     33  C   UNL     1       3.712  -2.738   1.308  0.00  0.00    +0.030 A 
ATOM     34  C   UNL     1       6.004  -2.749   0.485  0.00  0.00    +0.002 A 
ATOM     35  C   UNL     1       5.022  -3.233   1.353  0.00  0.00    +0.002 A 
ENDBRANCH  22  28
ENDBRANCH  13  22
TORSDOF 10
