MODEL 1
REMARK VINA RESULT:      -6.2      0.000      0.000
REMARK  Name = 40781515
REMARK  7 active torsions:
REMARK  status: ('A' for Active; 'I' for Inactive)
REMARK    1  A    between atoms: O_2  and  C_11
REMARK    2  A    between atoms: O_3  and  C_12
REMARK    3  A    between atoms: N_6  and  C_15
REMARK    4  A    between atoms: C_8  and  C_15
REMARK    5  A    between atoms: C_9  and  C_17
REMARK    6  A    between atoms: C_10  and  C_16
REMARK    7  A    between atoms: C_16  and  C_18
REMARK                            x       y       z     vdW  Elec       q    Type
REMARK                         _______ _______ _______ _____ _____    ______ ____
ROOT
ATOM      1  O   UNL     1      11.157   9.061  20.053  0.00  0.00    -0.366 OA
ATOM      8  C   UNL     1      10.958   9.691  21.330  0.00  0.00    +0.167 C 
ATOM     10  C   UNL     1      11.444   7.660  20.259  0.00  0.00    +0.159 C 
ATOM     11  C   UNL     1      11.568   8.746  22.352  0.00  0.00    +0.176 C 
ATOM     12  C   UNL     1      11.247   7.395  21.748  0.00  0.00    +0.175 C 
ENDROOT
BRANCH  11   2
ATOM      2  O   UNL     1      11.016   8.929  23.638  0.00  0.00    -0.387 OA
ATOM     24  H   UNL     1      10.571   8.101  23.886  0.00  0.00    +0.210 HD
ENDBRANCH  11   2
BRANCH  12   3
ATOM      3  O   UNL     1       9.873   7.072  21.962  0.00  0.00    -0.387 OA
ATOM     25  H   UNL     1       9.489   6.849  21.096  0.00  0.00    +0.210 HD
ENDBRANCH  12   3
BRANCH   8  15
ATOM     15  C   UNL     1      11.597  11.069  21.327  0.00  0.00    +0.138 C 
BRANCH  15   6
ATOM      4  O   UNL     1      12.239  11.815  24.063  0.00  0.00    -0.276 OA
ATOM      6  N   UNL     1      10.881  11.974  22.176  0.00  0.00    -0.313 N 
ATOM     17  C   UNL     1      11.265  12.272  23.477  0.00  0.00    +0.216 C 
ATOM     23  H   UNL     1      10.055  12.426  21.796  0.00  0.00    +0.149 HD
BRANCH  17   9
ATOM      9  C   UNL     1      10.373  13.243  24.176  0.00  0.00    +0.075 C 
ATOM     13  C   UNL     1      10.572  13.492  25.643  0.00  0.00    +0.013 C 
ATOM     14  C   UNL     1      10.942  14.550  24.645  0.00  0.00    +0.013 C 
ENDBRANCH  17   9
ENDBRANCH  15   6
ENDBRANCH   8  15
BRANCH  10  16
ATOM     16  C   UNL     1      12.870   7.403  19.791  0.00  0.00    +0.130 C 
BRANCH  16  18
ATOM      5  O   UNL     1      12.564   7.277  17.432  0.00  0.00    -0.276 OA
ATOM      7  N   UNL     1      13.805   9.050  18.243  0.00  0.00    -0.301 N 
ATOM     18  C   UNL     1      13.056   7.894  18.379  0.00  0.00    +0.218 C 
ATOM     19  C   UNL     1      14.080   9.649  16.945  0.00  0.00    +0.108 C 
ATOM     20  C   UNL     1      14.410   9.828  19.319  0.00  0.00    +0.108 C 
ATOM     21  C   UNL     1      14.626  11.030  17.273  0.00  0.00    +0.020 C 
ATOM     22  C   UNL     1      15.331  10.809  18.606  0.00  0.00    +0.020 C 
ENDBRANCH  16  18
ENDBRANCH  10  16
TORSDOF 7
ENDMDL
MODEL 2
REMARK VINA RESULT:      -6.1      3.978      6.373
REMARK  Name = 40781515
REMARK  7 active torsions:
REMARK  status: ('A' for Active; 'I' for Inactive)
REMARK    1  A    between atoms: O_2  and  C_11
REMARK    2  A    between atoms: O_3  and  C_12
REMARK    3  A    between atoms: N_6  and  C_15
REMARK    4  A    between atoms: C_8  and  C_15
REMARK    5  A    between atoms: C_9  and  C_17
REMARK    6  A    between atoms: C_10  and  C_16
REMARK    7  A    between atoms: C_16  and  C_18
REMARK                            x       y       z     vdW  Elec       q    Type
REMARK                         _______ _______ _______ _____ _____    ______ ____
ROOT
ATOM      1  O   UNL     1      14.139   8.680  21.881  0.00  0.00    -0.366 OA
ATOM      8  C   UNL     1      15.215   7.835  21.436  0.00  0.00    +0.167 C 
ATOM     10  C   UNL     1      12.926   8.297  21.195  0.00  0.00    +0.159 C 
ATOM     11  C   UNL     1      14.737   7.216  20.133  0.00  0.00    +0.176 C 
ATOM     12  C   UNL     1      13.258   7.036  20.406  0.00  0.00    +0.175 C 
ENDROOT
BRANCH  11   2
ATOM      2  O   UNL     1      15.404   6.007  19.845  0.00  0.00    -0.387 OA
ATOM     24  H   UNL     1      16.347   6.139  20.045  0.00  0.00    +0.210 HD
ENDBRANCH  11   2
BRANCH  12   3
ATOM      3  O   UNL     1      13.046   5.911  21.258  0.00  0.00    -0.387 OA
ATOM     25  H   UNL     1      13.259   6.191  22.165  0.00  0.00    +0.210 HD
ENDBRANCH  12   3
BRANCH   8  15
ATOM     15  C   UNL     1      16.482   8.658  21.283  0.00  0.00    +0.138 C 
BRANCH  15   6
ATOM      4  O   UNL     1      18.295   6.677  20.167  0.00  0.00    -0.276 OA
ATOM      6  N   UNL     1      17.592   8.026  21.932  0.00  0.00    -0.313 N 
ATOM     17  C   UNL     1      18.408   7.085  21.316  0.00  0.00    +0.216 C 
ATOM     23  H   UNL     1      17.792   8.291  22.892  0.00  0.00    +0.149 HD
BRANCH  17   9
ATOM      9  C   UNL     1      19.504   6.560  22.181  0.00  0.00    +0.075 C 
ATOM     13  C   UNL     1      20.630   5.795  21.548  0.00  0.00    +0.013 C 
ATOM     14  C   UNL     1      20.870   7.177  22.084  0.00  0.00    +0.013 C 
ENDBRANCH  17   9
ENDBRANCH  15   6
ENDBRANCH   8  15
BRANCH  10  16
ATOM     16  C   UNL     1      12.504   9.462  20.309  0.00  0.00    +0.130 C 
BRANCH  16  18
ATOM      5  O   UNL     1      10.502   8.468  19.484  0.00  0.00    -0.276 OA
ATOM      7  N   UNL     1      12.059   9.160  17.923  0.00  0.00    -0.301 N 
ATOM     18  C   UNL     1      11.589   8.983  19.212  0.00  0.00    +0.218 C 
ATOM     19  C   UNL     1      11.297   8.745  16.754  0.00  0.00    +0.108 C 
ATOM     20  C   UNL     1      13.329   9.765  17.534  0.00  0.00    +0.108 C 
ATOM     21  C   UNL     1      12.007   9.407  15.583  0.00  0.00    +0.020 C 
ATOM     22  C   UNL     1      13.458   9.453  16.049  0.00  0.00    +0.020 C 
ENDBRANCH  16  18
ENDBRANCH  10  16
TORSDOF 7
ENDMDL
MODEL 3
REMARK VINA RESULT:      -5.9     14.499     17.797
REMARK  Name = 40781515
REMARK  7 active torsions:
REMARK  status: ('A' for Active; 'I' for Inactive)
REMARK    1  A    between atoms: O_2  and  C_11
REMARK    2  A    between atoms: O_3  and  C_12
REMARK    3  A    between atoms: N_6  and  C_15
REMARK    4  A    between atoms: C_8  and  C_15
REMARK    5  A    between atoms: C_9  and  C_17
REMARK    6  A    between atoms: C_10  and  C_16
REMARK    7  A    between atoms: C_16  and  C_18
REMARK                            x       y       z     vdW  Elec       q    Type
REMARK                         _______ _______ _______ _____ _____    ______ ____
ROOT
ATOM      1  O   UNL     1      10.703   6.907   6.390  0.00  0.00    -0.366 OA
ATOM      8  C   UNL     1      10.870   5.629   5.752  0.00  0.00    +0.167 C 
ATOM     10  C   UNL     1       9.913   6.735   7.588  0.00  0.00    +0.159 C 
ATOM     11  C   UNL     1       9.792   4.734   6.339  0.00  0.00    +0.176 C 
ATOM     12  C   UNL     1       9.727   5.233   7.768  0.00  0.00    +0.175 C 
ENDROOT
BRANCH  11   2
ATOM      2  O   UNL     1      10.126   3.366   6.239  0.00  0.00    -0.387 OA
ATOM     24  H   UNL     1       9.730   3.029   5.417  0.00  0.00    +0.210 HD
ENDBRANCH  11   2
BRANCH  12   3
ATOM      3  O   UNL     1      10.837   4.736   8.516  0.00  0.00    -0.387 OA
ATOM     25  H   UNL     1      10.517   3.987   9.047  0.00  0.00    +0.210 HD
ENDBRANCH  12   3
BRANCH   8  15
ATOM     15  C   UNL     1      10.764   5.790   4.246  0.00  0.00    +0.138 C 
BRANCH  15   6
ATOM      4  O   UNL     1      11.952   5.775   1.592  0.00  0.00    -0.276 OA
ATOM      6  N   UNL     1      11.358   4.681   3.562  0.00  0.00    -0.313 N 
ATOM     17  C   UNL     1      11.904   4.768   2.288  0.00  0.00    +0.216 C 
ATOM     23  H   UNL     1      11.386   3.787   4.044  0.00  0.00    +0.149 HD
BRANCH  17   9
ATOM      9  C   UNL     1      12.471   3.488   1.771  0.00  0.00    +0.075 C 
ATOM     13  C   UNL     1      13.048   3.452   0.386  0.00  0.00    +0.013 C 
ATOM     14  C   UNL     1      13.955   3.371   1.579  0.00  0.00    +0.013 C 
ENDBRANCH  17   9
ENDBRANCH  15   6
ENDBRANCH   8  15
BRANCH  10  16
ATOM     16  C   UNL     1       8.599   7.479   7.389  0.00  0.00    +0.130 C 
BRANCH  16  18
ATOM      5  O   UNL     1       9.348   9.720   7.685  0.00  0.00    -0.276 OA
ATOM      7  N   UNL     1       8.505   9.154   5.609  0.00  0.00    -0.301 N 
ATOM     18  C   UNL     1       8.858   8.887   6.920  0.00  0.00    +0.218 C 
ATOM     19  C   UNL     1       8.686  10.467   5.008  0.00  0.00    +0.108 C 
ATOM     20  C   UNL     1       7.927   8.215   4.654  0.00  0.00    +0.108 C 
ATOM     21  C   UNL     1       8.488  10.233   3.518  0.00  0.00    +0.020 C 
ATOM     22  C   UNL     1       7.486   9.085   3.485  0.00  0.00    +0.020 C 
ENDBRANCH  16  18
ENDBRANCH  10  16
TORSDOF 7
ENDMDL
MODEL 4
REMARK VINA RESULT:      -5.6     26.122     27.799
REMARK  Name = 40781515
REMARK  7 active torsions:
REMARK  status: ('A' for Active; 'I' for Inactive)
REMARK    1  A    between atoms: O_2  and  C_11
REMARK    2  A    between atoms: O_3  and  C_12
REMARK    3  A    between atoms: N_6  and  C_15
REMARK    4  A    between atoms: C_8  and  C_15
REMARK    5  A    between atoms: C_9  and  C_17
REMARK    6  A    between atoms: C_10  and  C_16
REMARK    7  A    between atoms: C_16  and  C_18
REMARK                            x       y       z     vdW  Elec       q    Type
REMARK                         _______ _______ _______ _____ _____    ______ ____
ROOT
ATOM      1  O   UNL     1      -5.391 -12.674  17.479  0.00  0.00    -0.366 OA
ATOM      8  C   UNL     1      -6.131 -12.548  18.706  0.00  0.00    +0.167 C 
ATOM     10  C   UNL     1      -4.169 -11.909  17.586  0.00  0.00    +0.159 C 
ATOM     11  C   UNL     1      -5.556 -11.329  19.408  0.00  0.00    +0.176 C 
ATOM     12  C   UNL     1      -4.092 -11.422  19.029  0.00  0.00    +0.175 C 
ENDROOT
BRANCH  11   2
ATOM      2  O   UNL     1      -5.777 -11.367  20.801  0.00  0.00    -0.387 OA
ATOM     24  H   UNL     1      -6.567 -10.832  20.987  0.00  0.00    +0.210 HD
ENDBRANCH  11   2
BRANCH  12   3
ATOM      3  O   UNL     1      -3.444 -12.430  19.803  0.00  0.00    -0.387 OA
ATOM     25  H   UNL     1      -2.519 -12.475  19.504  0.00  0.00    +0.210 HD
ENDBRANCH  12   3
BRANCH   8  15
ATOM     15  C   UNL     1      -7.613 -12.423  18.400  0.00  0.00    +0.138 C 
BRANCH  15   6
ATOM      4  O   UNL     1      -8.179 -10.809  16.048  0.00  0.00    -0.276 OA
ATOM      6  N   UNL     1      -8.020 -11.050  18.361  0.00  0.00    -0.313 N 
ATOM     17  C   UNL     1      -8.270 -10.357  17.183  0.00  0.00    +0.216 C 
ATOM     23  H   UNL     1      -8.139 -10.565  19.246  0.00  0.00    +0.149 HD
BRANCH  17   9
ATOM      9  C   UNL     1      -8.684  -8.936  17.379  0.00  0.00    +0.075 C 
ATOM     13  C   UNL     1      -9.460  -8.246  16.296  0.00  0.00    +0.013 C 
ATOM     14  C   UNL     1     -10.137  -8.621  17.582  0.00  0.00    +0.013 C 
ENDBRANCH  17   9
ENDBRANCH  15   6
ENDBRANCH   8  15
BRANCH  10  16
ATOM     16  C   UNL     1      -4.242 -10.772  16.576  0.00  0.00    +0.130 C 
BRANCH  16  18
ATOM      5  O   UNL     1      -1.872 -10.686  16.350  0.00  0.00    -0.276 OA
ATOM      7  N   UNL     1      -3.121 -10.630  14.406  0.00  0.00    -0.301 N 
ATOM     18  C   UNL     1      -2.964 -10.695  15.779  0.00  0.00    +0.218 C 
ATOM     19  C   UNL     1      -1.986 -10.545  13.499  0.00  0.00    +0.108 C 
ATOM     20  C   UNL     1      -4.381 -10.640  13.671  0.00  0.00    +0.108 C 
ATOM     21  C   UNL     1      -2.577 -10.824  12.125  0.00  0.00    +0.020 C 
ATOM     22  C   UNL     1      -3.992 -10.271  12.246  0.00  0.00    +0.020 C 
ENDBRANCH  16  18
ENDBRANCH  10  16
TORSDOF 7
ENDMDL
MODEL 5
REMARK VINA RESULT:      -5.4     26.254     28.268
REMARK  Name = 40781515
REMARK  7 active torsions:
REMARK  status: ('A' for Active; 'I' for Inactive)
REMARK    1  A    between atoms: O_2  and  C_11
REMARK    2  A    between atoms: O_3  and  C_12
REMARK    3  A    between atoms: N_6  and  C_15
REMARK    4  A    between atoms: C_8  and  C_15
REMARK    5  A    between atoms: C_9  and  C_17
REMARK    6  A    between atoms: C_10  and  C_16
REMARK    7  A    between atoms: C_16  and  C_18
REMARK                            x       y       z     vdW  Elec       q    Type
REMARK                         _______ _______ _______ _____ _____    ______ ____
ROOT
ATOM      1  O   UNL     1      -6.363 -11.342  16.808  0.00  0.00    -0.366 OA
ATOM      8  C   UNL     1      -7.030 -11.229  18.077  0.00  0.00    +0.167 C 
ATOM     10  C   UNL     1      -4.944 -11.494  17.035  0.00  0.00    +0.159 C 
ATOM     11  C   UNL     1      -5.946 -10.865  19.079  0.00  0.00    +0.176 C 
ATOM     12  C   UNL     1      -4.763 -11.642  18.541  0.00  0.00    +0.175 C 
ENDROOT
BRANCH  11   2
ATOM      2  O   UNL     1      -6.300 -11.224  20.396  0.00  0.00    -0.387 OA
ATOM     24  H   UNL     1      -5.812 -12.036  20.619  0.00  0.00    +0.210 HD
ENDBRANCH  11   2
BRANCH  12   3
ATOM      3  O   UNL     1      -4.890 -13.026  18.869  0.00  0.00    -0.387 OA
ATOM     25  H   UNL     1      -5.730 -13.135  19.347  0.00  0.00    +0.210 HD
ENDBRANCH  12   3
BRANCH   8  15
ATOM     15  C   UNL     1      -8.136 -10.191  17.984  0.00  0.00    +0.138 C 
BRANCH  15   6
ATOM      4  O   UNL     1     -10.928  -9.384  18.031  0.00  0.00    -0.276 OA
ATOM      6  N   UNL     1      -9.065 -10.326  19.066  0.00  0.00    -0.313 N 
ATOM     17  C   UNL     1     -10.388  -9.909  18.997  0.00  0.00    +0.216 C 
ATOM     23  H   UNL     1      -8.734 -10.757  19.924  0.00  0.00    +0.149 HD
BRANCH  17   9
ATOM      9  C   UNL     1     -11.176 -10.148  20.242  0.00  0.00    +0.075 C 
ATOM     13  C   UNL     1     -12.647  -9.851  20.243  0.00  0.00    +0.013 C 
ATOM     14  C   UNL     1     -12.168 -11.274  20.272  0.00  0.00    +0.013 C 
ENDBRANCH  17   9
ENDBRANCH  15   6
ENDBRANCH   8  15
BRANCH  10  16
ATOM     16  C   UNL     1      -4.248 -10.264  16.468  0.00  0.00    +0.130 C 
BRANCH  16  18
ATOM      5  O   UNL     1      -1.941 -10.859  16.428  0.00  0.00    -0.276 OA
ATOM      7  N   UNL     1      -3.041 -10.760  14.399  0.00  0.00    -0.301 N 
ATOM     18  C   UNL     1      -2.967 -10.657  15.776  0.00  0.00    +0.218 C 
ATOM     19  C   UNL     1      -1.891 -11.124  13.585  0.00  0.00    +0.108 C 
ATOM     20  C   UNL     1      -4.222 -10.539  13.570  0.00  0.00    +0.108 C 
ATOM     21  C   UNL     1      -2.478 -11.436  12.216  0.00  0.00    +0.020 C 
ATOM     22  C   UNL     1      -3.685 -10.508  12.146  0.00  0.00    +0.020 C 
ENDBRANCH  16  18
ENDBRANCH  10  16
TORSDOF 7
ENDMDL
MODEL 6
REMARK VINA RESULT:      -5.4     26.155     28.233
REMARK  Name = 40781515
REMARK  7 active torsions:
REMARK  status: ('A' for Active; 'I' for Inactive)
REMARK    1  A    between atoms: O_2  and  C_11
REMARK    2  A    between atoms: O_3  and  C_12
REMARK    3  A    between atoms: N_6  and  C_15
REMARK    4  A    between atoms: C_8  and  C_15
REMARK    5  A    between atoms: C_9  and  C_17
REMARK    6  A    between atoms: C_10  and  C_16
REMARK    7  A    between atoms: C_16  and  C_18
REMARK                            x       y       z     vdW  Elec       q    Type
REMARK                         _______ _______ _______ _____ _____    ______ ____
ROOT
ATOM      1  O   UNL     1      -6.768 -11.604  16.784  0.00  0.00    -0.366 OA
ATOM      8  C   UNL     1      -7.536 -10.761  17.660  0.00  0.00    +0.167 C 
ATOM     10  C   UNL     1      -6.015 -12.547  17.581  0.00  0.00    +0.159 C 
ATOM     11  C   UNL     1      -6.900 -10.907  19.033  0.00  0.00    +0.176 C 
ATOM     12  C   UNL     1      -6.483 -12.363  19.020  0.00  0.00    +0.175 C 
ENDROOT
BRANCH  11   2
ATOM      2  O   UNL     1      -7.803 -10.593  20.071  0.00  0.00    -0.387 OA
ATOM     24  H   UNL     1      -8.089  -9.673  19.939  0.00  0.00    +0.210 HD
ENDBRANCH  11   2
BRANCH  12   3
ATOM      3  O   UNL     1      -7.617 -13.205  19.228  0.00  0.00    -0.387 OA
ATOM     25  H   UNL     1      -7.930 -13.490  18.352  0.00  0.00    +0.210 HD
ENDBRANCH  12   3
BRANCH   8  15
ATOM     15  C   UNL     1      -7.522  -9.334  17.140  0.00  0.00    +0.138 C 
BRANCH  15   6
ATOM      4  O   UNL     1      -9.544  -8.407  15.267  0.00  0.00    -0.276 OA
ATOM      6  N   UNL     1      -8.749  -8.659  17.443  0.00  0.00    -0.313 N 
ATOM     17  C   UNL     1      -9.660  -8.252  16.477  0.00  0.00    +0.216 C 
ATOM     23  H   UNL     1      -8.962  -8.480  18.420  0.00  0.00    +0.149 HD
BRANCH  17   9
ATOM      9  C   UNL     1     -10.870  -7.568  17.020  0.00  0.00    +0.075 C 
ATOM     13  C   UNL     1     -11.937  -7.109  16.070  0.00  0.00    +0.013 C 
ATOM     14  C   UNL     1     -12.192  -8.279  16.974  0.00  0.00    +0.013 C 
ENDBRANCH  17   9
ENDBRANCH  15   6
ENDBRANCH   8  15
BRANCH  10  16
ATOM     16  C   UNL     1      -4.536 -12.239  17.390  0.00  0.00    +0.130 C 
BRANCH  16  18
ATOM      5  O   UNL     1      -4.667 -13.352  15.289  0.00  0.00    -0.276 OA
ATOM      7  N   UNL     1      -3.143 -11.626  15.475  0.00  0.00    -0.301 N 
ATOM     18  C   UNL     1      -4.132 -12.465  15.956  0.00  0.00    +0.218 C 
ATOM     19  C   UNL     1      -2.639 -11.720  14.113  0.00  0.00    +0.108 C 
ATOM     20  C   UNL     1      -2.474 -10.556  16.209  0.00  0.00    +0.108 C 
ATOM     21  C   UNL     1      -1.836 -10.443  13.916  0.00  0.00    +0.020 C 
ATOM     22  C   UNL     1      -1.308 -10.155  15.316  0.00  0.00    +0.020 C 
ENDBRANCH  16  18
ENDBRANCH  10  16
TORSDOF 7
ENDMDL
MODEL 7
REMARK VINA RESULT:      -5.3     16.947     20.638
REMARK  Name = 40781515
REMARK  7 active torsions:
REMARK  status: ('A' for Active; 'I' for Inactive)
REMARK    1  A    between atoms: O_2  and  C_11
REMARK    2  A    between atoms: O_3  and  C_12
REMARK    3  A    between atoms: N_6  and  C_15
REMARK    4  A    between atoms: C_8  and  C_15
REMARK    5  A    between atoms: C_9  and  C_17
REMARK    6  A    between atoms: C_10  and  C_16
REMARK    7  A    between atoms: C_16  and  C_18
REMARK                            x       y       z     vdW  Elec       q    Type
REMARK                         _______ _______ _______ _____ _____    ______ ____
ROOT
ATOM      1  O   UNL     1      12.654   3.386   0.932  0.00  0.00    -0.366 OA
ATOM      8  C   UNL     1      12.607   4.331   2.015  0.00  0.00    +0.167 C 
ATOM     10  C   UNL     1      13.978   3.401   0.352  0.00  0.00    +0.159 C 
ATOM     11  C   UNL     1      13.796   5.253   1.807  0.00  0.00    +0.176 C 
ATOM     12  C   UNL     1      14.828   4.296   1.246  0.00  0.00    +0.175 C 
ENDROOT
BRANCH  11   2
ATOM      2  O   UNL     1      14.202   5.873   3.007  0.00  0.00    -0.387 OA
ATOM     24  H   UNL     1      13.408   6.249   3.424  0.00  0.00    +0.210 HD
ENDBRANCH  11   2
BRANCH  12   3
ATOM      3  O   UNL     1      15.373   3.489   2.290  0.00  0.00    -0.387 OA
ATOM     25  H   UNL     1      16.342   3.521   2.205  0.00  0.00    +0.210 HD
ENDBRANCH  12   3
BRANCH   8  15
ATOM     15  C   UNL     1      11.273   5.057   2.003  0.00  0.00    +0.138 C 
BRANCH  15   6
ATOM      4  O   UNL     1      11.634   6.229   4.639  0.00  0.00    -0.276 OA
ATOM      6  N   UNL     1      10.522   4.781   3.192  0.00  0.00    -0.313 N 
ATOM     17  C   UNL     1      10.767   5.393   4.414  0.00  0.00    +0.216 C 
ATOM     23  H   UNL     1       9.765   4.106   3.128  0.00  0.00    +0.149 HD
BRANCH  17   9
ATOM      9  C   UNL     1       9.862   4.955   5.516  0.00  0.00    +0.075 C 
ATOM     13  C   UNL     1       9.927   5.662   6.838  0.00  0.00    +0.013 C 
ATOM     14  C   UNL     1       8.740   5.858   5.941  0.00  0.00    +0.013 C 
ENDBRANCH  17   9
ENDBRANCH  15   6
ENDBRANCH   8  15
BRANCH  10  16
ATOM     16  C   UNL     1      13.856   3.925  -1.073  0.00  0.00    +0.130 C 
BRANCH  16  18
ATOM      5  O   UNL     1      12.323   2.332  -1.962  0.00  0.00    -0.276 OA
ATOM      7  N   UNL     1      11.625   4.533  -1.871  0.00  0.00    -0.301 N 
ATOM     18  C   UNL     1      12.537   3.511  -1.674  0.00  0.00    +0.218 C 
ATOM     19  C   UNL     1      10.309   4.299  -2.447  0.00  0.00    +0.108 C 
ATOM     20  C   UNL     1      11.813   5.944  -1.549  0.00  0.00    +0.108 C 
ATOM     21  C   UNL     1       9.544   5.587  -2.181  0.00  0.00    +0.020 C 
ATOM     22  C   UNL     1      10.639   6.646  -2.217  0.00  0.00    +0.020 C 
ENDBRANCH  16  18
ENDBRANCH  10  16
TORSDOF 7
ENDMDL
MODEL 8
REMARK VINA RESULT:      -5.2     25.931     28.175
REMARK  Name = 40781515
REMARK  7 active torsions:
REMARK  status: ('A' for Active; 'I' for Inactive)
REMARK    1  A    between atoms: O_2  and  C_11
REMARK    2  A    between atoms: O_3  and  C_12
REMARK    3  A    between atoms: N_6  and  C_15
REMARK    4  A    between atoms: C_8  and  C_15
REMARK    5  A    between atoms: C_9  and  C_17
REMARK    6  A    between atoms: C_10  and  C_16
REMARK    7  A    between atoms: C_16  and  C_18
REMARK                            x       y       z     vdW  Elec       q    Type
REMARK                         _______ _______ _______ _____ _____    ______ ____
ROOT
ATOM      1  O   UNL     1      -3.335 -10.069  16.420  0.00  0.00    -0.366 OA
ATOM      8  C   UNL     1      -2.673 -11.105  15.673  0.00  0.00    +0.167 C 
ATOM     10  C   UNL     1      -4.643 -10.539  16.818  0.00  0.00    +0.159 C 
ATOM     11  C   UNL     1      -3.771 -12.059  15.234  0.00  0.00    +0.176 C 
ATOM     12  C   UNL     1      -4.710 -12.010  16.422  0.00  0.00    +0.175 C 
ENDROOT
BRANCH  11   2
ATOM      2  O   UNL     1      -3.273 -13.353  14.967  0.00  0.00    -0.387 OA
ATOM     24  H   UNL     1      -3.765 -13.976  15.529  0.00  0.00    +0.210 HD
ENDBRANCH  11   2
BRANCH  12   3
ATOM      3  O   UNL     1      -4.183 -12.783  17.501  0.00  0.00    -0.387 OA
ATOM     25  H   UNL     1      -3.842 -13.612  17.123  0.00  0.00    +0.210 HD
ENDBRANCH  12   3
BRANCH   8  15
ATOM     15  C   UNL     1      -1.910 -10.491  14.512  0.00  0.00    +0.138 C 
BRANCH  15   6
ATOM      4  O   UNL     1      -1.042  -9.744  11.839  0.00  0.00    -0.276 OA
ATOM      6  N   UNL     1      -2.658 -10.583  13.294  0.00  0.00    -0.313 N 
ATOM     17  C   UNL     1      -2.158 -10.201  12.055  0.00  0.00    +0.216 C 
ATOM     23  H   UNL     1      -3.602 -10.957  13.344  0.00  0.00    +0.149 HD
BRANCH  17   9
ATOM      9  C   UNL     1      -3.111 -10.385  10.922  0.00  0.00    +0.075 C 
ATOM     13  C   UNL     1      -4.486  -9.791  11.020  0.00  0.00    +0.013 C 
ATOM     14  C   UNL     1      -3.479  -9.200  10.077  0.00  0.00    +0.013 C 
ENDBRANCH  17   9
ENDBRANCH  15   6
ENDBRANCH   8  15
BRANCH  10  16
ATOM     16  C   UNL     1      -5.682  -9.682  16.107  0.00  0.00    +0.130 C 
BRANCH  16  18
ATOM      5  O   UNL     1      -7.080  -9.754  18.034  0.00  0.00    -0.276 OA
ATOM      7  N   UNL     1      -8.113  -9.919  15.973  0.00  0.00    -0.301 N 
ATOM     18  C   UNL     1      -7.014  -9.785  16.804  0.00  0.00    +0.218 C 
ATOM     19  C   UNL     1      -9.468 -10.036  16.491  0.00  0.00    +0.108 C 
ATOM     20  C   UNL     1      -8.103  -9.957  14.515  0.00  0.00    +0.108 C 
ATOM     21  C   UNL     1     -10.358  -9.831  15.275  0.00  0.00    +0.020 C 
ATOM     22  C   UNL     1      -9.513 -10.392  14.138  0.00  0.00    +0.020 C 
ENDBRANCH  16  18
ENDBRANCH  10  16
TORSDOF 7
ENDMDL
MODEL 9
REMARK VINA RESULT:      -5.2     25.779     27.698
REMARK  Name = 40781515
REMARK  7 active torsions:
REMARK  status: ('A' for Active; 'I' for Inactive)
REMARK    1  A    between atoms: O_2  and  C_11
REMARK    2  A    between atoms: O_3  and  C_12
REMARK    3  A    between atoms: N_6  and  C_15
REMARK    4  A    between atoms: C_8  and  C_15
REMARK    5  A    between atoms: C_9  and  C_17
REMARK    6  A    between atoms: C_10  and  C_16
REMARK    7  A    between atoms: C_16  and  C_18
REMARK                            x       y       z     vdW  Elec       q    Type
REMARK                         _______ _______ _______ _____ _____    ______ ____
ROOT
ATOM      1  O   UNL     1     -14.762   4.961  21.708  0.00  0.00    -0.366 OA
ATOM      8  C   UNL     1     -14.144   6.236  21.464  0.00  0.00    +0.167 C 
ATOM     10  C   UNL     1     -15.818   5.129  22.682  0.00  0.00    +0.159 C 
ATOM     11  C   UNL     1     -14.542   7.116  22.638  0.00  0.00    +0.176 C 
ATOM     12  C   UNL     1     -15.948   6.629  22.919  0.00  0.00    +0.175 C 
ENDROOT
BRANCH  11   2
ATOM      2  O   UNL     1     -14.479   8.489  22.315  0.00  0.00    -0.387 OA
ATOM     24  H   UNL     1     -15.185   8.938  22.812  0.00  0.00    +0.210 HD
ENDBRANCH  11   2
BRANCH  12   3
ATOM      3  O   UNL     1     -16.857   7.153  21.951  0.00  0.00    -0.387 OA
ATOM     25  H   UNL     1     -17.696   6.672  22.050  0.00  0.00    +0.210 HD
ENDBRANCH  12   3
BRANCH   8  15
ATOM     15  C   UNL     1     -12.642   6.059  21.328  0.00  0.00    +0.138 C 
BRANCH  15   6
ATOM      4  O   UNL     1     -11.309   6.877  18.876  0.00  0.00    -0.276 OA
ATOM      6  N   UNL     1     -11.994   7.309  21.061  0.00  0.00    -0.313 N 
ATOM     17  C   UNL     1     -11.381   7.613  19.852  0.00  0.00    +0.216 C 
ATOM     23  H   UNL     1     -11.996   8.010  21.797  0.00  0.00    +0.149 HD
BRANCH  17   9
ATOM      9  C   UNL     1     -10.771   8.974  19.795  0.00  0.00    +0.075 C 
ATOM     13  C   UNL     1     -10.153   9.443  18.511  0.00  0.00    +0.013 C 
ATOM     14  C   UNL     1     -11.445  10.042  18.983  0.00  0.00    +0.013 C 
ENDBRANCH  17   9
ENDBRANCH  15   6
ENDBRANCH   8  15
BRANCH  10  16
ATOM     16  C   UNL     1     -15.422   4.359  23.935  0.00  0.00    +0.130 C 
BRANCH  16  18
ATOM      5  O   UNL     1     -16.451   2.451  22.947  0.00  0.00    -0.276 OA
ATOM      7  N   UNL     1     -16.415   2.555  25.255  0.00  0.00    -0.301 N 
ATOM     18  C   UNL     1     -16.140   3.035  23.987  0.00  0.00    +0.218 C 
ATOM     19  C   UNL     1     -17.107   1.293  25.474  0.00  0.00    +0.108 C 
ATOM     20  C   UNL     1     -16.071   3.192  26.521  0.00  0.00    +0.108 C 
ATOM     21  C   UNL     1     -16.906   1.002  26.954  0.00  0.00    +0.020 C 
ATOM     22  C   UNL     1     -16.840   2.395  27.567  0.00  0.00    +0.020 C 
ENDBRANCH  16  18
ENDBRANCH  10  16
TORSDOF 7
ENDMDL
MODEL 10
REMARK VINA RESULT:      -5.1     26.502     27.888
REMARK  Name = 40781515
REMARK  7 active torsions:
REMARK  status: ('A' for Active; 'I' for Inactive)
REMARK    1  A    between atoms: O_2  and  C_11
REMARK    2  A    between atoms: O_3  and  C_12
REMARK    3  A    between atoms: N_6  and  C_15
REMARK    4  A    between atoms: C_8  and  C_15
REMARK    5  A    between atoms: C_9  and  C_17
REMARK    6  A    between atoms: C_10  and  C_16
REMARK    7  A    between atoms: C_16  and  C_18
REMARK                            x       y       z     vdW  Elec       q    Type
REMARK                         _______ _______ _______ _____ _____    ______ ____
ROOT
ATOM      1  O   UNL     1      -4.380 -11.055  12.082  0.00  0.00    -0.366 OA
ATOM      8  C   UNL     1      -4.059 -11.052  13.483  0.00  0.00    +0.167 C 
ATOM     10  C   UNL     1      -3.159 -10.926  11.319  0.00  0.00    +0.159 C 
ATOM     11  C   UNL     1      -2.659 -10.469  13.582  0.00  0.00    +0.176 C 
ATOM     12  C   UNL     1      -2.014 -11.011  12.323  0.00  0.00    +0.175 C 
ENDROOT
BRANCH  11   2
ATOM      2  O   UNL     1      -2.001 -10.869  14.765  0.00  0.00    -0.387 OA
ATOM     24  H   UNL     1      -2.114 -10.156  15.417  0.00  0.00    +0.210 HD
ENDBRANCH  11   2
BRANCH  12   3
ATOM      3  O   UNL     1      -1.677 -12.388  12.494  0.00  0.00    -0.387 OA
ATOM     25  H   UNL     1      -2.001 -12.865  11.710  0.00  0.00    +0.210 HD
ENDBRANCH  12   3
BRANCH   8  15
ATOM     15  C   UNL     1      -5.100 -10.251  14.245  0.00  0.00    +0.138 C 
BRANCH  15   6
ATOM      4  O   UNL     1      -6.079 -11.885  16.442  0.00  0.00    -0.276 OA
ATOM      6  N   UNL     1      -4.759 -10.144  15.632  0.00  0.00    -0.313 N 
ATOM     17  C   UNL     1      -5.279 -10.974  16.617  0.00  0.00    +0.216 C 
ATOM     23  H   UNL     1      -4.093  -9.426  15.902  0.00  0.00    +0.149 HD
BRANCH  17   9
ATOM      9  C   UNL     1      -4.783 -10.684  17.994  0.00  0.00    +0.075 C 
ATOM     13  C   UNL     1      -5.542 -11.222  19.172  0.00  0.00    +0.013 C 
ATOM     14  C   UNL     1      -4.204 -11.801  18.812  0.00  0.00    +0.013 C 
ENDBRANCH  17   9
ENDBRANCH  15   6
ENDBRANCH   8  15
BRANCH  10  16
ATOM     16  C   UNL     1      -3.208  -9.593  10.584  0.00  0.00    +0.130 C 
BRANCH  16  18
ATOM      5  O   UNL     1      -5.243  -8.504  11.172  0.00  0.00    -0.276 OA
ATOM      7  N   UNL     1      -5.189  -9.617   9.148  0.00  0.00    -0.301 N 
ATOM     18  C   UNL     1      -4.637  -9.180  10.340  0.00  0.00    +0.218 C 
ATOM     19  C   UNL     1      -6.559  -9.307   8.767  0.00  0.00    +0.108 C 
ATOM     20  C   UNL     1      -4.526 -10.413   8.121  0.00  0.00    +0.108 C 
ATOM     21  C   UNL     1      -6.637  -9.680   7.294  0.00  0.00    +0.020 C 
ATOM     22  C   UNL     1      -5.650 -10.835   7.184  0.00  0.00    +0.020 C 
ENDBRANCH  16  18
ENDBRANCH  10  16
TORSDOF 7
ENDMDL
