REMARK  Name = 11886501
REMARK  8 active torsions:
REMARK  status: ('A' for Active; 'I' for Inactive)
REMARK    1  A    between atoms: S_1  and  N_8
REMARK    2  A    between atoms: S_1  and  C_17
REMARK    3  A    between atoms: O_4  and  C_13
REMARK    4  A    between atoms: O_4  and  C_16
REMARK    5  A    between atoms: N_8  and  C_12
REMARK    6  A    between atoms: N_9  and  C_25
REMARK    7  A    between atoms: C_16  and  C_18
REMARK    8  A    between atoms: C_29  and  C_30
REMARK                            x       y       z     vdW  Elec       q    Type
REMARK                         _______ _______ _______ _____ _____    ______ ____
ROOT
ATOM      8  N   UNL     1       0.739  -2.258   0.219  0.00  0.00    -0.182 NA
ATOM     31  H   UNL     1       0.190  -2.362   1.081  0.00  0.00    +0.148 HD
ENDROOT
BRANCH   8  12
ATOM      2  O   UNL     1      -2.049  -1.153  -0.670  0.00  0.00    -0.370 OA
ATOM      3  O   UNL     1      -0.053   1.179  -0.861  0.00  0.00    -0.370 OA
ATOM     10  C   UNL     1      -0.108   0.031   0.011  0.00  0.00    +0.170 C 
ATOM     11  C   UNL     1      -1.572  -0.221   0.314  0.00  0.00    +0.179 C 
ATOM     12  C   UNL     1       0.326  -1.205  -0.738  0.00  0.00    +0.133 C 
ATOM     13  C   UNL     1      -2.185   1.147   0.132  0.00  0.00    +0.175 C 
ATOM     14  C   UNL     1      -0.942  -1.629  -1.452  0.00  0.00    +0.183 C 
ATOM     15  C   UNL     1      -1.378   1.706  -1.018  0.00  0.00    +0.194 C 
BRANCH  13   4
ATOM      4  O   UNL     1      -3.564   1.112  -0.156  0.00  0.00    -0.367 OA
BRANCH   4  16
ATOM     16  C   UNL     1      -4.322   0.584   0.930  0.00  0.00    +0.195 C 
BRANCH  16  18
ATOM     18  C   UNL     1      -5.775   0.576   0.555  0.00  0.00    -0.022 A 
ATOM     21  C   UNL     1      -6.565   1.685   0.837  0.00  0.00    +0.006 A 
ATOM     22  C   UNL     1      -6.319  -0.539  -0.072  0.00  0.00    +0.006 A 
ATOM     26  C   UNL     1      -7.915   1.679   0.489  0.00  0.00    +0.000 A 
ATOM     27  C   UNL     1      -7.670  -0.546  -0.421  0.00  0.00    +0.000 A 
ATOM     28  C   UNL     1      -8.468   0.563  -0.141  0.00  0.00    +0.000 A 
ENDBRANCH  16  18
ENDBRANCH   4  16
ENDBRANCH  13   4
ENDBRANCH   8  12
BRANCH   8   1
ATOM      1  S   UNL     1       2.276  -2.967   0.084  0.00  0.00    +0.059 S 
ATOM      5  O   UNL     1       2.455  -3.479  -1.262  0.00  0.00    -0.153 OA
ATOM      6  O   UNL     1       2.494  -3.831   1.228  0.00  0.00    -0.153 OA
BRANCH   1  17
ATOM     17  C   UNL     1       3.341  -1.570   0.281  0.00  0.00    +0.105 A 
ATOM     19  C   UNL     1       3.728  -0.852  -0.837  0.00  0.00    +0.030 A 
ATOM     20  C   UNL     1       3.768  -1.220   1.551  0.00  0.00    +0.030 A 
ATOM     23  C   UNL     1       4.568   0.251  -0.681  0.00  0.00    +0.025 A 
ATOM     24  C   UNL     1       4.608  -0.118   1.706  0.00  0.00    +0.025 A 
ATOM     25  C   UNL     1       5.008   0.618   0.591  0.00  0.00    +0.033 A 
BRANCH  25   9
ATOM      7  O   UNL     1       6.144   2.514  -1.454  0.00  0.00    -0.276 OA
ATOM      9  N   UNL     1       5.849   1.721   0.746  0.00  0.00    -0.286 N 
ATOM     29  C   UNL     1       6.351   2.572  -0.246  0.00  0.00    +0.214 C 
ATOM     30  C   UNL     1       7.229   3.652   0.335  0.00  0.00    +0.109 C 
ATOM     32  H   UNL     1       6.126   1.923   1.705  0.00  0.00    +0.155 HD
ENDBRANCH  25   9
ENDBRANCH   1  17
ENDBRANCH   8   1
TORSDOF 7
