REMARK  Name = 7134558
REMARK  4 active torsions:
REMARK  status: ('A' for Active; 'I' for Inactive)
REMARK    1  A    between atoms: N_9  and  C_14
REMARK    2  A    between atoms: N_10  and  C_27
REMARK    3  A    between atoms: C_19  and  C_24
REMARK    4  A    between atoms: C_34  and  C_37
REMARK                            x       y       z     vdW  Elec       q    Type
REMARK                         _______ _______ _______ _____ _____    ______ ____
ROOT
ATOM      7  O   UNL     1      -1.615   3.323  -1.694  0.00  0.00    -0.276 OA
ATOM      9  N   UNL     1      -0.124   3.255   0.074  0.00  0.00    -0.312 N 
ATOM     24  C   UNL     1      -1.396   3.292  -0.479  0.00  0.00    +0.216 C 
ATOM     38  H   UNL     1      -0.025   3.238   1.084  0.00  0.00    +0.149 HD
ENDROOT
BRANCH  24  19
ATOM     11  N   UNL     1      -4.196   0.986   0.138  0.00  0.00    -0.300 N 
ATOM     12  N   UNL     1      -4.582  -1.336   0.309  0.00  0.00    -0.210 NA
ATOM     13  N   UNL     1      -6.233   0.116  -0.678  0.00  0.00    -0.223 NA
ATOM     19  C   UNL     1      -2.491   3.300   0.547  0.00  0.00    +0.078 C 
ATOM     22  C   UNL     1      -3.857   3.410  -0.127  0.00  0.00    +0.032 C 
ATOM     23  C   UNL     1      -2.417   2.073   1.453  0.00  0.00    +0.032 C 
ATOM     25  C   UNL     1      -4.293   2.110  -0.801  0.00  0.00    +0.108 C 
ATOM     26  C   UNL     1      -2.892   0.785   0.776  0.00  0.00    +0.108 C 
ATOM     28  C   UNL     1      -5.032  -0.115  -0.084  0.00  0.00    +0.218 A 
ATOM     34  C   UNL     1      -5.413  -2.374   0.080  0.00  0.00    +0.149 A 
ATOM     35  C   UNL     1      -7.013  -0.967  -0.877  0.00  0.00    +0.116 A 
ATOM     36  C   UNL     1      -6.652  -2.248  -0.515  0.00  0.00    +0.052 A 
BRANCH  34  37
ATOM      2  F   UNL     1      -5.825  -4.725   0.244  0.00  0.00    -0.164 F 
ATOM      3  F   UNL     1      -3.775  -4.107  -0.102  0.00  0.00    -0.164 F 
ATOM      4  F   UNL     1      -4.689  -3.792   1.846  0.00  0.00    -0.164 F 
ATOM     37  C   UNL     1      -4.936  -3.722   0.506  0.00  0.00    +0.434 C 
ENDBRANCH  34  37
ENDBRANCH  24  19
BRANCH   9  14
ATOM      5  O   UNL     1       2.329  -1.109  -0.915  0.00  0.00    -0.273 OA
ATOM      6  O   UNL     1       5.339   1.681   1.256  0.00  0.00    -0.252 OA
ATOM      8  N   UNL     1       3.078   1.819   0.753  0.00  0.00    -0.273 N 
ATOM     10  N   UNL     1       4.159  -0.047   0.148  0.00  0.00    -0.193 N 
ATOM     14  C   UNL     1       1.084   3.250  -0.718  0.00  0.00    +0.077 C 
ATOM     15  C   UNL     1       2.060   1.052   0.089  0.00  0.00    +0.166 C 
ATOM     16  C   UNL     1       1.492   1.817  -1.103  0.00  0.00    +0.054 C 
ATOM     17  C   UNL     1       2.223   3.982   0.013  0.00  0.00    +0.041 C 
ATOM     18  C   UNL     1       2.777   3.172   1.187  0.00  0.00    +0.112 C 
ATOM     20  C   UNL     1       2.853  -0.179  -0.314  0.00  0.00    +0.248 C 
ATOM     21  C   UNL     1       4.321   1.185   0.790  0.00  0.00    +0.316 C 
BRANCH  10  27
ATOM      1 CL   UNL     1       8.465  -4.081  -0.588  0.00  0.00    -0.084 Cl
ATOM     27  C   UNL     1       5.195  -1.018  -0.029  0.00  0.00    +0.046 A 
ATOM     29  C   UNL     1       5.192  -1.852  -1.151  0.00  0.00    +0.025 A 
ATOM     30  C   UNL     1       6.215  -1.138   0.919  0.00  0.00    +0.025 A 
ATOM     31  C   UNL     1       6.203  -2.798  -1.323  0.00  0.00    +0.022 A 
ATOM     32  C   UNL     1       7.225  -2.084   0.746  0.00  0.00    +0.022 A 
ATOM     33  C   UNL     1       7.219  -2.914  -0.375  0.00  0.00    +0.041 A 
ENDBRANCH  10  27
ENDBRANCH   9  14
TORSDOF 4
