MODEL 1
REMARK VINA RESULT:      -7.0      0.000      0.000
REMARK  Name = 7143905
REMARK  3 active torsions:
REMARK  status: ('A' for Active; 'I' for Inactive)
REMARK    1  A    between atoms: S_1  and  N_5
REMARK    2  A    between atoms: S_1  and  C_20
REMARK    3  A    between atoms: C_18  and  C_21
REMARK                            x       y       z     vdW  Elec       q    Type
REMARK                         _______ _______ _______ _____ _____    ______ ____
ROOT
ATOM      4  O   UNL     1      15.205  10.197  22.575  0.00  0.00    -0.267 OA
ATOM      5  N   UNL     1      12.308   8.171  19.062  0.00  0.00    -0.176 NA
ATOM      6  N   UNL     1      13.143   9.379  21.859  0.00  0.00    -0.311 N 
ATOM      9  C   UNL     1      12.789   6.935  21.177  0.00  0.00    +0.025 C 
ATOM     10  C   UNL     1      10.907   8.511  21.087  0.00  0.00    +0.052 C 
ATOM     11  C   UNL     1      11.356   7.161  21.640  0.00  0.00    +0.017 C 
ATOM     12  C   UNL     1      12.865   6.916  19.642  0.00  0.00    +0.114 C 
ATOM     13  C   UNL     1      10.928   8.470  19.549  0.00  0.00    +0.119 C 
ATOM     14  C   UNL     1      13.686   8.015  21.794  0.00  0.00    +0.130 C 
ATOM     15  C   UNL     1      11.793   9.632  21.598  0.00  0.00    +0.026 A 
ATOM     16  C   UNL     1      11.293  10.865  21.777  0.00  0.00    +0.022 A 
ATOM     17  C   UNL     1      14.019  10.389  22.301  0.00  0.00    +0.259 A 
ATOM     18  C   UNL     1      13.436  11.768  22.458  0.00  0.00    +0.050 A 
ATOM     19  C   UNL     1      12.132  11.946  22.208  0.00  0.00    +0.015 A 
ENDROOT
BRANCH  18  21
ATOM      7  N   UNL     1      15.761  14.709  22.299  0.00  0.00    -0.243 NA
ATOM      8  N   UNL     1      15.154  14.325  24.599  0.00  0.00    -0.243 NA
ATOM     21  C   UNL     1      14.275  12.908  22.868  0.00  0.00    +0.024 A 
ATOM     26  C   UNL     1      14.985  13.659  21.957  0.00  0.00    +0.122 A 
ATOM     27  C   UNL     1      14.396  13.287  24.187  0.00  0.00    +0.122 A 
ATOM     29  C   UNL     1      15.799  14.982  23.616  0.00  0.00    +0.221 A 
ENDBRANCH  18  21
BRANCH   5   1
ATOM      1  S   UNL     1      12.563   8.388  17.384  0.00  0.00    +0.061 S 
ATOM      2  O   UNL     1      11.282   8.486  16.718  0.00  0.00    -0.153 OA
ATOM      3  O   UNL     1      13.566   7.445  16.934  0.00  0.00    -0.153 OA
BRANCH   1  20
ATOM     20  C   UNL     1      13.293   9.996  17.387  0.00  0.00    +0.105 A 
ATOM     22  C   UNL     1      13.260  10.753  18.547  0.00  0.00    +0.028 A 
ATOM     23  C   UNL     1      13.887  10.473  16.230  0.00  0.00    +0.028 A 
ATOM     24  C   UNL     1      13.835  12.023  18.550  0.00  0.00    +0.002 A 
ATOM     25  C   UNL     1      14.462  11.744  16.233  0.00  0.00    +0.002 A 
ATOM     28  C   UNL     1      14.436  12.519  17.392  0.00  0.00    +0.000 A 
ENDBRANCH   1  20
ENDBRANCH   5   1
TORSDOF 3
ENDMDL
MODEL 2
REMARK VINA RESULT:      -6.6     24.671     27.223
REMARK  Name = 7143905
REMARK  3 active torsions:
REMARK  status: ('A' for Active; 'I' for Inactive)
REMARK    1  A    between atoms: S_1  and  N_5
REMARK    2  A    between atoms: S_1  and  C_20
REMARK    3  A    between atoms: C_18  and  C_21
REMARK                            x       y       z     vdW  Elec       q    Type
REMARK                         _______ _______ _______ _____ _____    ______ ____
ROOT
ATOM      4  O   UNL     1     -14.896   9.228  20.031  0.00  0.00    -0.267 OA
ATOM      5  N   UNL     1     -11.442   9.574  16.453  0.00  0.00    -0.176 NA
ATOM      6  N   UNL     1     -12.675   9.466  19.360  0.00  0.00    -0.311 N 
ATOM      9  C   UNL     1     -11.849  11.482  18.012  0.00  0.00    +0.025 C 
ATOM     10  C   UNL     1     -10.272   9.708  18.643  0.00  0.00    +0.052 C 
ATOM     11  C   UNL     1     -10.515  11.214  18.695  0.00  0.00    +0.017 C 
ATOM     12  C   UNL     1     -11.810  11.016  16.548  0.00  0.00    +0.114 C 
ATOM     13  C   UNL     1     -10.175   9.253  17.175  0.00  0.00    +0.119 C 
ATOM     14  C   UNL     1     -12.965  10.799  18.814  0.00  0.00    +0.130 C 
ATOM     15  C   UNL     1     -11.376   8.951  19.358  0.00  0.00    +0.026 A 
ATOM     16  C   UNL     1     -11.114   7.783  19.966  0.00  0.00    +0.022 A 
ATOM     17  C   UNL     1     -13.745   8.790  19.978  0.00  0.00    +0.259 A 
ATOM     18  C   UNL     1     -13.427   7.466  20.620  0.00  0.00    +0.050 A 
ATOM     19  C   UNL     1     -12.159   7.031  20.600  0.00  0.00    +0.015 A 
ENDROOT
BRANCH  18  21
ATOM      7  N   UNL     1     -16.332   5.134  21.061  0.00  0.00    -0.243 NA
ATOM      8  N   UNL     1     -15.598   5.875  23.233  0.00  0.00    -0.243 NA
ATOM     21  C   UNL     1     -14.479   6.652  21.253  0.00  0.00    +0.024 A 
ATOM     26  C   UNL     1     -15.357   5.890  20.514  0.00  0.00    +0.122 A 
ATOM     27  C   UNL     1     -14.646   6.608  22.620  0.00  0.00    +0.122 A 
ATOM     29  C   UNL     1     -16.395   5.173  22.405  0.00  0.00    +0.221 A 
ENDBRANCH  18  21
BRANCH   5   1
ATOM      1  S   UNL     1     -11.611   8.868  14.904  0.00  0.00    +0.061 S 
ATOM      2  O   UNL     1     -10.684   7.762  14.784  0.00  0.00    -0.153 OA
ATOM      3  O   UNL     1     -11.649   9.918  13.908  0.00  0.00    -0.153 OA
BRANCH   1  20
ATOM     20  C   UNL     1     -13.237   8.194  15.047  0.00  0.00    +0.105 A 
ATOM     22  C   UNL     1     -13.813   7.576  13.950  0.00  0.00    +0.028 A 
ATOM     23  C   UNL     1     -13.908   8.295  16.254  0.00  0.00    +0.028 A 
ATOM     24  C   UNL     1     -15.098   7.045  14.062  0.00  0.00    +0.002 A 
ATOM     25  C   UNL     1     -15.194   7.763  16.366  0.00  0.00    +0.002 A 
ATOM     28  C   UNL     1     -15.788   7.139  15.271  0.00  0.00    +0.000 A 
ENDBRANCH   1  20
ENDBRANCH   5   1
TORSDOF 3
ENDMDL
MODEL 3
REMARK VINA RESULT:      -6.3     15.259     18.905
REMARK  Name = 7143905
REMARK  3 active torsions:
REMARK  status: ('A' for Active; 'I' for Inactive)
REMARK    1  A    between atoms: S_1  and  N_5
REMARK    2  A    between atoms: S_1  and  C_20
REMARK    3  A    between atoms: C_18  and  C_21
REMARK                            x       y       z     vdW  Elec       q    Type
REMARK                         _______ _______ _______ _____ _____    ______ ____
ROOT
ATOM      4  O   UNL     1      10.834   6.803   0.930  0.00  0.00    -0.267 OA
ATOM      5  N   UNL     1      11.277   7.067   5.888  0.00  0.00    -0.176 NA
ATOM      6  N   UNL     1      10.238   6.091   3.069  0.00  0.00    -0.311 N 
ATOM      9  C   UNL     1       9.116   7.637   4.775  0.00  0.00    +0.025 C 
ATOM     10  C   UNL     1       9.599   5.305   5.376  0.00  0.00    +0.052 C 
ATOM     11  C   UNL     1       8.495   6.357   5.316  0.00  0.00    +0.017 C 
ATOM     12  C   UNL     1      10.242   8.125   5.700  0.00  0.00    +0.114 C 
ATOM     13  C   UNL     1      10.699   5.769   6.348  0.00  0.00    +0.119 C 
ATOM     14  C   UNL     1       9.602   7.387   3.342  0.00  0.00    +0.130 C 
ATOM     15  C   UNL     1      10.185   5.050   4.000  0.00  0.00    +0.026 A 
ATOM     16  C   UNL     1      10.669   3.839   3.683  0.00  0.00    +0.022 A 
ATOM     17  C   UNL     1      10.801   5.920   1.789  0.00  0.00    +0.259 A 
ATOM     18  C   UNL     1      11.369   4.561   1.477  0.00  0.00    +0.050 A 
ATOM     19  C   UNL     1      11.274   3.597   2.404  0.00  0.00    +0.015 A 
ENDROOT
BRANCH  18  21
ATOM      7  N   UNL     1      11.872   3.733  -2.147  0.00  0.00    -0.243 NA
ATOM      8  N   UNL     1      14.027   4.063  -1.122  0.00  0.00    -0.243 NA
ATOM     21  C   UNL     1      12.024   4.286   0.187  0.00  0.00    +0.024 A 
ATOM     26  C   UNL     1      11.304   3.990  -0.950  0.00  0.00    +0.122 A 
ATOM     27  C   UNL     1      13.394   4.309   0.043  0.00  0.00    +0.122 A 
ATOM     29  C   UNL     1      13.217   3.786  -2.161  0.00  0.00    +0.221 A 
ENDBRANCH  18  21
BRANCH   5   1
ATOM      1  S   UNL     1      12.707   7.564   6.685  0.00  0.00    +0.061 S 
ATOM      2  O   UNL     1      13.112   6.534   7.618  0.00  0.00    -0.153 OA
ATOM      3  O   UNL     1      12.555   8.939   7.114  0.00  0.00    -0.153 OA
BRANCH   1  20
ATOM     20  C   UNL     1      13.840   7.540   5.331  0.00  0.00    +0.105 A 
ATOM     22  C   UNL     1      13.367   7.276   4.056  0.00  0.00    +0.028 A 
ATOM     23  C   UNL     1      15.183   7.786   5.567  0.00  0.00    +0.028 A 
ATOM     24  C   UNL     1      14.262   7.256   2.987  0.00  0.00    +0.002 A 
ATOM     25  C   UNL     1      16.078   7.766   4.497  0.00  0.00    +0.002 A 
ATOM     28  C   UNL     1      15.618   7.501   3.208  0.00  0.00    +0.000 A 
ENDBRANCH   1  20
ENDBRANCH   5   1
TORSDOF 3
ENDMDL
MODEL 4
REMARK VINA RESULT:      -6.3     27.582     29.819
REMARK  Name = 7143905
REMARK  3 active torsions:
REMARK  status: ('A' for Active; 'I' for Inactive)
REMARK    1  A    between atoms: S_1  and  N_5
REMARK    2  A    between atoms: S_1  and  C_20
REMARK    3  A    between atoms: C_18  and  C_21
REMARK                            x       y       z     vdW  Elec       q    Type
REMARK                         _______ _______ _______ _____ _____    ______ ____
ROOT
ATOM      4  O   UNL     1      -6.654 -10.571  14.233  0.00  0.00    -0.267 OA
ATOM      5  N   UNL     1      -2.391 -12.938  13.198  0.00  0.00    -0.176 NA
ATOM      6  N   UNL     1      -4.324 -10.672  14.250  0.00  0.00    -0.311 N 
ATOM      9  C   UNL     1      -2.932 -10.761  12.102  0.00  0.00    +0.025 C 
ATOM     10  C   UNL     1      -1.807 -10.780  14.286  0.00  0.00    +0.052 C 
ATOM     11  C   UNL     1      -1.860 -10.071  12.935  0.00  0.00    +0.017 C 
ATOM     12  C   UNL     1      -2.582 -12.243  11.893  0.00  0.00    +0.114 C 
ATOM     13  C   UNL     1      -1.401 -12.250  14.079  0.00  0.00    +0.119 C 
ATOM     14  C   UNL     1      -4.292 -10.570  12.784  0.00  0.00    +0.130 C 
ATOM     15  C   UNL     1      -3.144 -10.697  14.998  0.00  0.00    +0.026 A 
ATOM     16  C   UNL     1      -3.197 -10.672  16.340  0.00  0.00    +0.022 A 
ATOM     17  C   UNL     1      -5.594 -10.630  14.859  0.00  0.00    +0.259 A 
ATOM     18  C   UNL     1      -5.621 -10.639  16.364  0.00  0.00    +0.050 A 
ATOM     19  C   UNL     1      -4.456 -10.648  17.028  0.00  0.00    +0.015 A 
ENDROOT
BRANCH  18  21
ATOM      7  N   UNL     1      -8.510 -11.805  18.454  0.00  0.00    -0.243 NA
ATOM      8  N   UNL     1      -8.879  -9.505  17.839  0.00  0.00    -0.243 NA
ATOM     21  C   UNL     1      -6.896 -10.646  17.104  0.00  0.00    +0.024 A 
ATOM     26  C   UNL     1      -7.349 -11.764  17.769  0.00  0.00    +0.122 A 
ATOM     27  C   UNL     1      -7.707  -9.534  17.171  0.00  0.00    +0.122 A 
ATOM     29  C   UNL     1      -9.214 -10.658  18.448  0.00  0.00    +0.221 A 
ENDBRANCH  18  21
BRANCH   5   1
ATOM      1  S   UNL     1      -2.251 -14.641  13.116  0.00  0.00    +0.061 S 
ATOM      2  O   UNL     1      -0.870 -15.014  13.339  0.00  0.00    -0.153 OA
ATOM      3  O   UNL     1      -2.972 -15.118  11.955  0.00  0.00    -0.153 OA
BRANCH   1  20
ATOM     20  C   UNL     1      -3.170 -15.097  14.553  0.00  0.00    +0.105 A 
ATOM     22  C   UNL     1      -2.871 -16.283  15.201  0.00  0.00    +0.028 A 
ATOM     23  C   UNL     1      -4.175 -14.258  15.008  0.00  0.00    +0.028 A 
ATOM     24  C   UNL     1      -3.598 -16.644  16.335  0.00  0.00    +0.002 A 
ATOM     25  C   UNL     1      -4.902 -14.619  16.143  0.00  0.00    +0.002 A 
ATOM     28  C   UNL     1      -4.614 -15.811  16.806  0.00  0.00    +0.000 A 
ENDBRANCH   1  20
ENDBRANCH   5   1
TORSDOF 3
ENDMDL
MODEL 5
REMARK VINA RESULT:      -6.3      3.314      6.941
REMARK  Name = 7143905
REMARK  3 active torsions:
REMARK  status: ('A' for Active; 'I' for Inactive)
REMARK    1  A    between atoms: S_1  and  N_5
REMARK    2  A    between atoms: S_1  and  C_20
REMARK    3  A    between atoms: C_18  and  C_21
REMARK                            x       y       z     vdW  Elec       q    Type
REMARK                         _______ _______ _______ _____ _____    ______ ____
ROOT
ATOM      4  O   UNL     1      12.622  11.762  19.866  0.00  0.00    -0.267 OA
ATOM      5  N   UNL     1      12.956  12.847  24.720  0.00  0.00    -0.176 NA
ATOM      6  N   UNL     1      11.671  11.911  21.990  0.00  0.00    -0.311 N 
ATOM      9  C   UNL     1      11.415  14.135  23.235  0.00  0.00    +0.025 C 
ATOM     10  C   UNL     1      10.640  12.054  24.284  0.00  0.00    +0.052 C 
ATOM     11  C   UNL     1      10.216  13.467  23.893  0.00  0.00    +0.017 C 
ATOM     12  C   UNL     1      12.599  14.204  24.212  0.00  0.00    +0.114 C 
ATOM     13  C   UNL     1      11.788  12.126  25.308  0.00  0.00    +0.119 C 
ATOM     14  C   UNL     1      11.762  13.377  21.948  0.00  0.00    +0.130 C 
ATOM     15  C   UNL     1      11.068  11.255  23.067  0.00  0.00    +0.026 A 
ATOM     16  C   UNL     1      10.890   9.925  23.031  0.00  0.00    +0.022 A 
ATOM     17  C   UNL     1      12.119  11.216  20.849  0.00  0.00    +0.259 A 
ATOM     18  C   UNL     1      11.938   9.721  20.855  0.00  0.00    +0.050 A 
ATOM     19  C   UNL     1      11.339   9.151  21.910  0.00  0.00    +0.015 A 
ENDROOT
BRANCH  18  21
ATOM      7  N   UNL     1      14.192   7.713  18.627  0.00  0.00    -0.243 NA
ATOM      8  N   UNL     1      11.978   7.729  17.677  0.00  0.00    -0.243 NA
ATOM     21  C   UNL     1      12.414   8.891  19.734  0.00  0.00    +0.024 A 
ATOM     26  C   UNL     1      13.723   8.472  19.639  0.00  0.00    +0.122 A 
ATOM     27  C   UNL     1      11.577   8.488  18.717  0.00  0.00    +0.122 A 
ATOM     29  C   UNL     1      13.279   7.382  17.695  0.00  0.00    +0.221 A 
ENDBRANCH  18  21
BRANCH   5   1
ATOM      1  S   UNL     1      14.411  12.750  25.613  0.00  0.00    +0.061 S 
ATOM      2  O   UNL     1      14.293  11.696  26.599  0.00  0.00    -0.153 OA
ATOM      3  O   UNL     1      14.819  14.086  25.997  0.00  0.00    -0.153 OA
BRANCH   1  20
ATOM     20  C   UNL     1      15.511  12.187  24.352  0.00  0.00    +0.105 A 
ATOM     22  C   UNL     1      15.022  11.384  23.335  0.00  0.00    +0.028 A 
ATOM     23  C   UNL     1      16.845  12.560  24.400  0.00  0.00    +0.028 A 
ATOM     24  C   UNL     1      15.891  10.938  22.339  0.00  0.00    +0.002 A 
ATOM     25  C   UNL     1      17.714  12.114  23.403  0.00  0.00    +0.002 A 
ATOM     28  C   UNL     1      17.237  11.304  22.374  0.00  0.00    +0.000 A 
ENDBRANCH   1  20
ENDBRANCH   5   1
TORSDOF 3
ENDMDL
MODEL 6
REMARK VINA RESULT:      -6.1     27.929     29.947
REMARK  Name = 7143905
REMARK  3 active torsions:
REMARK  status: ('A' for Active; 'I' for Inactive)
REMARK    1  A    between atoms: S_1  and  N_5
REMARK    2  A    between atoms: S_1  and  C_20
REMARK    3  A    between atoms: C_18  and  C_21
REMARK                            x       y       z     vdW  Elec       q    Type
REMARK                         _______ _______ _______ _____ _____    ______ ____
ROOT
ATOM      4  O   UNL     1      -7.854  -8.902  17.249  0.00  0.00    -0.267 OA
ATOM      5  N   UNL     1      -4.052 -11.672  15.601  0.00  0.00    -0.176 NA
ATOM      6  N   UNL     1      -6.756 -10.951  17.067  0.00  0.00    -0.311 N 
ATOM      9  C   UNL     1      -4.426 -11.359  18.050  0.00  0.00    +0.025 C 
ATOM     10  C   UNL     1      -5.583 -13.171  16.863  0.00  0.00    +0.052 C 
ATOM     11  C   UNL     1      -4.884 -12.806  18.169  0.00  0.00    +0.017 C 
ATOM     12  C   UNL     1      -3.445 -11.197  16.877  0.00  0.00    +0.114 C 
ATOM     13  C   UNL     1      -4.583 -13.065  15.697  0.00  0.00    +0.119 C 
ATOM     14  C   UNL     1      -5.658 -10.457  17.910  0.00  0.00    +0.130 C 
ATOM     15  C   UNL     1      -6.780 -12.273  16.615  0.00  0.00    +0.026 A 
ATOM     16  C   UNL     1      -7.848 -12.735  15.945  0.00  0.00    +0.022 A 
ATOM     17  C   UNL     1      -7.824 -10.063  16.835  0.00  0.00    +0.259 A 
ATOM     18  C   UNL     1      -8.991 -10.600  16.051  0.00  0.00    +0.050 A 
ATOM     19  C   UNL     1      -8.965 -11.881  15.657  0.00  0.00    +0.015 A 
ENDROOT
BRANCH  18  21
ATOM      7  N   UNL     1     -12.267  -8.788  16.293  0.00  0.00    -0.243 NA
ATOM      8  N   UNL     1     -11.258  -8.283  14.164  0.00  0.00    -0.243 NA
ATOM     21  C   UNL     1     -10.141  -9.744  15.710  0.00  0.00    +0.024 A 
ATOM     26  C   UNL     1     -11.200  -9.565  16.573  0.00  0.00    +0.122 A 
ATOM     27  C   UNL     1     -10.222  -9.074  14.509  0.00  0.00    +0.122 A 
ATOM     29  C   UNL     1     -12.232  -8.186  15.090  0.00  0.00    +0.221 A 
ENDBRANCH  18  21
BRANCH   5   1
ATOM      1  S   UNL     1      -3.167 -11.315  14.182  0.00  0.00    +0.061 S 
ATOM      2  O   UNL     1      -2.868 -12.549  13.486  0.00  0.00    -0.153 OA
ATOM      3  O   UNL     1      -2.118 -10.370  14.506  0.00  0.00    -0.153 OA
BRANCH   1  20
ATOM     20  C   UNL     1      -4.401 -10.459  13.254  0.00  0.00    +0.105 A 
ATOM     22  C   UNL     1      -4.129 -10.081  11.950  0.00  0.00    +0.028 A 
ATOM     23  C   UNL     1      -5.622 -10.180  13.847  0.00  0.00    +0.028 A 
ATOM     24  C   UNL     1      -5.104  -9.404  11.217  0.00  0.00    +0.002 A 
ATOM     25  C   UNL     1      -6.598  -9.503  13.114  0.00  0.00    +0.002 A 
ATOM     28  C   UNL     1      -6.338  -9.116  11.800  0.00  0.00    +0.000 A 
ENDBRANCH   1  20
ENDBRANCH   5   1
TORSDOF 3
ENDMDL
MODEL 7
REMARK VINA RESULT:      -6.1     27.775     29.937
REMARK  Name = 7143905
REMARK  3 active torsions:
REMARK  status: ('A' for Active; 'I' for Inactive)
REMARK    1  A    between atoms: S_1  and  N_5
REMARK    2  A    between atoms: S_1  and  C_20
REMARK    3  A    between atoms: C_18  and  C_21
REMARK                            x       y       z     vdW  Elec       q    Type
REMARK                         _______ _______ _______ _____ _____    ______ ____
ROOT
ATOM      4  O   UNL     1      -5.153 -12.748  10.088  0.00  0.00    -0.267 OA
ATOM      5  N   UNL     1      -3.752 -11.769  14.770  0.00  0.00    -0.176 NA
ATOM      6  N   UNL     1      -3.515 -12.180  11.647  0.00  0.00    -0.311 N 
ATOM      9  C   UNL     1      -2.825 -13.744  13.556  0.00  0.00    +0.025 C 
ATOM     10  C   UNL     1      -1.742 -11.551  13.324  0.00  0.00    +0.052 C 
ATOM     11  C   UNL     1      -1.475 -13.049  13.448  0.00  0.00    +0.017 C 
ATOM     12  C   UNL     1      -3.590 -13.251  14.795  0.00  0.00    +0.114 C 
ATOM     13  C   UNL     1      -2.456 -11.049  14.591  0.00  0.00    +0.119 C 
ATOM     14  C   UNL     1      -3.607 -13.515  12.256  0.00  0.00    +0.130 C 
ATOM     15  C   UNL     1      -2.575 -11.247  12.093  0.00  0.00    +0.026 A 
ATOM     16  C   UNL     1      -2.429 -10.079  11.447  0.00  0.00    +0.022 A 
ATOM     17  C   UNL     1      -4.339 -11.936  10.531  0.00  0.00    +0.259 A 
ATOM     18  C   UNL     1      -4.176 -10.603   9.851  0.00  0.00    +0.050 A 
ATOM     19  C   UNL     1      -3.247  -9.755  10.313  0.00  0.00    +0.015 A 
ENDROOT
BRANCH  18  21
ATOM      7  N   UNL     1      -6.860  -8.971   7.800  0.00  0.00    -0.243 NA
ATOM      8  N   UNL     1      -5.562 -10.411   6.370  0.00  0.00    -0.243 NA
ATOM     21  C   UNL     1      -5.020 -10.224   8.704  0.00  0.00    +0.024 A 
ATOM     26  C   UNL     1      -6.068  -9.339   8.828  0.00  0.00    +0.122 A 
ATOM     27  C   UNL     1      -4.810 -10.735   7.442  0.00  0.00    +0.122 A 
ATOM     29  C   UNL     1      -6.555  -9.536   6.617  0.00  0.00    +0.221 A 
ENDBRANCH  18  21
BRANCH   5   1
ATOM      1  S   UNL     1      -4.801 -11.120  15.956  0.00  0.00    +0.061 S 
ATOM      2  O   UNL     1      -4.160  -9.985  16.586  0.00  0.00    -0.153 OA
ATOM      3  O   UNL     1      -5.345 -12.203  16.749  0.00  0.00    -0.153 OA
BRANCH   1  20
ATOM     20  C   UNL     1      -6.093 -10.503  14.921  0.00  0.00    +0.105 A 
ATOM     22  C   UNL     1      -5.808 -10.171  13.607  0.00  0.00    +0.028 A 
ATOM     23  C   UNL     1      -7.369 -10.363  15.442  0.00  0.00    +0.028 A 
ATOM     24  C   UNL     1      -6.827  -9.683  12.790  0.00  0.00    +0.002 A 
ATOM     25  C   UNL     1      -8.389  -9.875  14.624  0.00  0.00    +0.002 A 
ATOM     28  C   UNL     1      -8.118  -9.535  13.299  0.00  0.00    +0.000 A 
ENDBRANCH   1  20
ENDBRANCH   5   1
TORSDOF 3
ENDMDL
MODEL 8
REMARK VINA RESULT:      -6.1     23.640     26.208
REMARK  Name = 7143905
REMARK  3 active torsions:
REMARK  status: ('A' for Active; 'I' for Inactive)
REMARK    1  A    between atoms: S_1  and  N_5
REMARK    2  A    between atoms: S_1  and  C_20
REMARK    3  A    between atoms: C_18  and  C_21
REMARK                            x       y       z     vdW  Elec       q    Type
REMARK                         _______ _______ _______ _____ _____    ______ ____
ROOT
ATOM      4  O   UNL     1       9.184 -12.003  31.680  0.00  0.00    -0.267 OA
ATOM      5  N   UNL     1       6.842  -9.129  35.011  0.00  0.00    -0.176 NA
ATOM      6  N   UNL     1       8.388  -9.924  32.374  0.00  0.00    -0.311 N 
ATOM      9  C   UNL     1       9.251  -8.747  34.478  0.00  0.00    +0.025 C 
ATOM     10  C   UNL     1       7.516  -7.677  33.108  0.00  0.00    +0.052 C 
ATOM     11  C   UNL     1       8.890  -7.466  33.740  0.00  0.00    +0.017 C 
ATOM     12  C   UNL     1       8.219  -9.048  35.577  0.00  0.00    +0.114 C 
ATOM     13  C   UNL     1       6.473  -7.921  34.214  0.00  0.00    +0.119 C 
ATOM     14  C   UNL     1       9.374  -9.890  33.462  0.00  0.00    +0.130 C 
ATOM     15  C   UNL     1       7.536  -8.842  32.136  0.00  0.00    +0.026 A 
ATOM     16  C   UNL     1       6.725  -8.847  31.066  0.00  0.00    +0.022 A 
ATOM     17  C   UNL     1       8.422 -11.048  31.524  0.00  0.00    +0.259 A 
ATOM     18  C   UNL     1       7.476 -11.039  30.353  0.00  0.00    +0.050 A 
ATOM     19  C   UNL     1       6.694  -9.966  30.168  0.00  0.00    +0.015 A 
ENDROOT
BRANCH  18  21
ATOM      7  N   UNL     1       8.089 -13.271  27.402  0.00  0.00    -0.243 NA
ATOM      8  N   UNL     1       6.473 -14.324  28.846  0.00  0.00    -0.243 NA
ATOM     21  C   UNL     1       7.395 -12.183  29.429  0.00  0.00    +0.024 A 
ATOM     26  C   UNL     1       8.139 -12.240  28.270  0.00  0.00    +0.122 A 
ATOM     27  C   UNL     1       6.572 -13.260  29.670  0.00  0.00    +0.122 A 
ATOM     29  C   UNL     1       7.249 -14.264  27.746  0.00  0.00    +0.221 A 
ENDBRANCH  18  21
BRANCH   5   1
ATOM      1  S   UNL     1       5.636  -9.707  36.078  0.00  0.00    +0.061 S 
ATOM      2  O   UNL     1       4.641  -8.674  36.274  0.00  0.00    -0.153 OA
ATOM      3  O   UNL     1       6.275 -10.349  37.208  0.00  0.00    -0.153 OA
BRANCH   1  20
ATOM     20  C   UNL     1       4.914 -10.967  35.074  0.00  0.00    +0.105 A 
ATOM     22  C   UNL     1       5.672 -11.556  34.077  0.00  0.00    +0.028 A 
ATOM     23  C   UNL     1       3.601 -11.347  35.304  0.00  0.00    +0.028 A 
ATOM     24  C   UNL     1       5.102 -12.551  33.283  0.00  0.00    +0.002 A 
ATOM     25  C   UNL     1       3.031 -12.343  34.510  0.00  0.00    +0.002 A 
ATOM     28  C   UNL     1       3.781 -12.944  33.500  0.00  0.00    +0.000 A 
ENDBRANCH   1  20
ENDBRANCH   5   1
TORSDOF 3
ENDMDL
MODEL 9
REMARK VINA RESULT:      -5.7     27.460     30.808
REMARK  Name = 7143905
REMARK  3 active torsions:
REMARK  status: ('A' for Active; 'I' for Inactive)
REMARK    1  A    between atoms: S_1  and  N_5
REMARK    2  A    between atoms: S_1  and  C_20
REMARK    3  A    between atoms: C_18  and  C_21
REMARK                            x       y       z     vdW  Elec       q    Type
REMARK                         _______ _______ _______ _____ _____    ______ ____
ROOT
ATOM      4  O   UNL     1      14.087  -7.801  -4.032  0.00  0.00    -0.267 OA
ATOM      5  N   UNL     1      18.895  -7.369  -2.789  0.00  0.00    -0.176 NA
ATOM      6  N   UNL     1      16.334  -8.323  -4.374  0.00  0.00    -0.311 N 
ATOM      9  C   UNL     1      17.739  -9.578  -2.638  0.00  0.00    +0.025 C 
ATOM     10  C   UNL     1      18.761  -8.879  -4.760  0.00  0.00    +0.052 C 
ATOM     11  C   UNL     1      18.525 -10.076  -3.843  0.00  0.00    +0.017 C 
ATOM     12  C   UNL     1      18.531  -8.498  -1.884  0.00  0.00    +0.114 C 
ATOM     13  C   UNL     1      19.604  -7.823  -4.022  0.00  0.00    +0.119 C 
ATOM     14  C   UNL     1      16.369  -9.075  -3.112  0.00  0.00    +0.130 C 
ATOM     15  C   UNL     1      17.446  -8.277  -5.219  0.00  0.00    +0.026 A 
ATOM     16  C   UNL     1      17.354  -7.683  -6.420  0.00  0.00    +0.022 A 
ATOM     17  C   UNL     1      15.098  -7.750  -4.734  0.00  0.00    +0.259 A 
ATOM     18  C   UNL     1      15.038  -7.060  -6.071  0.00  0.00    +0.050 A 
ATOM     19  C   UNL     1      16.132  -7.063  -6.845  0.00  0.00    +0.015 A 
ENDROOT
BRANCH  18  21
ATOM      7  N   UNL     1      11.723  -6.448  -7.718  0.00  0.00    -0.243 NA
ATOM      8  N   UNL     1      12.429  -4.422  -6.621  0.00  0.00    -0.243 NA
ATOM     21  C   UNL     1      13.809  -6.386  -6.526  0.00  0.00    +0.024 A 
ATOM     26  C   UNL     1      12.858  -7.034  -7.284  0.00  0.00    +0.122 A 
ATOM     27  C   UNL     1      13.542  -5.070  -6.221  0.00  0.00    +0.122 A 
ATOM     29  C   UNL     1      11.574  -5.160  -7.355  0.00  0.00    +0.221 A 
ENDBRANCH  18  21
BRANCH   5   1
ATOM      1  S   UNL     1      19.553  -5.989  -2.022  0.00  0.00    +0.061 S 
ATOM      2  O   UNL     1      20.749  -5.580  -2.729  0.00  0.00    -0.153 OA
ATOM      3  O   UNL     1      19.573  -6.208  -0.591  0.00  0.00    -0.153 OA
BRANCH   1  20
ATOM     20  C   UNL     1      18.289  -4.808  -2.374  0.00  0.00    +0.105 A 
ATOM     22  C   UNL     1      17.134  -5.221  -3.015  0.00  0.00    +0.028 A 
ATOM     23  C   UNL     1      18.474  -3.486  -2.000  0.00  0.00    +0.028 A 
ATOM     24  C   UNL     1      16.135  -4.289  -3.294  0.00  0.00    +0.002 A 
ATOM     25  C   UNL     1      17.475  -2.553  -2.278  0.00  0.00    +0.002 A 
ATOM     28  C   UNL     1      16.306  -2.954  -2.925  0.00  0.00    +0.000 A 
ENDBRANCH   1  20
ENDBRANCH   5   1
TORSDOF 3
ENDMDL
MODEL 10
REMARK VINA RESULT:      -5.7     27.196     30.114
REMARK  Name = 7143905
REMARK  3 active torsions:
REMARK  status: ('A' for Active; 'I' for Inactive)
REMARK    1  A    between atoms: S_1  and  N_5
REMARK    2  A    between atoms: S_1  and  C_20
REMARK    3  A    between atoms: C_18  and  C_21
REMARK                            x       y       z     vdW  Elec       q    Type
REMARK                         _______ _______ _______ _____ _____    ______ ____
ROOT
ATOM      4  O   UNL     1      17.251  -5.636  -6.301  0.00  0.00    -0.267 OA
ATOM      5  N   UNL     1      19.664  -4.999  -1.986  0.00  0.00    -0.176 NA
ATOM      6  N   UNL     1      17.705  -4.383  -4.387  0.00  0.00    -0.311 N 
ATOM      9  C   UNL     1      20.025  -3.421  -3.887  0.00  0.00    +0.025 C 
ATOM     10  C   UNL     1      18.179  -3.032  -2.314  0.00  0.00    +0.052 C 
ATOM     11  C   UNL     1      19.260  -2.338  -3.138  0.00  0.00    +0.017 C 
ATOM     12  C   UNL     1      20.679  -4.401  -2.900  0.00  0.00    +0.114 C 
ATOM     13  C   UNL     1      18.838  -3.970  -1.287  0.00  0.00    +0.119 C 
ATOM     14  C   UNL     1      19.071  -4.121  -4.861  0.00  0.00    +0.130 C 
ATOM     15  C   UNL     1      17.229  -3.811  -3.205  0.00  0.00    +0.026 A 
ATOM     16  C   UNL     1      15.943  -3.968  -2.851  0.00  0.00    +0.022 A 
ATOM     17  C   UNL     1      16.876  -5.145  -5.234  0.00  0.00    +0.259 A 
ATOM     18  C   UNL     1      15.450  -5.334  -4.792  0.00  0.00    +0.050 A 
ATOM     19  C   UNL     1      15.046  -4.746  -3.657  0.00  0.00    +0.015 A 
ENDROOT
BRANCH  18  21
ATOM      7  N   UNL     1      12.823  -6.322  -7.281  0.00  0.00    -0.243 NA
ATOM      8  N   UNL     1      13.542  -8.290  -6.092  0.00  0.00    -0.243 NA
ATOM     21  C   UNL     1      14.509  -6.151  -5.578  0.00  0.00    +0.024 A 
ATOM     26  C   UNL     1      13.694  -5.603  -6.544  0.00  0.00    +0.122 A 
ATOM     27  C   UNL     1      14.391  -7.511  -5.391  0.00  0.00    +0.122 A 
ATOM     29  C   UNL     1      12.799  -7.639  -7.008  0.00  0.00    +0.221 A 
ENDBRANCH  18  21
BRANCH   5   1
ATOM      1  S   UNL     1      20.216  -6.292  -1.011  0.00  0.00    +0.061 S 
ATOM      2  O   UNL     1      19.894  -6.014   0.372  0.00  0.00    -0.153 OA
ATOM      3  O   UNL     1      21.566  -6.638  -1.406  0.00  0.00    -0.153 OA
BRANCH   1  20
ATOM     20  C   UNL     1      19.141  -7.579  -1.566  0.00  0.00    +0.105 A 
ATOM     22  C   UNL     1      18.165  -7.289  -2.504  0.00  0.00    +0.028 A 
ATOM     23  C   UNL     1      19.294  -8.857  -1.055  0.00  0.00    +0.028 A 
ATOM     24  C   UNL     1      17.315  -8.304  -2.942  0.00  0.00    +0.002 A 
ATOM     25  C   UNL     1      18.444  -9.873  -1.493  0.00  0.00    +0.002 A 
ATOM     28  C   UNL     1      17.455  -9.597  -2.436  0.00  0.00    +0.000 A 
ENDBRANCH   1  20
ENDBRANCH   5   1
TORSDOF 3
ENDMDL
