REMARK  Name = 40586262
REMARK  4 active torsions:
REMARK  status: ('A' for Active; 'I' for Inactive)
REMARK    1  A    between atoms: O_3  and  C_27
REMARK    2  A    between atoms: O_3  and  C_31
REMARK    3  A    between atoms: N_6  and  C_20
REMARK    4  A    between atoms: C_17  and  C_19
REMARK                            x       y       z     vdW  Elec       q    Type
REMARK                         _______ _______ _______ _____ _____    ______ ____
ROOT
ATOM      1  O   UNL     1      -1.060  -0.753   1.959  0.00  0.00    -0.267 OA
ATOM      2  O   UNL     1       2.893   0.521  -2.098  0.00  0.00    -0.252 OA
ATOM      4  N   UNL     1       3.374  -0.963  -0.389  0.00  0.00    -0.284 N 
ATOM      5  N   UNL     1       0.536  -1.921   0.723  0.00  0.00    -0.311 N 
ATOM      6  N   UNL     1       3.429   1.365  -0.005  0.00  0.00    -0.269 N 
ATOM      7  C   UNL     1       2.889  -2.394   1.611  0.00  0.00    +0.027 C 
ATOM      8  C   UNL     1       2.253  -3.173  -0.630  0.00  0.00    +0.054 C 
ATOM      9  C   UNL     1       2.840  -3.618   0.706  0.00  0.00    +0.018 C 
ATOM     10  C   UNL     1       1.454  -1.917   1.870  0.00  0.00    +0.130 C 
ATOM     11  C   UNL     1       3.762  -1.282   0.995  0.00  0.00    +0.114 C 
ATOM     12  C   UNL     1       3.183  -2.124  -1.266  0.00  0.00    +0.119 C 
ATOM     13  C   UNL     1       0.863  -2.590  -0.459  0.00  0.00    +0.027 A 
ATOM     14  C   UNL     1      -0.039  -2.685  -1.449  0.00  0.00    +0.022 A 
ATOM     15  C   UNL     1      -0.722  -1.318   0.917  0.00  0.00    +0.259 A 
ATOM     16  C   UNL     1       3.201   0.336  -0.918  0.00  0.00    +0.306 C 
ATOM     17  C   UNL     1      -1.696  -1.406  -0.226  0.00  0.00    +0.047 A 
ATOM     18  C   UNL     1      -1.334  -2.078  -1.329  0.00  0.00    +0.015 A 
ATOM     32  H   UNL     1       4.109   1.207   0.732  0.00  0.00    +0.156 HD
ENDROOT
BRANCH  17  19
ATOM     19  C   UNL     1      -3.020  -0.764  -0.152  0.00  0.00    -0.012 A 
ATOM     21  C   UNL     1      -4.177  -1.534  -0.272  0.00  0.00    +0.012 A 
ATOM     22  C   UNL     1      -3.117   0.615   0.036  0.00  0.00    +0.012 A 
ATOM     23  C   UNL     1      -5.430  -0.926  -0.203  0.00  0.00    +0.046 A 
ATOM     24  C   UNL     1      -4.370   1.223   0.105  0.00  0.00    +0.046 A 
ATOM     27  C   UNL     1      -5.527   0.453  -0.015  0.00  0.00    +0.120 A 
BRANCH  27   3
ATOM      3  O   UNL     1      -6.750   1.047   0.051  0.00  0.00    -0.495 OA
ATOM     31  C   UNL     1      -6.776   2.460   0.245  0.00  0.00    +0.277 C 
ENDBRANCH  27   3
ENDBRANCH  17  19
BRANCH   6  20
ATOM     20  C   UNL     1       2.821   2.644   0.013  0.00  0.00    +0.035 A 
ATOM     25  C   UNL     1       3.221   3.592   0.955  0.00  0.00    +0.023 A 
ATOM     26  C   UNL     1       1.823   2.956  -0.909  0.00  0.00    +0.023 A 
ATOM     28  C   UNL     1       2.623   4.853   0.973  0.00  0.00    +0.002 A 
ATOM     29  C   UNL     1       1.225   4.216  -0.891  0.00  0.00    +0.002 A 
ATOM     30  C   UNL     1       1.625   5.164   0.051  0.00  0.00    +0.000 A 
ENDBRANCH   6  20
TORSDOF 3
