MODEL 1
REMARK VINA RESULT:      -7.4      0.000      0.000
REMARK  Name = 75536260
REMARK  8 active torsions:
REMARK  status: ('A' for Active; 'I' for Inactive)
REMARK    1  A    between atoms: O_3  and  C_9
REMARK    2  A    between atoms: N_5  and  C_13
REMARK    3  A    between atoms: N_5  and  C_16
REMARK    4  A    between atoms: C_8  and  C_13
REMARK    5  A    between atoms: C_10  and  C_14
REMARK    6  A    between atoms: C_14  and  C_15
REMARK    7  A    between atoms: C_16  and  C_19
REMARK    8  A    between atoms: C_18  and  C_20
REMARK                            x       y       z     vdW  Elec       q    Type
REMARK                         _______ _______ _______ _____ _____    ______ ____
ROOT
ATOM      2  O   UNL     1     -16.050   2.268  24.470  0.00  0.00    -0.369 OA
ATOM      8  C   UNL     1     -16.143   3.343  23.527  0.00  0.00    +0.161 C 
ATOM      9  C   UNL     1     -17.503   3.346  22.817  0.00  0.00    +0.145 C 
ATOM     10  C   UNL     1     -17.085   2.231  25.455  0.00  0.00    +0.125 C 
ATOM     11  C   UNL     1     -18.671   3.251  23.796  0.00  0.00    +0.036 C 
ATOM     12  C   UNL     1     -18.457   2.114  24.792  0.00  0.00    +0.034 C 
ENDROOT
BRANCH   9   3
ATOM      3  O   UNL     1     -17.571   2.213  21.946  0.00  0.00    -0.389 OA
ATOM     30  H   UNL     1     -17.660   2.546  21.037  0.00  0.00    +0.210 HD
ENDBRANCH   9   3
BRANCH   8  13
ATOM     13  C   UNL     1     -15.811   4.682  24.182  0.00  0.00    +0.115 C 
BRANCH  13   5
ATOM      5  N   UNL     1     -14.440   5.075  23.892  0.00  0.00    -0.308 NA
ATOM     31  H   UNL     1     -14.301   6.044  24.182  0.00  0.00    +0.122 HD
BRANCH   5  16
ATOM     16  C   UNL     1     -14.146   4.936  22.472  0.00  0.00    +0.136 C 
BRANCH  16  19
ATOM      7  N   UNL     1     -14.223   7.329  22.041  0.00  0.00    -0.259 NA
ATOM     19  C   UNL     1     -13.521   6.182  21.904  0.00  0.00    +0.055 A 
ATOM     21  C   UNL     1     -12.285   6.099  21.283  0.00  0.00    +0.024 A 
ATOM     24  C   UNL     1     -11.735   7.268  20.770  0.00  0.00    +0.003 A 
ATOM     25  C   UNL     1     -13.656   8.445  21.530  0.00  0.00    +0.111 A 
ATOM     26  C   UNL     1     -12.428   8.468  20.892  0.00  0.00    +0.020 A 
ENDBRANCH  16  19
ENDBRANCH   5  16
ENDBRANCH  13   5
ENDBRANCH   8  13
BRANCH  10  14
ATOM     14  C   UNL     1     -16.816   1.034  26.359  0.00  0.00    +0.090 C 
BRANCH  14  15
ATOM      4  O   UNL     1     -15.621   1.268  29.752  0.00  0.00    -0.354 OA
ATOM      6  N   UNL     1     -16.113   0.550  28.668  0.00  0.00    -0.083 NA
ATOM     15  C   UNL     1     -16.286   1.458  27.703  0.00  0.00    +0.087 A 
ATOM     17  C   UNL     1     -15.925   2.752  28.116  0.00  0.00    +0.076 A 
ATOM     18  C   UNL     1     -15.515   2.578  29.411  0.00  0.00    +0.167 A 
BRANCH  18  20
ATOM      1  F   UNL     1     -13.577   5.959  33.381  0.00  0.00    -0.205 F 
ATOM     20  C   UNL     1     -15.016   3.449  30.435  0.00  0.00    +0.020 A 
ATOM     22  C   UNL     1     -15.669   4.651  30.707  0.00  0.00    +0.014 A 
ATOM     23  C   UNL     1     -13.877   3.094  31.159  0.00  0.00    +0.014 A 
ATOM     27  C   UNL     1     -15.183   5.499  31.702  0.00  0.00    +0.039 A 
ATOM     28  C   UNL     1     -13.391   3.943  32.154  0.00  0.00    +0.039 A 
ATOM     29  C   UNL     1     -14.044   5.145  32.426  0.00  0.00    +0.123 A 
ENDBRANCH  18  20
ENDBRANCH  14  15
ENDBRANCH  10  14
TORSDOF 8
ENDMDL
MODEL 2
REMARK VINA RESULT:      -7.0      1.732      2.232
REMARK  Name = 75536260
REMARK  8 active torsions:
REMARK  status: ('A' for Active; 'I' for Inactive)
REMARK    1  A    between atoms: O_3  and  C_9
REMARK    2  A    between atoms: N_5  and  C_13
REMARK    3  A    between atoms: N_5  and  C_16
REMARK    4  A    between atoms: C_8  and  C_13
REMARK    5  A    between atoms: C_10  and  C_14
REMARK    6  A    between atoms: C_14  and  C_15
REMARK    7  A    between atoms: C_16  and  C_19
REMARK    8  A    between atoms: C_18  and  C_20
REMARK                            x       y       z     vdW  Elec       q    Type
REMARK                         _______ _______ _______ _____ _____    ______ ____
ROOT
ATOM      2  O   UNL     1     -16.488   2.435  23.628  0.00  0.00    -0.369 OA
ATOM      8  C   UNL     1     -16.098   3.708  23.096  0.00  0.00    +0.161 C 
ATOM      9  C   UNL     1     -17.282   4.417  22.424  0.00  0.00    +0.145 C 
ATOM     10  C   UNL     1     -17.586   2.468  24.542  0.00  0.00    +0.125 C 
ATOM     11  C   UNL     1     -18.522   4.449  23.314  0.00  0.00    +0.036 C 
ATOM     12  C   UNL     1     -18.826   3.062  23.875  0.00  0.00    +0.034 C 
ENDROOT
BRANCH   9   3
ATOM      3  O   UNL     1     -17.622   3.714  21.226  0.00  0.00    -0.389 OA
ATOM     30  H   UNL     1     -16.967   3.953  20.549  0.00  0.00    +0.210 HD
ENDBRANCH   9   3
BRANCH   8  13
ATOM     13  C   UNL     1     -15.416   4.565  24.160  0.00  0.00    +0.115 C 
BRANCH  13   5
ATOM      5  N   UNL     1     -14.018   4.789  23.827  0.00  0.00    -0.308 NA
ATOM     31  H   UNL     1     -13.725   5.693  24.198  0.00  0.00    +0.122 HD
BRANCH   5  16
ATOM     16  C   UNL     1     -13.812   4.756  22.385  0.00  0.00    +0.136 C 
BRANCH  16  19
ATOM      7  N   UNL     1     -12.158   6.135  21.251  0.00  0.00    -0.259 NA
ATOM     19  C   UNL     1     -13.369   6.092  21.851  0.00  0.00    +0.055 A 
ATOM     21  C   UNL     1     -14.202   7.190  21.996  0.00  0.00    +0.024 A 
ATOM     24  C   UNL     1     -13.764   8.410  21.492  0.00  0.00    +0.003 A 
ATOM     25  C   UNL     1     -11.767   7.337  20.773  0.00  0.00    +0.111 A 
ATOM     26  C   UNL     1     -12.524   8.493  20.867  0.00  0.00    +0.020 A 
ENDBRANCH  16  19
ENDBRANCH   5  16
ENDBRANCH  13   5
ENDBRANCH   8  13
BRANCH  10  14
ATOM     14  C   UNL     1     -17.848   1.037  24.997  0.00  0.00    +0.090 C 
BRANCH  14  15
ATOM      4  O   UNL     1     -17.748   0.079  28.470  0.00  0.00    -0.354 OA
ATOM      6  N   UNL     1     -18.281   0.004  27.189  0.00  0.00    -0.083 NA
ATOM     15  C   UNL     1     -17.551   0.854  26.461  0.00  0.00    +0.087 A 
ATOM     17  C   UNL     1     -16.553   1.488  27.222  0.00  0.00    +0.076 A 
ATOM     18  C   UNL     1     -16.720   0.965  28.477  0.00  0.00    +0.167 A 
BRANCH  18  20
ATOM      1  F   UNL     1     -14.176   1.679  33.373  0.00  0.00    -0.205 F 
ATOM     20  C   UNL     1     -16.066   1.149  29.740  0.00  0.00    +0.020 A 
ATOM     22  C   UNL     1     -15.974   2.424  30.299  0.00  0.00    +0.014 A 
ATOM     23  C   UNL     1     -15.520   0.054  30.408  0.00  0.00    +0.014 A 
ATOM     27  C   UNL     1     -15.336   2.603  31.526  0.00  0.00    +0.039 A 
ATOM     28  C   UNL     1     -14.880   0.233  31.635  0.00  0.00    +0.039 A 
ATOM     29  C   UNL     1     -14.790   1.508  32.194  0.00  0.00    +0.123 A 
ENDBRANCH  18  20
ENDBRANCH  14  15
ENDBRANCH  10  14
TORSDOF 8
ENDMDL
MODEL 3
REMARK VINA RESULT:      -6.9     19.494     21.380
REMARK  Name = 75536260
REMARK  8 active torsions:
REMARK  status: ('A' for Active; 'I' for Inactive)
REMARK    1  A    between atoms: O_3  and  C_9
REMARK    2  A    between atoms: N_5  and  C_13
REMARK    3  A    between atoms: N_5  and  C_16
REMARK    4  A    between atoms: C_8  and  C_13
REMARK    5  A    between atoms: C_10  and  C_14
REMARK    6  A    between atoms: C_14  and  C_15
REMARK    7  A    between atoms: C_16  and  C_19
REMARK    8  A    between atoms: C_18  and  C_20
REMARK                            x       y       z     vdW  Elec       q    Type
REMARK                         _______ _______ _______ _____ _____    ______ ____
ROOT
ATOM      2  O   UNL     1      -4.464  -9.232  11.677  0.00  0.00    -0.369 OA
ATOM      8  C   UNL     1      -5.628  -8.991  10.875  0.00  0.00    +0.161 C 
ATOM      9  C   UNL     1      -5.400  -9.418   9.419  0.00  0.00    +0.145 C 
ATOM     10  C   UNL     1      -3.982 -10.578  11.660  0.00  0.00    +0.125 C 
ATOM     11  C   UNL     1      -4.830 -10.830   9.309  0.00  0.00    +0.036 C 
ATOM     12  C   UNL     1      -3.630 -11.006  10.236  0.00  0.00    +0.034 C 
ENDROOT
BRANCH   9   3
ATOM      3  O   UNL     1      -4.463  -8.521   8.816  0.00  0.00    -0.389 OA
ATOM     30  H   UNL     1      -4.559  -8.601   7.852  0.00  0.00    +0.210 HD
ENDBRANCH   9   3
BRANCH   8  13
ATOM     13  C   UNL     1      -6.867  -9.630  11.497  0.00  0.00    +0.115 C 
BRANCH  13   5
ATOM      5  N   UNL     1      -7.076  -9.145  12.853  0.00  0.00    -0.308 NA
ATOM     31  H   UNL     1      -6.171  -8.978  13.292  0.00  0.00    +0.122 HD
BRANCH   5  16
ATOM     16  C   UNL     1      -7.839 -10.106  13.640  0.00  0.00    +0.136 C 
BRANCH  16  19
ATOM      7  N   UNL     1      -9.557  -8.762  14.718  0.00  0.00    -0.259 NA
ATOM     19  C   UNL     1      -8.422  -9.478  14.878  0.00  0.00    +0.055 A 
ATOM     21  C   UNL     1      -7.784  -9.660  16.095  0.00  0.00    +0.024 A 
ATOM     24  C   UNL     1      -8.348  -9.069  17.220  0.00  0.00    +0.003 A 
ATOM     25  C   UNL     1     -10.076  -8.202  15.834  0.00  0.00    +0.111 A 
ATOM     26  C   UNL     1      -9.516  -8.324  17.095  0.00  0.00    +0.020 A 
ENDBRANCH  16  19
ENDBRANCH   5  16
ENDBRANCH  13   5
ENDBRANCH   8  13
BRANCH  10  14
ATOM     14  C   UNL     1      -2.756 -10.637  12.563  0.00  0.00    +0.090 C 
BRANCH  14  15
ATOM      4  O   UNL     1      -2.913 -10.806  16.160  0.00  0.00    -0.354 OA
ATOM      6  N   UNL     1      -2.244 -10.547  14.969  0.00  0.00    -0.083 NA
ATOM     15  C   UNL     1      -3.136 -10.809  14.009  0.00  0.00    +0.087 A 
ATOM     17  C   UNL     1      -4.371 -11.233  14.529  0.00  0.00    +0.076 A 
ATOM     18  C   UNL     1      -4.178 -11.214  15.884  0.00  0.00    +0.167 A 
BRANCH  18  20
ATOM      1  F   UNL     1      -7.343 -12.400  20.303  0.00  0.00    -0.205 F 
ATOM     20  C   UNL     1      -4.995 -11.519  17.023  0.00  0.00    +0.020 A 
ATOM     22  C   UNL     1      -4.944 -10.706  18.156  0.00  0.00    +0.014 A 
ATOM     23  C   UNL     1      -5.839 -12.629  16.998  0.00  0.00    +0.014 A 
ATOM     27  C   UNL     1      -5.737 -11.003  19.264  0.00  0.00    +0.039 A 
ATOM     28  C   UNL     1      -6.632 -12.927  18.107  0.00  0.00    +0.039 A 
ATOM     29  C   UNL     1      -6.582 -12.113  19.239  0.00  0.00    +0.123 A 
ENDBRANCH  18  20
ENDBRANCH  14  15
ENDBRANCH  10  14
TORSDOF 8
ENDMDL
MODEL 4
REMARK VINA RESULT:      -6.8     19.940     22.282
REMARK  Name = 75536260
REMARK  8 active torsions:
REMARK  status: ('A' for Active; 'I' for Inactive)
REMARK    1  A    between atoms: O_3  and  C_9
REMARK    2  A    between atoms: N_5  and  C_13
REMARK    3  A    between atoms: N_5  and  C_16
REMARK    4  A    between atoms: C_8  and  C_13
REMARK    5  A    between atoms: C_10  and  C_14
REMARK    6  A    between atoms: C_14  and  C_15
REMARK    7  A    between atoms: C_16  and  C_19
REMARK    8  A    between atoms: C_18  and  C_20
REMARK                            x       y       z     vdW  Elec       q    Type
REMARK                         _______ _______ _______ _____ _____    ______ ____
ROOT
ATOM      2  O   UNL     1      -6.341 -10.029  17.638  0.00  0.00    -0.369 OA
ATOM      8  C   UNL     1      -5.238 -10.666  18.297  0.00  0.00    +0.161 C 
ATOM      9  C   UNL     1      -5.723 -11.670  19.351  0.00  0.00    +0.145 C 
ATOM     10  C   UNL     1      -7.282 -10.917  17.032  0.00  0.00    +0.125 C 
ATOM     11  C   UNL     1      -6.779 -12.626  18.802  0.00  0.00    +0.036 C 
ATOM     12  C   UNL     1      -7.881 -11.862  18.073  0.00  0.00    +0.034 C 
ENDROOT
BRANCH   9   3
ATOM      3  O   UNL     1      -6.311 -10.949  20.438  0.00  0.00    -0.389 OA
ATOM     30  H   UNL     1      -6.292 -11.528  21.219  0.00  0.00    +0.210 HD
ENDBRANCH   9   3
BRANCH   8  13
ATOM     13  C   UNL     1      -4.274 -11.282  17.286  0.00  0.00    +0.115 C 
BRANCH  13   5
ATOM      5  N   UNL     1      -3.810 -10.283  16.336  0.00  0.00    -0.308 NA
ATOM     31  H   UNL     1      -4.508 -10.169  15.601  0.00  0.00    +0.122 HD
BRANCH   5  16
ATOM     16  C   UNL     1      -2.533 -10.672  15.750  0.00  0.00    +0.136 C 
BRANCH  16  19
ATOM      7  N   UNL     1      -1.740 -10.162  13.507  0.00  0.00    -0.259 NA
ATOM     19  C   UNL     1      -2.632 -10.846  14.257  0.00  0.00    +0.055 A 
ATOM     21  C   UNL     1      -3.608 -11.680  13.735  0.00  0.00    +0.024 A 
ATOM     24  C   UNL     1      -3.672 -11.821  12.354  0.00  0.00    +0.003 A 
ATOM     25  C   UNL     1      -1.833 -10.324  12.167  0.00  0.00    +0.111 A 
ATOM     26  C   UNL     1      -2.770 -11.133  11.548  0.00  0.00    +0.020 A 
ENDBRANCH  16  19
ENDBRANCH   5  16
ENDBRANCH  13   5
ENDBRANCH   8  13
BRANCH  10  14
ATOM     14  C   UNL     1      -8.368 -10.064  16.386  0.00  0.00    +0.090 C 
BRANCH  14  15
ATOM      4  O   UNL     1      -8.606  -9.550  12.826  0.00  0.00    -0.354 OA
ATOM      6  N   UNL     1      -9.168  -9.663  14.093  0.00  0.00    -0.083 NA
ATOM     15  C   UNL     1      -8.134  -9.887  14.910  0.00  0.00    +0.087 A 
ATOM     17  C   UNL     1      -6.909  -9.925  14.223  0.00  0.00    +0.076 A 
ATOM     18  C   UNL     1      -7.261  -9.708  12.917  0.00  0.00    +0.167 A 
BRANCH  18  20
ATOM      1  F   UNL     1      -4.457  -9.350   8.125  0.00  0.00    -0.205 F 
ATOM     20  C   UNL     1      -6.539  -9.615  11.681  0.00  0.00    +0.020 A 
ATOM     22  C   UNL     1      -6.747 -10.562  10.679  0.00  0.00    +0.014 A 
ATOM     23  C   UNL     1      -5.628  -8.578  11.482  0.00  0.00    +0.014 A 
ATOM     27  C   UNL     1      -6.045 -10.473   9.478  0.00  0.00    +0.039 A 
ATOM     28  C   UNL     1      -4.924  -8.488  10.281  0.00  0.00    +0.039 A 
ATOM     29  C   UNL     1      -5.133  -9.436   9.279  0.00  0.00    +0.123 A 
ENDBRANCH  18  20
ENDBRANCH  14  15
ENDBRANCH  10  14
TORSDOF 8
ENDMDL
MODEL 5
REMARK VINA RESULT:      -6.8     21.948     24.399
REMARK  Name = 75536260
REMARK  8 active torsions:
REMARK  status: ('A' for Active; 'I' for Inactive)
REMARK    1  A    between atoms: O_3  and  C_9
REMARK    2  A    between atoms: N_5  and  C_13
REMARK    3  A    between atoms: N_5  and  C_16
REMARK    4  A    between atoms: C_8  and  C_13
REMARK    5  A    between atoms: C_10  and  C_14
REMARK    6  A    between atoms: C_14  and  C_15
REMARK    7  A    between atoms: C_16  and  C_19
REMARK    8  A    between atoms: C_18  and  C_20
REMARK                            x       y       z     vdW  Elec       q    Type
REMARK                         _______ _______ _______ _____ _____    ______ ____
ROOT
ATOM      2  O   UNL     1      -4.038 -11.933  17.783  0.00  0.00    -0.369 OA
ATOM      8  C   UNL     1      -5.226 -12.509  18.342  0.00  0.00    +0.161 C 
ATOM      9  C   UNL     1      -6.304 -11.444  18.579  0.00  0.00    +0.145 C 
ATOM     10  C   UNL     1      -4.231 -11.194  16.575  0.00  0.00    +0.125 C 
ATOM     11  C   UNL     1      -6.535 -10.566  17.351  0.00  0.00    +0.036 C 
ATOM     12  C   UNL     1      -5.213 -10.044  16.797  0.00  0.00    +0.034 C 
ENDROOT
BRANCH   9   3
ATOM      3  O   UNL     1      -5.884 -10.593  19.650  0.00  0.00    -0.389 OA
ATOM     30  H   UNL     1      -4.970 -10.833  19.875  0.00  0.00    +0.210 HD
ENDBRANCH   9   3
BRANCH   8  13
ATOM     13  C   UNL     1      -5.721 -13.680  17.495  0.00  0.00    +0.115 C 
BRANCH  13   5
ATOM      5  N   UNL     1      -4.690 -14.698  17.366  0.00  0.00    -0.308 NA
ATOM     31  H   UNL     1      -3.773 -14.253  17.397  0.00  0.00    +0.122 HD
BRANCH   5  16
ATOM     16  C   UNL     1      -4.839 -15.437  16.118  0.00  0.00    +0.136 C 
BRANCH  16  19
ATOM      7  N   UNL     1      -2.722 -16.337  15.324  0.00  0.00    -0.259 NA
ATOM     19  C   UNL     1      -3.613 -15.324  15.251  0.00  0.00    +0.055 A 
ATOM     21  C   UNL     1      -3.459 -14.213  14.436  0.00  0.00    +0.024 A 
ATOM     24  C   UNL     1      -2.318 -14.139  13.646  0.00  0.00    +0.003 A 
ATOM     25  C   UNL     1      -1.625 -16.231  14.542  0.00  0.00    +0.111 A 
ATOM     26  C   UNL     1      -1.378 -15.164  13.694  0.00  0.00    +0.020 A 
ENDBRANCH  16  19
ENDBRANCH   5  16
ENDBRANCH  13   5
ENDBRANCH   8  13
BRANCH  10  14
ATOM     14  C   UNL     1      -2.869 -10.667  16.138  0.00  0.00    +0.090 C 
BRANCH  14  15
ATOM      4  O   UNL     1      -1.878 -10.183  12.706  0.00  0.00    -0.354 OA
ATOM      6  N   UNL     1      -1.609 -10.229  14.069  0.00  0.00    -0.083 NA
ATOM     15  C   UNL     1      -2.778 -10.530  14.641  0.00  0.00    +0.087 A 
ATOM     17  C   UNL     1      -3.811 -10.683  13.700  0.00  0.00    +0.076 A 
ATOM     18  C   UNL     1      -3.192 -10.454  12.500  0.00  0.00    +0.167 A 
BRANCH  18  20
ATOM      1  F   UNL     1      -4.864 -10.413   7.193  0.00  0.00    -0.205 F 
ATOM     20  C   UNL     1      -3.622 -10.444  11.131  0.00  0.00    +0.020 A 
ATOM     22  C   UNL     1      -3.729  -9.235  10.443  0.00  0.00    +0.014 A 
ATOM     23  C   UNL     1      -3.934 -11.642  10.488  0.00  0.00    +0.014 A 
ATOM     27  C   UNL     1      -4.148  -9.224   9.113  0.00  0.00    +0.039 A 
ATOM     28  C   UNL     1      -4.354 -11.631   9.158  0.00  0.00    +0.039 A 
ATOM     29  C   UNL     1      -4.460 -10.422   8.470  0.00  0.00    +0.123 A 
ENDBRANCH  18  20
ENDBRANCH  14  15
ENDBRANCH  10  14
TORSDOF 8
ENDMDL
MODEL 6
REMARK VINA RESULT:      -6.8     18.721     21.153
REMARK  Name = 75536260
REMARK  8 active torsions:
REMARK  status: ('A' for Active; 'I' for Inactive)
REMARK    1  A    between atoms: O_3  and  C_9
REMARK    2  A    between atoms: N_5  and  C_13
REMARK    3  A    between atoms: N_5  and  C_16
REMARK    4  A    between atoms: C_8  and  C_13
REMARK    5  A    between atoms: C_10  and  C_14
REMARK    6  A    between atoms: C_14  and  C_15
REMARK    7  A    between atoms: C_16  and  C_19
REMARK    8  A    between atoms: C_18  and  C_20
REMARK                            x       y       z     vdW  Elec       q    Type
REMARK                         _______ _______ _______ _____ _____    ______ ____
ROOT
ATOM      2  O   UNL     1      -6.726 -11.917  17.350  0.00  0.00    -0.369 OA
ATOM      8  C   UNL     1      -7.842 -11.210  17.905  0.00  0.00    +0.161 C 
ATOM      9  C   UNL     1      -7.665 -10.981  19.411  0.00  0.00    +0.145 C 
ATOM     10  C   UNL     1      -5.450 -11.316  17.579  0.00  0.00    +0.125 C 
ATOM     11  C   UNL     1      -6.299 -10.390  19.753  0.00  0.00    +0.036 C 
ATOM     12  C   UNL     1      -5.180 -11.176  19.076  0.00  0.00    +0.034 C 
ENDROOT
BRANCH   9   3
ATOM      3  O   UNL     1      -7.777 -12.238  20.085  0.00  0.00    -0.389 OA
ATOM     30  H   UNL     1      -8.027 -12.055  21.007  0.00  0.00    +0.210 HD
ENDBRANCH   9   3
BRANCH   8  13
ATOM     13  C   UNL     1      -8.115  -9.920  17.134  0.00  0.00    +0.115 C 
BRANCH  13   5
ATOM      5  N   UNL     1      -8.990  -9.038  17.892  0.00  0.00    -0.308 NA
ATOM     31  H   UNL     1      -8.844  -9.197  18.889  0.00  0.00    +0.122 HD
BRANCH   5  16
ATOM     16  C   UNL     1     -10.388  -9.272  17.553  0.00  0.00    +0.136 C 
BRANCH  16  19
ATOM      7  N   UNL     1     -10.113  -7.186  16.332  0.00  0.00    -0.259 NA
ATOM     19  C   UNL     1     -10.978  -8.121  16.783  0.00  0.00    +0.055 A 
ATOM     21  C   UNL     1     -12.348  -8.075  16.577  0.00  0.00    +0.024 A 
ATOM     24  C   UNL     1     -12.862  -7.000  15.861  0.00  0.00    +0.003 A 
ATOM     25  C   UNL     1     -10.650  -6.155  15.640  0.00  0.00    +0.111 A 
ATOM     26  C   UNL     1     -12.002  -6.017  15.380  0.00  0.00    +0.020 A 
ENDBRANCH  16  19
ENDBRANCH   5  16
ENDBRANCH  13   5
ENDBRANCH   8  13
BRANCH  10  14
ATOM     14  C   UNL     1      -4.400 -12.202  16.919  0.00  0.00    +0.090 C 
BRANCH  14  15
ATOM      4  O   UNL     1      -2.545 -10.976  14.082  0.00  0.00    -0.354 OA
ATOM      6  N   UNL     1      -2.622 -11.536  15.352  0.00  0.00    -0.083 NA
ATOM     15  C   UNL     1      -3.931 -11.630  15.608  0.00  0.00    +0.087 A 
ATOM     17  C   UNL     1      -4.719 -11.148  14.549  0.00  0.00    +0.076 A 
ATOM     18  C   UNL     1      -3.799 -10.749  13.615  0.00  0.00    +0.167 A 
BRANCH  18  20
ATOM      1  F   UNL     1      -4.112  -8.496   8.538  0.00  0.00    -0.205 F 
ATOM     20  C   UNL     1      -3.880 -10.170  12.306  0.00  0.00    +0.020 A 
ATOM     22  C   UNL     1      -2.728 -10.032  11.531  0.00  0.00    +0.014 A 
ATOM     23  C   UNL     1      -5.110  -9.742  11.807  0.00  0.00    +0.014 A 
ATOM     27  C   UNL     1      -2.806  -9.468  10.259  0.00  0.00    +0.039 A 
ATOM     28  C   UNL     1      -5.189  -9.176  10.534  0.00  0.00    +0.039 A 
ATOM     29  C   UNL     1      -4.036  -9.040   9.760  0.00  0.00    +0.123 A 
ENDBRANCH  18  20
ENDBRANCH  14  15
ENDBRANCH  10  14
TORSDOF 8
ENDMDL
MODEL 7
REMARK VINA RESULT:      -6.8     21.316     23.674
REMARK  Name = 75536260
REMARK  8 active torsions:
REMARK  status: ('A' for Active; 'I' for Inactive)
REMARK    1  A    between atoms: O_3  and  C_9
REMARK    2  A    between atoms: N_5  and  C_13
REMARK    3  A    between atoms: N_5  and  C_16
REMARK    4  A    between atoms: C_8  and  C_13
REMARK    5  A    between atoms: C_10  and  C_14
REMARK    6  A    between atoms: C_14  and  C_15
REMARK    7  A    between atoms: C_16  and  C_19
REMARK    8  A    between atoms: C_18  and  C_20
REMARK                            x       y       z     vdW  Elec       q    Type
REMARK                         _______ _______ _______ _____ _____    ______ ____
ROOT
ATOM      2  O   UNL     1      -4.079 -12.433  15.909  0.00  0.00    -0.369 OA
ATOM      8  C   UNL     1      -5.306 -12.881  16.498  0.00  0.00    +0.161 C 
ATOM      9  C   UNL     1      -5.170 -13.038  18.018  0.00  0.00    +0.145 C 
ATOM     10  C   UNL     1      -3.549 -11.222  16.453  0.00  0.00    +0.125 C 
ATOM     11  C   UNL     1      -4.556 -11.806  18.678  0.00  0.00    +0.036 C 
ATOM     12  C   UNL     1      -3.286 -11.373  17.951  0.00  0.00    +0.034 C 
ENDROOT
BRANCH   9   3
ATOM      3  O   UNL     1      -4.313 -14.151  18.292  0.00  0.00    -0.389 OA
ATOM     30  H   UNL     1      -3.396 -13.834  18.247  0.00  0.00    +0.210 HD
ENDBRANCH   9   3
BRANCH   8  13
ATOM     13  C   UNL     1      -6.472 -11.982  16.095  0.00  0.00    +0.115 C 
BRANCH  13   5
ATOM      5  N   UNL     1      -6.532 -11.829  14.649  0.00  0.00    -0.308 NA
ATOM     31  H   UNL     1      -5.637 -12.106  14.245  0.00  0.00    +0.122 HD
BRANCH   5  16
ATOM     16  C   UNL     1      -6.836 -10.452  14.281  0.00  0.00    +0.136 C 
BRANCH  16  19
ATOM      7  N   UNL     1      -7.765 -11.396  12.240  0.00  0.00    -0.259 NA
ATOM     19  C   UNL     1      -7.181 -10.324  12.821  0.00  0.00    +0.055 A 
ATOM     21  C   UNL     1      -6.892  -9.144  12.157  0.00  0.00    +0.024 A 
ATOM     24  C   UNL     1      -7.224  -9.057  10.810  0.00  0.00    +0.003 A 
ATOM     25  C   UNL     1      -8.074 -11.275  10.930  0.00  0.00    +0.111 A 
ATOM     26  C   UNL     1      -7.827 -10.139  10.177  0.00  0.00    +0.020 A 
ENDBRANCH  16  19
ENDBRANCH   5  16
ENDBRANCH  13   5
ENDBRANCH   8  13
BRANCH  10  14
ATOM     14  C   UNL     1      -2.259 -10.908  15.705  0.00  0.00    +0.090 C 
BRANCH  14  15
ATOM      4  O   UNL     1      -2.094 -11.758  12.205  0.00  0.00    -0.354 OA
ATOM      6  N   UNL     1      -1.680 -11.895  13.525  0.00  0.00    -0.083 NA
ATOM     15  C   UNL     1      -2.434 -11.034  14.215  0.00  0.00    +0.087 A 
ATOM     17  C   UNL     1      -3.332 -10.332  13.392  0.00  0.00    +0.076 A 
ATOM     18  C   UNL     1      -3.077 -10.824  12.140  0.00  0.00    +0.167 A 
BRANCH  18  20
ATOM      1  F   UNL     1      -5.135  -9.850   7.063  0.00  0.00    -0.205 F 
ATOM     20  C   UNL     1      -3.609 -10.573  10.832  0.00  0.00    +0.020 A 
ATOM     22  C   UNL     1      -4.184 -11.612  10.100  0.00  0.00    +0.014 A 
ATOM     23  C   UNL     1      -3.550  -9.289  10.290  0.00  0.00    +0.014 A 
ATOM     27  C   UNL     1      -4.699 -11.369   8.828  0.00  0.00    +0.039 A 
ATOM     28  C   UNL     1      -4.065  -9.045   9.016  0.00  0.00    +0.039 A 
ATOM     29  C   UNL     1      -4.640 -10.085   8.286  0.00  0.00    +0.123 A 
ENDBRANCH  18  20
ENDBRANCH  14  15
ENDBRANCH  10  14
TORSDOF 8
ENDMDL
MODEL 8
REMARK VINA RESULT:      -6.6     32.724     37.632
REMARK  Name = 75536260
REMARK  8 active torsions:
REMARK  status: ('A' for Active; 'I' for Inactive)
REMARK    1  A    between atoms: O_3  and  C_9
REMARK    2  A    between atoms: N_5  and  C_13
REMARK    3  A    between atoms: N_5  and  C_16
REMARK    4  A    between atoms: C_8  and  C_13
REMARK    5  A    between atoms: C_10  and  C_14
REMARK    6  A    between atoms: C_14  and  C_15
REMARK    7  A    between atoms: C_16  and  C_19
REMARK    8  A    between atoms: C_18  and  C_20
REMARK                            x       y       z     vdW  Elec       q    Type
REMARK                         _______ _______ _______ _____ _____    ______ ____
ROOT
ATOM      2  O   UNL     1      12.886   3.197   0.564  0.00  0.00    -0.369 OA
ATOM      8  C   UNL     1      13.332   3.998   1.666  0.00  0.00    +0.161 C 
ATOM      9  C   UNL     1      14.832   4.301   1.564  0.00  0.00    +0.145 C 
ATOM     10  C   UNL     1      13.162   3.736  -0.731  0.00  0.00    +0.125 C 
ATOM     11  C   UNL     1      15.227   4.831   0.188  0.00  0.00    +0.036 C 
ATOM     12  C   UNL     1      14.664   3.945  -0.920  0.00  0.00    +0.034 C 
ENDROOT
BRANCH   9   3
ATOM      3  O   UNL     1      15.564   3.093   1.792  0.00  0.00    -0.389 OA
ATOM     30  H   UNL     1      14.988   2.350   1.546  0.00  0.00    +0.210 HD
ENDBRANCH   9   3
BRANCH   8  13
ATOM     13  C   UNL     1      12.478   5.256   1.813  0.00  0.00    +0.115 C 
BRANCH  13   5
ATOM      5  N   UNL     1      12.106   5.469   3.204  0.00  0.00    -0.308 NA
ATOM     31  H   UNL     1      12.873   5.169   3.806  0.00  0.00    +0.122 HD
BRANCH   5  16
ATOM     16  C   UNL     1      10.895   4.731   3.540  0.00  0.00    +0.136 C 
BRANCH  16  19
ATOM      7  N   UNL     1       9.343   6.587   3.804  0.00  0.00    -0.259 NA
ATOM     19  C   UNL     1       9.964   5.544   4.399  0.00  0.00    +0.055 A 
ATOM     21  C   UNL     1       9.791   5.195   5.729  0.00  0.00    +0.024 A 
ATOM     24  C   UNL     1       8.923   5.965   6.496  0.00  0.00    +0.003 A 
ATOM     25  C   UNL     1       8.508   7.312   4.581  0.00  0.00    +0.111 A 
ATOM     26  C   UNL     1       8.265   7.046   5.917  0.00  0.00    +0.020 A 
ENDBRANCH  16  19
ENDBRANCH   5  16
ENDBRANCH  13   5
ENDBRANCH   8  13
BRANCH  10  14
ATOM     14  C   UNL     1      12.616   2.755  -1.762  0.00  0.00    +0.090 C 
BRANCH  14  15
ATOM      4  O   UNL     1       9.349   3.072  -3.251  0.00  0.00    -0.354 OA
ATOM      6  N   UNL     1      10.439   2.321  -2.825  0.00  0.00    -0.083 NA
ATOM     15  C   UNL     1      11.298   3.214  -2.326  0.00  0.00    +0.087 A 
ATOM     17  C   UNL     1      10.810   4.530  -2.410  0.00  0.00    +0.076 A 
ATOM     18  C   UNL     1       9.582   4.384  -2.998  0.00  0.00    +0.167 A 
BRANCH  18  20
ATOM      1  F   UNL     1       5.533   7.892  -4.500  0.00  0.00    -0.205 F 
ATOM     20  C   UNL     1       8.537   5.288  -3.385  0.00  0.00    +0.020 A 
ATOM     22  C   UNL     1       7.900   5.132  -4.616  0.00  0.00    +0.014 A 
ATOM     23  C   UNL     1       8.159   6.323  -2.531  0.00  0.00    +0.014 A 
ATOM     27  C   UNL     1       6.885   6.010  -4.993  0.00  0.00    +0.039 A 
ATOM     28  C   UNL     1       7.144   7.203  -2.908  0.00  0.00    +0.039 A 
ATOM     29  C   UNL     1       6.507   7.046  -4.139  0.00  0.00    +0.123 A 
ENDBRANCH  18  20
ENDBRANCH  14  15
ENDBRANCH  10  14
TORSDOF 8
ENDMDL
MODEL 9
REMARK VINA RESULT:      -6.6     21.112     24.218
REMARK  Name = 75536260
REMARK  8 active torsions:
REMARK  status: ('A' for Active; 'I' for Inactive)
REMARK    1  A    between atoms: O_3  and  C_9
REMARK    2  A    between atoms: N_5  and  C_13
REMARK    3  A    between atoms: N_5  and  C_16
REMARK    4  A    between atoms: C_8  and  C_13
REMARK    5  A    between atoms: C_10  and  C_14
REMARK    6  A    between atoms: C_14  and  C_15
REMARK    7  A    between atoms: C_16  and  C_19
REMARK    8  A    between atoms: C_18  and  C_20
REMARK                            x       y       z     vdW  Elec       q    Type
REMARK                         _______ _______ _______ _____ _____    ______ ____
ROOT
ATOM      2  O   UNL     1      -4.038 -11.510  13.493  0.00  0.00    -0.369 OA
ATOM      8  C   UNL     1      -4.784 -11.287  14.697  0.00  0.00    +0.161 C 
ATOM      9  C   UNL     1      -3.895 -11.438  15.939  0.00  0.00    +0.145 C 
ATOM     10  C   UNL     1      -2.879 -10.690  13.335  0.00  0.00    +0.125 C 
ATOM     11  C   UNL     1      -2.602 -10.635  15.830  0.00  0.00    +0.036 C 
ATOM     12  C   UNL     1      -1.908 -10.898  14.496  0.00  0.00    +0.034 C 
ENDROOT
BRANCH   9   3
ATOM      3  O   UNL     1      -3.542 -12.816  16.089  0.00  0.00    -0.389 OA
ATOM     30  H   UNL     1      -4.367 -13.330  16.107  0.00  0.00    +0.210 HD
ENDBRANCH   9   3
BRANCH   8  13
ATOM     13  C   UNL     1      -5.519  -9.949  14.649  0.00  0.00    +0.115 C 
BRANCH  13   5
ATOM      5  N   UNL     1      -5.663  -9.390  15.984  0.00  0.00    -0.308 NA
ATOM     31  H   UNL     1      -5.013  -9.857  16.616  0.00  0.00    +0.122 HD
BRANCH   5  16
ATOM     16  C   UNL     1      -7.027  -9.547  16.473  0.00  0.00    +0.136 C 
BRANCH  16  19
ATOM      7  N   UNL     1      -8.162 -11.336  17.669  0.00  0.00    -0.259 NA
ATOM     19  C   UNL     1      -7.100 -10.502  17.635  0.00  0.00    +0.055 A 
ATOM     21  C   UNL     1      -6.098 -10.482  18.592  0.00  0.00    +0.024 A 
ATOM     24  C   UNL     1      -6.193 -11.376  19.652  0.00  0.00    +0.003 A 
ATOM     25  C   UNL     1      -8.221 -12.192  18.714  0.00  0.00    +0.111 A 
ATOM     26  C   UNL     1      -7.272 -12.252  19.721  0.00  0.00    +0.020 A 
ENDBRANCH  16  19
ENDBRANCH   5  16
ENDBRANCH  13   5
ENDBRANCH   8  13
BRANCH  10  14
ATOM     14  C   UNL     1      -2.227 -11.067  12.009  0.00  0.00    +0.090 C 
BRANCH  14  15
ATOM      4  O   UNL     1      -3.610  -9.023   9.382  0.00  0.00    -0.354 OA
ATOM      6  N   UNL     1      -2.779  -9.220  10.479  0.00  0.00    -0.083 NA
ATOM     15  C   UNL     1      -2.975 -10.492  10.836  0.00  0.00    +0.087 A 
ATOM     17  C   UNL     1      -3.910 -11.141  10.011  0.00  0.00    +0.076 A 
ATOM     18  C   UNL     1      -4.278 -10.173   9.114  0.00  0.00    +0.167 A 
BRANCH  18  20
ATOM      1  F   UNL     1      -7.771  -9.976   4.788  0.00  0.00    -0.205 F 
ATOM     20  C   UNL     1      -5.179 -10.124   7.999  0.00  0.00    +0.020 A 
ATOM     22  C   UNL     1      -4.947 -10.921   6.878  0.00  0.00    +0.014 A 
ATOM     23  C   UNL     1      -6.287  -9.277   8.036  0.00  0.00    +0.014 A 
ATOM     27  C   UNL     1      -5.822 -10.871   5.794  0.00  0.00    +0.039 A 
ATOM     28  C   UNL     1      -7.163  -9.227   6.950  0.00  0.00    +0.039 A 
ATOM     29  C   UNL     1      -6.931 -10.025   5.830  0.00  0.00    +0.123 A 
ENDBRANCH  18  20
ENDBRANCH  14  15
ENDBRANCH  10  14
TORSDOF 8
ENDMDL
MODEL 10
REMARK VINA RESULT:      -6.4     20.286     22.417
REMARK  Name = 75536260
REMARK  8 active torsions:
REMARK  status: ('A' for Active; 'I' for Inactive)
REMARK    1  A    between atoms: O_3  and  C_9
REMARK    2  A    between atoms: N_5  and  C_13
REMARK    3  A    between atoms: N_5  and  C_16
REMARK    4  A    between atoms: C_8  and  C_13
REMARK    5  A    between atoms: C_10  and  C_14
REMARK    6  A    between atoms: C_14  and  C_15
REMARK    7  A    between atoms: C_16  and  C_19
REMARK    8  A    between atoms: C_18  and  C_20
REMARK                            x       y       z     vdW  Elec       q    Type
REMARK                         _______ _______ _______ _____ _____    ______ ____
ROOT
ATOM      2  O   UNL     1      -5.480  -8.815  10.678  0.00  0.00    -0.369 OA
ATOM      8  C   UNL     1      -6.877  -8.790  10.357  0.00  0.00    +0.161 C 
ATOM      9  C   UNL     1      -7.100  -8.627   8.848  0.00  0.00    +0.145 C 
ATOM     10  C   UNL     1      -4.715  -9.806   9.988  0.00  0.00    +0.125 C 
ATOM     11  C   UNL     1      -6.274  -9.614   8.028  0.00  0.00    +0.036 C 
ATOM     12  C   UNL     1      -4.815  -9.608   8.476  0.00  0.00    +0.034 C 
ENDROOT
BRANCH   9   3
ATOM      3  O   UNL     1      -6.709  -7.305   8.464  0.00  0.00    -0.389 OA
ATOM     30  H   UNL     1      -6.373  -7.352   7.553  0.00  0.00    +0.210 HD
ENDBRANCH   9   3
BRANCH   8  13
ATOM     13  C   UNL     1      -7.597 -10.004  10.938  0.00  0.00    +0.115 C 
BRANCH  13   5
ATOM      5  N   UNL     1      -7.828  -9.837  12.365  0.00  0.00    -0.308 NA
ATOM     31  H   UNL     1      -7.155  -9.167  12.737  0.00  0.00    +0.122 HD
BRANCH   5  16
ATOM     16  C   UNL     1      -7.703 -11.107  13.068  0.00  0.00    +0.136 C 
BRANCH  16  19
ATOM      7  N   UNL     1      -8.341 -11.844  15.297  0.00  0.00    -0.259 NA
ATOM     19  C   UNL     1      -7.681 -10.921  14.562  0.00  0.00    +0.055 A 
ATOM     21  C   UNL     1      -7.003  -9.840  15.101  0.00  0.00    +0.024 A 
ATOM     24  C   UNL     1      -7.001  -9.697  16.484  0.00  0.00    +0.003 A 
ATOM     25  C   UNL     1      -8.316 -11.672  16.638  0.00  0.00    +0.111 A 
ATOM     26  C   UNL     1      -7.668 -10.627  17.274  0.00  0.00    +0.020 A 
ENDBRANCH  16  19
ENDBRANCH   5  16
ENDBRANCH  13   5
ENDBRANCH   8  13
BRANCH  10  14
ATOM     14  C   UNL     1      -3.271  -9.680  10.458  0.00  0.00    +0.090 C 
BRANCH  14  15
ATOM      4  O   UNL     1      -2.061 -10.899  13.627  0.00  0.00    -0.354 OA
ATOM      6  N   UNL     1      -1.864 -10.431  12.333  0.00  0.00    -0.083 NA
ATOM     15  C   UNL     1      -3.092 -10.203  11.858  0.00  0.00    +0.087 A 
ATOM     17  C   UNL     1      -4.093 -10.507  12.797  0.00  0.00    +0.076 A 
ATOM     18  C   UNL     1      -3.392 -10.940  13.890  0.00  0.00    +0.167 A 
BRANCH  18  20
ATOM      1  F   UNL     1      -4.797 -12.740  18.964  0.00  0.00    -0.205 F 
ATOM     20  C   UNL     1      -3.753 -11.404  15.199  0.00  0.00    +0.020 A 
ATOM     22  C   UNL     1      -4.476 -12.589  15.343  0.00  0.00    +0.014 A 
ATOM     23  C   UNL     1      -3.382 -10.672  16.326  0.00  0.00    +0.014 A 
ATOM     27  C   UNL     1      -4.828 -13.040  16.615  0.00  0.00    +0.039 A 
ATOM     28  C   UNL     1      -3.736 -11.122  17.598  0.00  0.00    +0.039 A 
ATOM     29  C   UNL     1      -4.458 -12.307  17.742  0.00  0.00    +0.123 A 
ENDBRANCH  18  20
ENDBRANCH  14  15
ENDBRANCH  10  14
TORSDOF 8
ENDMDL
