MODEL 1
REMARK VINA RESULT:      -6.7      0.000      0.000
REMARK  Name = 51137882
REMARK  4 active torsions:
REMARK  status: ('A' for Active; 'I' for Inactive)
REMARK    1  A    between atoms: N_2  and  C_10
REMARK    2  A    between atoms: N_3  and  C_14
REMARK    3  A    between atoms: C_5  and  C_9
REMARK    4  A    between atoms: C_10  and  C_12
REMARK                            x       y       z     vdW  Elec       q    Type
REMARK                         _______ _______ _______ _____ _____    ______ ____
ROOT
ATOM      2  N   UNL     1      13.482   8.794  20.919  0.00  0.00    -0.297 NA
ATOM      5  C   UNL     1      12.379  10.220  22.419  0.00  0.00    +0.070 C 
ATOM      6  C   UNL     1      11.499   8.991  22.136  0.00  0.00    +0.028 C 
ATOM      7  C   UNL     1      13.436  10.206  21.307  0.00  0.00    +0.096 C 
ATOM      8  C   UNL     1      12.083   8.370  20.873  0.00  0.00    +0.085 C 
ENDROOT
BRANCH   5   9
ATOM      3  N   UNL     1      11.185  12.037  23.694  0.00  0.00    -0.330 N 
ATOM      4  N   UNL     1      11.328  12.312  21.492  0.00  0.00    -0.232 NA
ATOM      9  C   UNL     1      11.631  11.530  22.505  0.00  0.00    +0.115 A 
ATOM     11  C   UNL     1      10.553  13.226  23.430  0.00  0.00    +0.069 A 
ATOM     13  C   UNL     1      10.655  13.374  22.050  0.00  0.00    +0.089 A 
ATOM     14  C   UNL     1      11.348  11.433  24.996  0.00  0.00    +0.150 C 
ATOM     15  C   UNL     1       9.917  14.154  24.256  0.00  0.00    +0.028 A 
ATOM     16  C   UNL     1      10.098  14.511  21.440  0.00  0.00    +0.030 A 
ATOM     19  C   UNL     1       9.370  15.279  23.633  0.00  0.00    +0.002 A 
ATOM     20  C   UNL     1       9.457  15.456  22.249  0.00  0.00    +0.002 A 
ENDBRANCH   5   9
BRANCH   2  10
ATOM     10  C   UNL     1      14.165   8.589  19.650  0.00  0.00    +0.119 C 
BRANCH  10  12
ATOM      1 CL   UNL     1      19.361   5.637  20.352  0.00  0.00    -0.084 Cl
ATOM     12  C   UNL     1      15.465   7.849  19.827  0.00  0.00    -0.033 A 
ATOM     17  C   UNL     1      15.715   6.693  19.089  0.00  0.00    +0.006 A 
ATOM     18  C   UNL     1      16.420   8.322  20.728  0.00  0.00    +0.006 A 
ATOM     21  C   UNL     1      16.919   6.008  19.252  0.00  0.00    +0.020 A 
ATOM     22  C   UNL     1      17.623   7.637  20.891  0.00  0.00    +0.020 A 
ATOM     23  C   UNL     1      17.874   6.481  20.154  0.00  0.00    +0.041 A 
ENDBRANCH  10  12
ENDBRANCH   2  10
TORSDOF 3
ENDMDL
MODEL 2
REMARK VINA RESULT:      -6.5     18.197     21.420
REMARK  Name = 51137882
REMARK  4 active torsions:
REMARK  status: ('A' for Active; 'I' for Inactive)
REMARK    1  A    between atoms: N_2  and  C_10
REMARK    2  A    between atoms: N_3  and  C_14
REMARK    3  A    between atoms: C_5  and  C_9
REMARK    4  A    between atoms: C_10  and  C_12
REMARK                            x       y       z     vdW  Elec       q    Type
REMARK                         _______ _______ _______ _____ _____    ______ ____
ROOT
ATOM      2  N   UNL     1      10.785   5.661   3.922  0.00  0.00    -0.297 NA
ATOM      5  C   UNL     1      11.907   4.667   2.118  0.00  0.00    +0.070 C 
ATOM      6  C   UNL     1      12.516   6.051   2.403  0.00  0.00    +0.028 C 
ATOM      7  C   UNL     1      10.567   4.671   2.865  0.00  0.00    +0.096 C 
ATOM      8  C   UNL     1      11.482   6.766   3.264  0.00  0.00    +0.085 C 
ENDROOT
BRANCH   5   9
ATOM      3  N   UNL     1      12.815   3.872  -0.095  0.00  0.00    -0.330 N 
ATOM      4  N   UNL     1      10.661   4.421  -0.056  0.00  0.00    -0.232 NA
ATOM      9  C   UNL     1      11.764   4.326   0.653  0.00  0.00    +0.115 A 
ATOM     11  C   UNL     1      12.358   3.657  -1.370  0.00  0.00    +0.069 A 
ATOM     13  C   UNL     1      11.012   4.009  -1.320  0.00  0.00    +0.089 A 
ATOM     14  C   UNL     1      14.165   3.653   0.371  0.00  0.00    +0.150 C 
ATOM     15  C   UNL     1      12.990   3.203  -2.529  0.00  0.00    +0.028 A 
ATOM     16  C   UNL     1      10.233   3.905  -2.485  0.00  0.00    +0.030 A 
ATOM     19  C   UNL     1      12.199   3.105  -3.679  0.00  0.00    +0.002 A 
ATOM     20  C   UNL     1      10.846   3.450  -3.659  0.00  0.00    +0.002 A 
ENDBRANCH   5   9
BRANCH   2  10
ATOM     10  C   UNL     1       9.544   6.085   4.551  0.00  0.00    +0.119 C 
BRANCH  10  12
ATOM      1 CL   UNL     1       9.415   4.707  10.406  0.00  0.00    -0.084 Cl
ATOM     12  C   UNL     1       9.511   5.740   6.016  0.00  0.00    -0.033 A 
ATOM     17  C   UNL     1       9.861   4.458   6.439  0.00  0.00    +0.006 A 
ATOM     18  C   UNL     1       9.130   6.703   6.951  0.00  0.00    +0.006 A 
ATOM     21  C   UNL     1       9.830   4.138   7.796  0.00  0.00    +0.020 A 
ATOM     22  C   UNL     1       9.099   6.383   8.309  0.00  0.00    +0.020 A 
ATOM     23  C   UNL     1       9.449   5.101   8.731  0.00  0.00    +0.041 A 
ENDBRANCH  10  12
ENDBRANCH   2  10
TORSDOF 3
ENDMDL
MODEL 3
REMARK VINA RESULT:      -6.4     27.087     28.904
REMARK  Name = 51137882
REMARK  4 active torsions:
REMARK  status: ('A' for Active; 'I' for Inactive)
REMARK    1  A    between atoms: N_2  and  C_10
REMARK    2  A    between atoms: N_3  and  C_14
REMARK    3  A    between atoms: C_5  and  C_9
REMARK    4  A    between atoms: C_10  and  C_12
REMARK                            x       y       z     vdW  Elec       q    Type
REMARK                         _______ _______ _______ _____ _____    ______ ____
ROOT
ATOM      2  N   UNL     1      -2.117 -10.975  13.861  0.00  0.00    -0.297 NA
ATOM      5  C   UNL     1      -3.347 -10.274  15.732  0.00  0.00    +0.070 C 
ATOM      6  C   UNL     1      -1.926 -10.667  16.168  0.00  0.00    +0.028 C 
ATOM      7  C   UNL     1      -3.503 -10.874  14.328  0.00  0.00    +0.096 C 
ATOM      8  C   UNL     1      -1.370 -11.486  15.010  0.00  0.00    +0.085 C 
ENDROOT
BRANCH   5   9
ATOM      3  N   UNL     1      -5.762 -10.428  16.437  0.00  0.00    -0.330 N 
ATOM      4  N   UNL     1      -4.277 -11.359  17.805  0.00  0.00    -0.232 NA
ATOM      9  C   UNL     1      -4.444 -10.702  16.679  0.00  0.00    +0.115 A 
ATOM     11  C   UNL     1      -6.493 -10.945  17.476  0.00  0.00    +0.069 A 
ATOM     13  C   UNL     1      -5.544 -11.520  18.316  0.00  0.00    +0.089 A 
ATOM     14  C   UNL     1      -6.293  -9.723  15.294  0.00  0.00    +0.150 C 
ATOM     15  C   UNL     1      -7.863 -10.957  17.745  0.00  0.00    +0.028 A 
ATOM     16  C   UNL     1      -5.967 -12.150  19.499  0.00  0.00    +0.030 A 
ATOM     19  C   UNL     1      -8.266 -11.588  18.926  0.00  0.00    +0.002 A 
ATOM     20  C   UNL     1      -7.337 -12.174  19.789  0.00  0.00    +0.002 A 
ENDBRANCH   5   9
BRANCH   2  10
ATOM     10  C   UNL     1      -1.986 -11.829  12.690  0.00  0.00    +0.119 C 
BRANCH  10  12
ATOM      1 CL   UNL     1      -4.982  -9.628   7.960  0.00  0.00    -0.084 Cl
ATOM     12  C   UNL     1      -2.737 -11.278  11.507  0.00  0.00    -0.033 A 
ATOM     17  C   UNL     1      -2.591  -9.937  11.151  0.00  0.00    +0.006 A 
ATOM     18  C   UNL     1      -3.579 -12.109  10.767  0.00  0.00    +0.006 A 
ATOM     21  C   UNL     1      -3.286  -9.427  10.055  0.00  0.00    +0.020 A 
ATOM     22  C   UNL     1      -4.274 -11.598   9.671  0.00  0.00    +0.020 A 
ATOM     23  C   UNL     1      -4.128 -10.258   9.315  0.00  0.00    +0.041 A 
ENDBRANCH  10  12
ENDBRANCH   2  10
TORSDOF 3
ENDMDL
MODEL 4
REMARK VINA RESULT:      -6.3     19.387     21.152
REMARK  Name = 51137882
REMARK  4 active torsions:
REMARK  status: ('A' for Active; 'I' for Inactive)
REMARK    1  A    between atoms: N_2  and  C_10
REMARK    2  A    between atoms: N_3  and  C_14
REMARK    3  A    between atoms: C_5  and  C_9
REMARK    4  A    between atoms: C_10  and  C_12
REMARK                            x       y       z     vdW  Elec       q    Type
REMARK                         _______ _______ _______ _____ _____    ______ ____
ROOT
ATOM      2  N   UNL     1      -1.473  10.395   5.582  0.00  0.00    -0.297 NA
ATOM      5  C   UNL     1      -0.744  12.167   6.935  0.00  0.00    +0.070 C 
ATOM      6  C   UNL     1      -0.378  12.455   5.469  0.00  0.00    +0.028 C 
ATOM      7  C   UNL     1      -1.077  10.669   6.966  0.00  0.00    +0.096 C 
ATOM      8  C   UNL     1      -0.495  11.111   4.762  0.00  0.00    +0.085 C 
ENDROOT
BRANCH   5   9
ATOM      3  N   UNL     1      -0.003  13.010   9.192  0.00  0.00    -0.330 N 
ATOM      4  N   UNL     1       1.613  12.508   7.752  0.00  0.00    -0.232 NA
ATOM      9  C   UNL     1       0.314  12.555   7.942  0.00  0.00    +0.115 A 
ATOM     11  C   UNL     1       1.170  13.272   9.852  0.00  0.00    +0.069 A 
ATOM     13  C   UNL     1       2.164  12.951   8.932  0.00  0.00    +0.089 A 
ATOM     14  C   UNL     1      -1.334  13.184   9.727  0.00  0.00    +0.150 C 
ATOM     15  C   UNL     1       1.439  13.750  11.135  0.00  0.00    +0.028 A 
ATOM     16  C   UNL     1       3.512  13.108   9.296  0.00  0.00    +0.030 A 
ATOM     19  C   UNL     1       2.786  13.899  11.482  0.00  0.00    +0.002 A 
ATOM     20  C   UNL     1       3.805  13.585  10.579  0.00  0.00    +0.002 A 
ENDBRANCH   5   9
BRANCH   2  10
ATOM     10  C   UNL     1      -1.509   8.971   5.286  0.00  0.00    +0.119 C 
BRANCH  10  12
ATOM      1 CL   UNL     1      -7.094   7.070   4.107  0.00  0.00    -0.084 Cl
ATOM     12  C   UNL     1      -2.906   8.495   4.990  0.00  0.00    -0.033 A 
ATOM     17  C   UNL     1      -3.289   7.199   5.334  0.00  0.00    +0.006 A 
ATOM     18  C   UNL     1      -3.819   9.351   4.372  0.00  0.00    +0.006 A 
ATOM     21  C   UNL     1      -4.583   6.758   5.060  0.00  0.00    +0.020 A 
ATOM     22  C   UNL     1      -5.113   8.910   4.098  0.00  0.00    +0.020 A 
ATOM     23  C   UNL     1      -5.496   7.614   4.442  0.00  0.00    +0.041 A 
ENDBRANCH  10  12
ENDBRANCH   2  10
TORSDOF 3
ENDMDL
MODEL 5
REMARK VINA RESULT:      -6.1      1.197      2.283
REMARK  Name = 51137882
REMARK  4 active torsions:
REMARK  status: ('A' for Active; 'I' for Inactive)
REMARK    1  A    between atoms: N_2  and  C_10
REMARK    2  A    between atoms: N_3  and  C_14
REMARK    3  A    between atoms: C_5  and  C_9
REMARK    4  A    between atoms: C_10  and  C_12
REMARK                            x       y       z     vdW  Elec       q    Type
REMARK                         _______ _______ _______ _____ _____    ______ ____
ROOT
ATOM      2  N   UNL     1      13.402   8.535  19.978  0.00  0.00    -0.297 NA
ATOM      5  C   UNL     1      12.468  10.587  20.625  0.00  0.00    +0.070 C 
ATOM      6  C   UNL     1      13.963  10.777  20.314  0.00  0.00    +0.028 C 
ATOM      7  C   UNL     1      12.291   9.070  20.769  0.00  0.00    +0.096 C 
ATOM      8  C   UNL     1      14.550   9.371  20.329  0.00  0.00    +0.085 C 
ENDROOT
BRANCH   5   9
ATOM      3  N   UNL     1      11.621  12.676  21.751  0.00  0.00    -0.330 N 
ATOM      4  N   UNL     1      11.808  10.873  23.037  0.00  0.00    -0.232 NA
ATOM      9  C   UNL     1      11.966  11.355  21.825  0.00  0.00    +0.115 A 
ATOM     11  C   UNL     1      11.211  13.071  22.999  0.00  0.00    +0.069 A 
ATOM     13  C   UNL     1      11.337  11.928  23.784  0.00  0.00    +0.089 A 
ATOM     14  C   UNL     1      11.676  13.510  20.572  0.00  0.00    +0.150 C 
ATOM     15  C   UNL     1      10.756  14.295  23.494  0.00  0.00    +0.028 A 
ATOM     16  C   UNL     1      10.992  11.989  25.144  0.00  0.00    +0.030 A 
ATOM     19  C   UNL     1      10.416  14.337  24.850  0.00  0.00    +0.002 A 
ATOM     20  C   UNL     1      10.532  13.207  25.662  0.00  0.00    +0.002 A 
ENDBRANCH   5   9
BRANCH   2  10
ATOM     10  C   UNL     1      13.643   7.124  20.242  0.00  0.00    +0.119 C 
BRANCH  10  12
ATOM      1 CL   UNL     1      19.519   5.834  20.313  0.00  0.00    -0.084 Cl
ATOM     12  C   UNL     1      15.114   6.800  20.260  0.00  0.00    -0.033 A 
ATOM     17  C   UNL     1      15.766   6.455  19.077  0.00  0.00    +0.006 A 
ATOM     18  C   UNL     1      15.823   6.846  21.461  0.00  0.00    +0.006 A 
ATOM     21  C   UNL     1      17.128   6.155  19.093  0.00  0.00    +0.020 A 
ATOM     22  C   UNL     1      17.185   6.546  21.477  0.00  0.00    +0.020 A 
ATOM     23  C   UNL     1      17.838   6.201  20.294  0.00  0.00    +0.041 A 
ENDBRANCH  10  12
ENDBRANCH   2  10
TORSDOF 3
ENDMDL
MODEL 6
REMARK VINA RESULT:      -6.1      5.542     10.568
REMARK  Name = 51137882
REMARK  4 active torsions:
REMARK  status: ('A' for Active; 'I' for Inactive)
REMARK    1  A    between atoms: N_2  and  C_10
REMARK    2  A    between atoms: N_3  and  C_14
REMARK    3  A    between atoms: C_5  and  C_9
REMARK    4  A    between atoms: C_10  and  C_12
REMARK                            x       y       z     vdW  Elec       q    Type
REMARK                         _______ _______ _______ _____ _____    ______ ____
ROOT
ATOM      2  N   UNL     1      17.296   6.453  20.226  0.00  0.00    -0.297 NA
ATOM      5  C   UNL     1      19.424   6.365  21.208  0.00  0.00    +0.070 C 
ATOM      6  C   UNL     1      18.715   7.662  21.632  0.00  0.00    +0.028 C 
ATOM      7  C   UNL     1      18.615   5.853  20.008  0.00  0.00    +0.096 C 
ATOM      8  C   UNL     1      17.571   7.829  20.639  0.00  0.00    +0.085 C 
ENDROOT
BRANCH   5   9
ATOM      3  N   UNL     1      21.755   5.451  20.916  0.00  0.00    -0.330 N 
ATOM      4  N   UNL     1      21.510   7.638  20.604  0.00  0.00    -0.232 NA
ATOM      9  C   UNL     1      20.896   6.516  20.903  0.00  0.00    +0.115 A 
ATOM     11  C   UNL     1      23.005   5.919  20.601  0.00  0.00    +0.069 A 
ATOM     13  C   UNL     1      22.826   7.286  20.412  0.00  0.00    +0.089 A 
ATOM     14  C   UNL     1      21.410   4.078  21.206  0.00  0.00    +0.150 C 
ATOM     15  C   UNL     1      24.241   5.282  20.473  0.00  0.00    +0.028 A 
ATOM     16  C   UNL     1      23.933   8.082  20.072  0.00  0.00    +0.030 A 
ATOM     19  C   UNL     1      25.331   6.088  20.133  0.00  0.00    +0.002 A 
ATOM     20  C   UNL     1      25.183   7.464  19.936  0.00  0.00    +0.002 A 
ENDBRANCH   5   9
BRANCH   2  10
ATOM     10  C   UNL     1      16.454   6.388  19.041  0.00  0.00    +0.119 C 
BRANCH  10  12
ATOM      1 CL   UNL     1      10.907   8.454  20.113  0.00  0.00    -0.084 Cl
ATOM     12  C   UNL     1      15.066   6.906  19.309  0.00  0.00    -0.033 A 
ATOM     17  C   UNL     1      14.427   7.710  18.366  0.00  0.00    +0.006 A 
ATOM     18  C   UNL     1      14.420   6.582  20.503  0.00  0.00    +0.006 A 
ATOM     21  C   UNL     1      13.141   8.190  18.615  0.00  0.00    +0.020 A 
ATOM     22  C   UNL     1      13.134   7.061  20.752  0.00  0.00    +0.020 A 
ATOM     23  C   UNL     1      12.495   7.865  19.809  0.00  0.00    +0.041 A 
ENDBRANCH  10  12
ENDBRANCH   2  10
TORSDOF 3
ENDMDL
MODEL 7
REMARK VINA RESULT:      -6.0     27.798     29.621
REMARK  Name = 51137882
REMARK  4 active torsions:
REMARK  status: ('A' for Active; 'I' for Inactive)
REMARK    1  A    between atoms: N_2  and  C_10
REMARK    2  A    between atoms: N_3  and  C_14
REMARK    3  A    between atoms: C_5  and  C_9
REMARK    4  A    between atoms: C_10  and  C_12
REMARK                            x       y       z     vdW  Elec       q    Type
REMARK                         _______ _______ _______ _____ _____    ______ ____
ROOT
ATOM      2  N   UNL     1      -4.892 -11.499  17.312  0.00  0.00    -0.297 NA
ATOM      5  C   UNL     1      -6.641 -10.394  18.417  0.00  0.00    +0.070 C 
ATOM      6  C   UNL     1      -5.687 -11.012  19.453  0.00  0.00    +0.028 C 
ATOM      7  C   UNL     1      -6.281 -11.086  17.096  0.00  0.00    +0.096 C 
ATOM      8  C   UNL     1      -4.866 -12.032  18.675  0.00  0.00    +0.085 C 
ENDROOT
BRANCH   5   9
ATOM      3  N   UNL     1      -9.060  -9.741  18.142  0.00  0.00    -0.330 N 
ATOM      4  N   UNL     1      -8.633 -11.315  19.653  0.00  0.00    -0.232 NA
ATOM      9  C   UNL     1      -8.109 -10.506  18.759  0.00  0.00    +0.115 A 
ATOM     11  C   UNL     1     -10.278 -10.081  18.672  0.00  0.00    +0.069 A 
ATOM     13  C   UNL     1      -9.985 -11.064  19.613  0.00  0.00    +0.089 A 
ATOM     14  C   UNL     1      -8.827  -8.753  17.114  0.00  0.00    +0.150 C 
ATOM     15  C   UNL     1     -11.572  -9.624  18.419  0.00  0.00    +0.028 A 
ATOM     16  C   UNL     1     -11.031 -11.638  20.353  0.00  0.00    +0.030 A 
ATOM     19  C   UNL     1     -12.602 -10.207  19.164  0.00  0.00    +0.002 A 
ATOM     20  C   UNL     1     -12.339 -11.196  20.115  0.00  0.00    +0.002 A 
ENDBRANCH   5   9
BRANCH   2  10
ATOM     10  C   UNL     1      -4.442 -12.472  16.328  0.00  0.00    +0.119 C 
BRANCH  10  12
ATOM      1 CL   UNL     1      -1.484  -9.865  11.784  0.00  0.00    -0.084 Cl
ATOM     12  C   UNL     1      -3.702 -11.819  15.191  0.00  0.00    -0.033 A 
ATOM     17  C   UNL     1      -2.581 -11.031  15.450  0.00  0.00    +0.006 A 
ATOM     18  C   UNL     1      -4.139 -12.002  13.879  0.00  0.00    +0.006 A 
ATOM     21  C   UNL     1      -1.896 -10.426  14.397  0.00  0.00    +0.020 A 
ATOM     22  C   UNL     1      -3.453 -11.397  12.825  0.00  0.00    +0.020 A 
ATOM     23  C   UNL     1      -2.332 -10.609  13.084  0.00  0.00    +0.041 A 
ENDBRANCH  10  12
ENDBRANCH   2  10
TORSDOF 3
ENDMDL
MODEL 8
REMARK VINA RESULT:      -6.0      2.619      3.132
REMARK  Name = 51137882
REMARK  4 active torsions:
REMARK  status: ('A' for Active; 'I' for Inactive)
REMARK    1  A    between atoms: N_2  and  C_10
REMARK    2  A    between atoms: N_3  and  C_14
REMARK    3  A    between atoms: C_5  and  C_9
REMARK    4  A    between atoms: C_10  and  C_12
REMARK                            x       y       z     vdW  Elec       q    Type
REMARK                         _______ _______ _______ _____ _____    ______ ____
ROOT
ATOM      2  N   UNL     1      12.432   7.520  21.421  0.00  0.00    -0.297 NA
ATOM      5  C   UNL     1      11.751   9.419  22.618  0.00  0.00    +0.070 C 
ATOM      6  C   UNL     1      10.536   8.511  22.359  0.00  0.00    +0.028 C 
ATOM      7  C   UNL     1      12.829   8.912  21.651  0.00  0.00    +0.096 C 
ATOM      8  C   UNL     1      10.980   7.567  21.249  0.00  0.00    +0.085 C 
ENDROOT
BRANCH   5   9
ATOM      3  N   UNL     1      11.185  11.693  23.547  0.00  0.00    -0.330 N 
ATOM      4  N   UNL     1      11.490  11.577  21.348  0.00  0.00    -0.232 NA
ATOM      9  C   UNL     1      11.480  10.899  22.473  0.00  0.00    +0.115 A 
ATOM     11  C   UNL     1      10.995  12.970  23.083  0.00  0.00    +0.069 A 
ATOM     13  C   UNL     1      11.190  12.871  21.708  0.00  0.00    +0.089 A 
ATOM     14  C   UNL     1      11.092  11.268  24.925  0.00  0.00    +0.150 C 
ATOM     15  C   UNL     1      10.677  14.165  23.728  0.00  0.00    +0.028 A 
ATOM     16  C   UNL     1      11.066  14.023  20.913  0.00  0.00    +0.030 A 
ATOM     19  C   UNL     1      10.558  15.302  22.923  0.00  0.00    +0.002 A 
ATOM     20  C   UNL     1      10.747  15.234  21.540  0.00  0.00    +0.002 A 
ENDBRANCH   5   9
BRANCH   2  10
ATOM     10  C   UNL     1      13.107   6.932  20.275  0.00  0.00    +0.119 C 
BRANCH  10  12
ATOM      1 CL   UNL     1      13.679  10.861  15.755  0.00  0.00    -0.084 Cl
ATOM     12  C   UNL     1      13.251   7.914  19.143  0.00  0.00    -0.033 A 
ATOM     17  C   UNL     1      12.204   8.095  18.240  0.00  0.00    +0.006 A 
ATOM     18  C   UNL     1      14.432   8.644  18.998  0.00  0.00    +0.006 A 
ATOM     21  C   UNL     1      12.337   9.005  17.192  0.00  0.00    +0.020 A 
ATOM     22  C   UNL     1      14.564   9.554  17.950  0.00  0.00    +0.020 A 
ATOM     23  C   UNL     1      13.518   9.735  17.047  0.00  0.00    +0.041 A 
ENDBRANCH  10  12
ENDBRANCH   2  10
TORSDOF 3
ENDMDL
MODEL 9
REMARK VINA RESULT:      -5.9     27.964     30.539
REMARK  Name = 51137882
REMARK  4 active torsions:
REMARK  status: ('A' for Active; 'I' for Inactive)
REMARK    1  A    between atoms: N_2  and  C_10
REMARK    2  A    between atoms: N_3  and  C_14
REMARK    3  A    between atoms: C_5  and  C_9
REMARK    4  A    between atoms: C_10  and  C_12
REMARK                            x       y       z     vdW  Elec       q    Type
REMARK                         _______ _______ _______ _____ _____    ______ ____
ROOT
ATOM      2  N   UNL     1      -9.519  -9.413  16.911  0.00  0.00    -0.297 NA
ATOM      5  C   UNL     1      -7.780 -10.612  15.890  0.00  0.00    +0.070 C 
ATOM      6  C   UNL     1      -8.285 -11.385  17.121  0.00  0.00    +0.028 C 
ATOM      7  C   UNL     1      -8.344  -9.195  16.063  0.00  0.00    +0.096 C 
ATOM      8  C   UNL     1      -9.076 -10.365  17.930  0.00  0.00    +0.085 C 
ENDROOT
BRANCH   5   9
ATOM      3  N   UNL     1      -5.705 -10.611  14.461  0.00  0.00    -0.330 N 
ATOM      4  N   UNL     1      -5.383 -10.664  16.659  0.00  0.00    -0.232 NA
ATOM      9  C   UNL     1      -6.281 -10.629  15.701  0.00  0.00    +0.115 A 
ATOM     11  C   UNL     1      -4.344 -10.634  14.632  0.00  0.00    +0.069 A 
ATOM     13  C   UNL     1      -4.169 -10.668  16.013  0.00  0.00    +0.089 A 
ATOM     14  C   UNL     1      -6.400 -10.573  13.195  0.00  0.00    +0.150 C 
ATOM     15  C   UNL     1      -3.284 -10.631  13.725  0.00  0.00    +0.028 A 
ATOM     16  C   UNL     1      -2.867 -10.699  16.538  0.00  0.00    +0.030 A 
ATOM     19  C   UNL     1      -1.994 -10.661  14.264  0.00  0.00    +0.002 A 
ATOM     20  C   UNL     1      -1.787 -10.695  15.646  0.00  0.00    +0.002 A 
ENDBRANCH   5   9
BRANCH   2  10
ATOM     10  C   UNL     1     -10.024  -8.177  17.489  0.00  0.00    +0.119 C 
BRANCH  10  12
ATOM      1 CL   UNL     1     -14.348  -5.724  14.101  0.00  0.00    -0.084 Cl
ATOM     12  C   UNL     1     -11.106  -7.562  16.642  0.00  0.00    -0.033 A 
ATOM     17  C   UNL     1     -10.868  -6.367  15.965  0.00  0.00    +0.006 A 
ATOM     18  C   UNL     1     -12.348  -8.189  16.535  0.00  0.00    +0.006 A 
ATOM     21  C   UNL     1     -11.870  -5.798  15.180  0.00  0.00    +0.020 A 
ATOM     22  C   UNL     1     -13.351  -7.620  15.750  0.00  0.00    +0.020 A 
ATOM     23  C   UNL     1     -13.112  -6.425  15.072  0.00  0.00    +0.041 A 
ENDBRANCH  10  12
ENDBRANCH   2  10
TORSDOF 3
ENDMDL
MODEL 10
REMARK VINA RESULT:      -5.9     19.941     21.696
REMARK  Name = 51137882
REMARK  4 active torsions:
REMARK  status: ('A' for Active; 'I' for Inactive)
REMARK    1  A    between atoms: N_2  and  C_10
REMARK    2  A    between atoms: N_3  and  C_14
REMARK    3  A    between atoms: C_5  and  C_9
REMARK    4  A    between atoms: C_10  and  C_12
REMARK                            x       y       z     vdW  Elec       q    Type
REMARK                         _______ _______ _______ _____ _____    ______ ____
ROOT
ATOM      2  N   UNL     1      -2.208  10.457   5.532  0.00  0.00    -0.297 NA
ATOM      5  C   UNL     1      -2.103  12.250   7.040  0.00  0.00    +0.070 C 
ATOM      6  C   UNL     1      -1.309  12.599   5.770  0.00  0.00    +0.028 C 
ATOM      7  C   UNL     1      -2.303  10.730   6.968  0.00  0.00    +0.096 C 
ATOM      8  C   UNL     1      -1.080  11.266   5.069  0.00  0.00    +0.085 C 
ENDROOT
BRANCH   5   9
ATOM      3  N   UNL     1      -2.201  12.997   9.445  0.00  0.00    -0.330 N 
ATOM      4  N   UNL     1      -0.175  12.853   8.542  0.00  0.00    -0.232 NA
ATOM      9  C   UNL     1      -1.463  12.698   8.333  0.00  0.00    +0.115 A 
ATOM     11  C   UNL     1      -1.329  13.367  10.438  0.00  0.00    +0.069 A 
ATOM     13  C   UNL     1      -0.071  13.269   9.849  0.00  0.00    +0.089 A 
ATOM     14  C   UNL     1      -3.640  12.934   9.559  0.00  0.00    +0.150 C 
ATOM     15  C   UNL     1      -1.528  13.768  11.760  0.00  0.00    +0.028 A 
ATOM     16  C   UNL     1       1.067  13.585  10.609  0.00  0.00    +0.030 A 
ATOM     19  C   UNL     1      -0.384  14.078  12.502  0.00  0.00    +0.002 A 
ATOM     20  C   UNL     1       0.891  13.990  11.938  0.00  0.00    +0.002 A 
ENDBRANCH   5   9
BRANCH   2  10
ATOM     10  C   UNL     1      -2.028   9.041   5.247  0.00  0.00    +0.119 C 
BRANCH  10  12
ATOM      1 CL   UNL     1      -7.265   6.287   4.162  0.00  0.00    -0.084 Cl
ATOM     12  C   UNL     1      -3.339   8.352   4.976  0.00  0.00    -0.033 A 
ATOM     17  C   UNL     1      -4.376   9.046   4.354  0.00  0.00    +0.006 A 
ATOM     18  C   UNL     1      -3.516   7.019   5.348  0.00  0.00    +0.006 A 
ATOM     21  C   UNL     1      -5.591   8.408   4.103  0.00  0.00    +0.020 A 
ATOM     22  C   UNL     1      -4.730   6.381   5.097  0.00  0.00    +0.020 A 
ATOM     23  C   UNL     1      -5.767   7.075   4.475  0.00  0.00    +0.041 A 
ENDBRANCH  10  12
ENDBRANCH   2  10
TORSDOF 3
ENDMDL
