MODEL 1
REMARK VINA RESULT:      -6.0      0.000      0.000
REMARK  Name = 40779421
REMARK  8 active torsions:
REMARK  status: ('A' for Active; 'I' for Inactive)
REMARK    1  A    between atoms: O_2  and  C_25
REMARK    2  A    between atoms: O_2  and  C_26
REMARK    3  A    between atoms: N_4  and  C_23
REMARK    4  A    between atoms: N_5  and  C_15
REMARK    5  A    between atoms: C_8  and  C_14
REMARK    6  A    between atoms: C_9  and  C_15
REMARK    7  A    between atoms: C_17  and  C_18
REMARK    8  A    between atoms: C_24  and  C_25
REMARK                            x       y       z     vdW  Elec       q    Type
REMARK                         _______ _______ _______ _____ _____    ______ ____
ROOT
ATOM      3  N   UNL     1      -6.731 -10.976  18.271  0.00  0.00    -0.297 NA
ATOM      7  C   UNL     1      -4.392 -12.026  17.816  0.00  0.00    +0.002 C 
ATOM      8  C   UNL     1      -4.558 -10.703  17.018  0.00  0.00    +0.055 C 
ATOM      9  C   UNL     1      -6.879 -12.411  17.912  0.00  0.00    +0.074 C 
ATOM     10  C   UNL     1      -5.531 -12.996  17.439  0.00  0.00    +0.024 C 
ATOM     11  C   UNL     1      -6.036 -10.249  17.179  0.00  0.00    +0.094 C 
ATOM     12  C   UNL     1      -4.571 -11.673  19.307  0.00  0.00    +0.019 C 
ATOM     13  C   UNL     1      -5.888 -10.897  19.488  0.00  0.00    +0.085 C 
ENDROOT
BRANCH   8  14
ATOM      4  N   UNL     1      -2.788 -10.656  15.200  0.00  0.00    -0.271 N 
ATOM      6  N   UNL     1      -2.594 -10.636  13.870  0.00  0.00    -0.176 NA
ATOM     14  C   UNL     1      -4.101 -10.678  15.566  0.00  0.00    +0.044 A 
ATOM     16  C   UNL     1      -4.818 -10.670  14.394  0.00  0.00    +0.048 A 
ATOM     18  C   UNL     1      -3.838 -10.644  13.383  0.00  0.00    +0.066 A 
ATOM     23  C   UNL     1      -1.641 -10.653  16.079  0.00  0.00    +0.172 C 
BRANCH  18  17
ATOM     17  C   UNL     1      -4.060 -10.628  11.887  0.00  0.00    +0.040 C 
ATOM     19  C   UNL     1      -4.968  -9.470  11.437  0.00  0.00    +0.010 C 
ATOM     20  C   UNL     1      -2.769 -10.495  11.052  0.00  0.00    +0.010 C 
ATOM     21  C   UNL     1      -4.409  -9.040  10.090  0.00  0.00    +0.001 C 
ATOM     22  C   UNL     1      -2.910  -9.189  10.278  0.00  0.00    +0.001 C 
ENDBRANCH  18  17
ENDBRANCH   8  14
BRANCH   9  15
ATOM     15  C   UNL     1      -7.993 -12.644  16.889  0.00  0.00    +0.123 C 
BRANCH  15   5
ATOM      1  O   UNL     1      -8.476 -11.741  14.185  0.00  0.00    -0.272 OA
ATOM      5  N   UNL     1      -7.469 -13.208  15.684  0.00  0.00    -0.311 N 
ATOM     24  C   UNL     1      -7.755 -12.707  14.415  0.00  0.00    +0.251 C 
ATOM     32  H   UNL     1      -6.859 -14.018  15.764  0.00  0.00    +0.149 HD
BRANCH  24  25
ATOM     25  C   UNL     1      -7.066 -13.496  13.320  0.00  0.00    +0.324 C 
BRANCH  25   2
ATOM      2  O   UNL     1      -6.169 -14.436  13.871  0.00  0.00    -0.483 OA
BRANCH   2  26
ATOM     26  C   UNL     1      -4.847 -14.329  13.510  0.00  0.00    +0.121 A 
ATOM     27  C   UNL     1      -3.859 -14.269  14.493  0.00  0.00    +0.045 A 
ATOM     28  C   UNL     1      -4.494 -14.283  12.162  0.00  0.00    +0.045 A 
ATOM     29  C   UNL     1      -2.517 -14.160  14.127  0.00  0.00    +0.004 A 
ATOM     30  C   UNL     1      -3.152 -14.175  11.796  0.00  0.00    +0.004 A 
ATOM     31  C   UNL     1      -2.164 -14.114  12.779  0.00  0.00    +0.000 A 
ENDBRANCH   2  26
ENDBRANCH  25   2
ENDBRANCH  24  25
ENDBRANCH  15   5
ENDBRANCH   9  15
TORSDOF 7
ENDMDL
MODEL 2
REMARK VINA RESULT:      -6.0     27.207     29.502
REMARK  Name = 40779421
REMARK  8 active torsions:
REMARK  status: ('A' for Active; 'I' for Inactive)
REMARK    1  A    between atoms: O_2  and  C_25
REMARK    2  A    between atoms: O_2  and  C_26
REMARK    3  A    between atoms: N_4  and  C_23
REMARK    4  A    between atoms: N_5  and  C_15
REMARK    5  A    between atoms: C_8  and  C_14
REMARK    6  A    between atoms: C_9  and  C_15
REMARK    7  A    between atoms: C_17  and  C_18
REMARK    8  A    between atoms: C_24  and  C_25
REMARK                            x       y       z     vdW  Elec       q    Type
REMARK                         _______ _______ _______ _____ _____    ______ ____
ROOT
ATOM      3  N   UNL     1      10.629  12.665  23.431  0.00  0.00    -0.297 NA
ATOM      7  C   UNL     1      13.172  13.065  23.041  0.00  0.00    +0.002 C 
ATOM      8  C   UNL     1      12.388  13.214  21.708  0.00  0.00    +0.055 C 
ATOM      9  C   UNL     1      11.416  11.557  24.035  0.00  0.00    +0.074 C 
ATOM     10  C   UNL     1      12.903  11.667  23.638  0.00  0.00    +0.024 C 
ATOM     11  C   UNL     1      10.924  12.765  21.980  0.00  0.00    +0.094 C 
ATOM     12  C   UNL     1      12.582  14.099  24.023  0.00  0.00    +0.019 C 
ATOM     13  C   UNL     1      11.053  13.929  24.077  0.00  0.00    +0.085 C 
ENDROOT
BRANCH   8  14
ATOM      4  N   UNL     1      13.107  13.230  19.274  0.00  0.00    -0.271 N 
ATOM      6  N   UNL     1      13.639  12.484  18.292  0.00  0.00    -0.176 NA
ATOM     14  C   UNL     1      12.967  12.567  20.458  0.00  0.00    +0.044 A 
ATOM     16  C   UNL     1      13.440  11.297  20.234  0.00  0.00    +0.048 A 
ATOM     18  C   UNL     1      13.840  11.303  18.884  0.00  0.00    +0.066 A 
ATOM     23  C   UNL     1      12.748  14.603  19.000  0.00  0.00    +0.172 C 
BRANCH  18  17
ATOM     17  C   UNL     1      14.442  10.160  18.097  0.00  0.00    +0.040 C 
ATOM     19  C   UNL     1      13.543   8.911  18.090  0.00  0.00    +0.010 C 
ATOM     20  C   UNL     1      14.721  10.483  16.614  0.00  0.00    +0.010 C 
ATOM     21  C   UNL     1      13.738   8.302  16.710  0.00  0.00    +0.001 C 
ATOM     22  C   UNL     1      13.853   9.520  15.811  0.00  0.00    +0.001 C 
ENDBRANCH  18  17
ENDBRANCH   8  14
BRANCH   9  15
ATOM     15  C   UNL     1      10.836  10.181  23.701  0.00  0.00    +0.123 C 
BRANCH  15   5
ATOM      1  O   UNL     1      10.315   7.718  22.279  0.00  0.00    -0.272 OA
ATOM      5  N   UNL     1      11.775   9.399  22.958  0.00  0.00    -0.311 N 
ATOM     24  C   UNL     1      11.437   8.218  22.299  0.00  0.00    +0.251 C 
ATOM     32  H   UNL     1      12.736   9.725  22.914  0.00  0.00    +0.149 HD
BRANCH  24  25
ATOM     25  C   UNL     1      12.624   7.597  21.592  0.00  0.00    +0.324 C 
BRANCH  25   2
ATOM      2  O   UNL     1      13.822   8.242  21.970  0.00  0.00    -0.483 OA
BRANCH   2  26
ATOM     26  C   UNL     1      14.979   7.825  21.358  0.00  0.00    +0.121 A 
ATOM     27  C   UNL     1      16.174   8.510  21.584  0.00  0.00    +0.045 A 
ATOM     28  C   UNL     1      14.961   6.717  20.512  0.00  0.00    +0.045 A 
ATOM     29  C   UNL     1      17.349   8.088  20.963  0.00  0.00    +0.004 A 
ATOM     30  C   UNL     1      16.137   6.294  19.891  0.00  0.00    +0.004 A 
ATOM     31  C   UNL     1      17.331   6.980  20.117  0.00  0.00    +0.000 A 
ENDBRANCH   2  26
ENDBRANCH  25   2
ENDBRANCH  24  25
ENDBRANCH  15   5
ENDBRANCH   9  15
TORSDOF 7
ENDMDL
MODEL 3
REMARK VINA RESULT:      -5.8      2.191      4.768
REMARK  Name = 40779421
REMARK  8 active torsions:
REMARK  status: ('A' for Active; 'I' for Inactive)
REMARK    1  A    between atoms: O_2  and  C_25
REMARK    2  A    between atoms: O_2  and  C_26
REMARK    3  A    between atoms: N_4  and  C_23
REMARK    4  A    between atoms: N_5  and  C_15
REMARK    5  A    between atoms: C_8  and  C_14
REMARK    6  A    between atoms: C_9  and  C_15
REMARK    7  A    between atoms: C_17  and  C_18
REMARK    8  A    between atoms: C_24  and  C_25
REMARK                            x       y       z     vdW  Elec       q    Type
REMARK                         _______ _______ _______ _____ _____    ______ ____
ROOT
ATOM      3  N   UNL     1      -6.013 -11.376  17.911  0.00  0.00    -0.297 NA
ATOM      7  C   UNL     1      -7.112  -9.852  16.108  0.00  0.00    +0.002 C 
ATOM      8  C   UNL     1      -7.422 -11.347  15.818  0.00  0.00    +0.055 C 
ATOM      9  C   UNL     1      -5.010 -10.418  17.376  0.00  0.00    +0.074 C 
ATOM     10  C   UNL     1      -5.583  -9.650  16.166  0.00  0.00    +0.024 C 
ATOM     11  C   UNL     1      -6.573 -12.196  16.807  0.00  0.00    +0.094 C 
ATOM     12  C   UNL     1      -7.663  -9.548  17.518  0.00  0.00    +0.019 C 
ATOM     13  C   UNL     1      -7.117 -10.591  18.510  0.00  0.00    +0.085 C 
ENDROOT
BRANCH   8  14
ATOM      4  N   UNL     1      -8.224 -11.557  13.420  0.00  0.00    -0.271 N 
ATOM      6  N   UNL     1      -7.935 -12.085  12.218  0.00  0.00    -0.176 NA
ATOM     14  C   UNL     1      -7.301 -11.841  14.384  0.00  0.00    +0.044 A 
ATOM     16  C   UNL     1      -6.342 -12.609  13.771  0.00  0.00    +0.048 A 
ATOM     18  C   UNL     1      -6.784 -12.727  12.439  0.00  0.00    +0.066 A 
ATOM     23  C   UNL     1      -9.428 -10.774  13.574  0.00  0.00    +0.172 C 
BRANCH  18  17
ATOM     17  C   UNL     1      -6.109 -13.470  11.308  0.00  0.00    +0.040 C 
ATOM     19  C   UNL     1      -5.754 -12.550  10.126  0.00  0.00    +0.010 C 
ATOM     20  C   UNL     1      -4.793 -14.173  11.700  0.00  0.00    +0.010 C 
ATOM     21  C   UNL     1      -4.440 -13.098   9.591  0.00  0.00    +0.001 C 
ATOM     22  C   UNL     1      -3.707 -13.522  10.850  0.00  0.00    +0.001 C 
ENDBRANCH  18  17
ENDBRANCH   8  14
BRANCH   9  15
ATOM     15  C   UNL     1      -3.678 -11.095  17.043  0.00  0.00    +0.123 C 
BRANCH  15   5
ATOM      1  O   UNL     1      -1.104 -10.337  15.964  0.00  0.00    -0.272 OA
ATOM      5  N   UNL     1      -3.340 -10.908  15.666  0.00  0.00    -0.311 N 
ATOM     24  C   UNL     1      -2.068 -10.540  15.231  0.00  0.00    +0.251 C 
ATOM     32  H   UNL     1      -4.072 -11.049  14.974  0.00  0.00    +0.149 HD
BRANCH  24  25
ATOM     25  C   UNL     1      -1.993 -10.414  13.723  0.00  0.00    +0.324 C 
BRANCH  25   2
ATOM      2  O   UNL     1      -3.173 -10.903  13.123  0.00  0.00    -0.483 OA
BRANCH   2  26
ATOM     26  C   UNL     1      -3.708 -10.163  12.096  0.00  0.00    +0.121 A 
ATOM     27  C   UNL     1      -5.001  -9.650  12.205  0.00  0.00    +0.045 A 
ATOM     28  C   UNL     1      -2.958  -9.923  10.945  0.00  0.00    +0.045 A 
ATOM     29  C   UNL     1      -5.544  -8.900  11.163  0.00  0.00    +0.004 A 
ATOM     30  C   UNL     1      -3.502  -9.171   9.902  0.00  0.00    +0.004 A 
ATOM     31  C   UNL     1      -4.795  -8.659  10.012  0.00  0.00    +0.000 A 
ENDBRANCH   2  26
ENDBRANCH  25   2
ENDBRANCH  24  25
ENDBRANCH  15   5
ENDBRANCH   9  15
TORSDOF 7
ENDMDL
MODEL 4
REMARK VINA RESULT:      -5.8      3.263      5.511
REMARK  Name = 40779421
REMARK  8 active torsions:
REMARK  status: ('A' for Active; 'I' for Inactive)
REMARK    1  A    between atoms: O_2  and  C_25
REMARK    2  A    between atoms: O_2  and  C_26
REMARK    3  A    between atoms: N_4  and  C_23
REMARK    4  A    between atoms: N_5  and  C_15
REMARK    5  A    between atoms: C_8  and  C_14
REMARK    6  A    between atoms: C_9  and  C_15
REMARK    7  A    between atoms: C_17  and  C_18
REMARK    8  A    between atoms: C_24  and  C_25
REMARK                            x       y       z     vdW  Elec       q    Type
REMARK                         _______ _______ _______ _____ _____    ______ ____
ROOT
ATOM      3  N   UNL     1      -6.348 -10.451  17.528  0.00  0.00    -0.297 NA
ATOM      7  C   UNL     1      -4.231 -11.929  17.190  0.00  0.00    +0.002 C 
ATOM      8  C   UNL     1      -4.068 -10.571  16.453  0.00  0.00    +0.055 C 
ATOM      9  C   UNL     1      -6.745 -11.813  17.084  0.00  0.00    +0.074 C 
ATOM     10  C   UNL     1      -5.503 -12.637  16.680  0.00  0.00    +0.024 C 
ATOM     11  C   UNL     1      -5.437  -9.836  16.529  0.00  0.00    +0.094 C 
ATOM     12  C   UNL     1      -4.459 -11.602  18.681  0.00  0.00    +0.019 C 
ATOM     13  C   UNL     1      -5.609 -10.586  18.805  0.00  0.00    +0.085 C 
ENDROOT
BRANCH   8  14
ATOM      4  N   UNL     1      -2.166 -10.451  14.777  0.00  0.00    -0.271 N 
ATOM      6  N   UNL     1      -1.866 -10.488  13.467  0.00  0.00    -0.176 NA
ATOM     14  C   UNL     1      -3.497 -10.583  15.042  0.00  0.00    +0.044 A 
ATOM     16  C   UNL     1      -4.112 -10.714  13.820  0.00  0.00    +0.048 A 
ATOM     18  C   UNL     1      -3.059 -10.649  12.888  0.00  0.00    +0.066 A 
ATOM     23  C   UNL     1      -1.102 -10.283  15.739  0.00  0.00    +0.172 C 
BRANCH  18  17
ATOM     17  C   UNL     1      -3.156 -10.740  11.382  0.00  0.00    +0.040 C 
ATOM     19  C   UNL     1      -4.604 -10.927  10.894  0.00  0.00    +0.010 C 
ATOM     20  C   UNL     1      -2.618  -9.505  10.630  0.00  0.00    +0.010 C 
ATOM     21  C   UNL     1      -4.677 -10.146   9.590  0.00  0.00    +0.001 C 
ATOM     22  C   UNL     1      -3.809  -8.933   9.869  0.00  0.00    +0.001 C 
ENDBRANCH  18  17
ENDBRANCH   8  14
BRANCH   9  15
ATOM     15  C   UNL     1      -7.794 -11.780  15.970  0.00  0.00    +0.123 C 
BRANCH  15   5
ATOM      1  O   UNL     1     -10.283 -12.949  16.865  0.00  0.00    -0.272 OA
ATOM      5  N   UNL     1      -8.969 -11.086  16.397  0.00  0.00    -0.311 N 
ATOM     24  C   UNL     1     -10.132 -11.732  16.815  0.00  0.00    +0.251 C 
ATOM     32  H   UNL     1      -8.950 -10.070  16.390  0.00  0.00    +0.149 HD
BRANCH  24  25
ATOM     25  C   UNL     1     -11.219 -10.754  17.211  0.00  0.00    +0.324 C 
BRANCH  25   2
ATOM      2  O   UNL     1     -10.665  -9.492  17.517  0.00  0.00    -0.483 OA
BRANCH   2  26
ATOM     26  C   UNL     1     -11.238  -8.394  16.921  0.00  0.00    +0.121 A 
ATOM     27  C   UNL     1     -12.598  -8.400  16.608  0.00  0.00    +0.045 A 
ATOM     28  C   UNL     1     -10.461  -7.273  16.632  0.00  0.00    +0.045 A 
ATOM     29  C   UNL     1     -13.179  -7.286  16.003  0.00  0.00    +0.004 A 
ATOM     30  C   UNL     1     -11.043  -6.158  16.027  0.00  0.00    +0.004 A 
ATOM     31  C   UNL     1     -12.403  -6.165  15.713  0.00  0.00    +0.000 A 
ENDBRANCH   2  26
ENDBRANCH  25   2
ENDBRANCH  24  25
ENDBRANCH  15   5
ENDBRANCH   9  15
TORSDOF 7
ENDMDL
MODEL 5
REMARK VINA RESULT:      -5.6     27.063     29.694
REMARK  Name = 40779421
REMARK  8 active torsions:
REMARK  status: ('A' for Active; 'I' for Inactive)
REMARK    1  A    between atoms: O_2  and  C_25
REMARK    2  A    between atoms: O_2  and  C_26
REMARK    3  A    between atoms: N_4  and  C_23
REMARK    4  A    between atoms: N_5  and  C_15
REMARK    5  A    between atoms: C_8  and  C_14
REMARK    6  A    between atoms: C_9  and  C_15
REMARK    7  A    between atoms: C_17  and  C_18
REMARK    8  A    between atoms: C_24  and  C_25
REMARK                            x       y       z     vdW  Elec       q    Type
REMARK                         _______ _______ _______ _____ _____    ______ ____
ROOT
ATOM      3  N   UNL     1      15.143  12.948  22.321  0.00  0.00    -0.297 NA
ATOM      7  C   UNL     1      16.683  11.361  20.946  0.00  0.00    +0.002 C 
ATOM      8  C   UNL     1      15.752  12.169  20.000  0.00  0.00    +0.055 C 
ATOM      9  C   UNL     1      15.084  11.572  22.881  0.00  0.00    +0.074 C 
ATOM     10  C   UNL     1      15.823  10.577  21.961  0.00  0.00    +0.024 C 
ATOM     11  C   UNL     1      14.735  12.933  20.894  0.00  0.00    +0.094 C 
ATOM     12  C   UNL     1      17.506  12.390  21.749  0.00  0.00    +0.019 C 
ATOM     13  C   UNL     1      16.549  13.409  22.395  0.00  0.00    +0.085 C 
ENDROOT
BRANCH   8  14
ATOM      4  N   UNL     1      15.212  11.794  17.549  0.00  0.00    -0.271 N 
ATOM      6  N   UNL     1      14.533  11.013  16.691  0.00  0.00    -0.176 NA
ATOM     14  C   UNL     1      15.074  11.430  18.856  0.00  0.00    +0.044 A 
ATOM     16  C   UNL     1      14.245  10.334  18.854  0.00  0.00    +0.048 A 
ATOM     18  C   UNL     1      13.944  10.123  17.495  0.00  0.00    +0.066 A 
ATOM     23  C   UNL     1      15.990  12.896  17.032  0.00  0.00    +0.172 C 
BRANCH  18  17
ATOM     17  C   UNL     1      13.067   9.042  16.903  0.00  0.00    +0.040 C 
ATOM     19  C   UNL     1      11.831   8.744  17.771  0.00  0.00    +0.010 C 
ATOM     20  C   UNL     1      12.521   9.361  15.496  0.00  0.00    +0.010 C 
ATOM     21  C   UNL     1      10.725   8.429  16.775  0.00  0.00    +0.001 C 
ATOM     22  C   UNL     1      11.003   9.395  15.638  0.00  0.00    +0.001 C 
ENDBRANCH  18  17
ENDBRANCH   8  14
BRANCH   9  15
ATOM     15  C   UNL     1      13.650  11.122  23.173  0.00  0.00    +0.123 C 
BRANCH  15   5
ATOM      1  O   UNL     1      11.652  10.281  21.259  0.00  0.00    -0.272 OA
ATOM      5  N   UNL     1      13.423   9.796  22.689  0.00  0.00    -0.311 N 
ATOM     24  C   UNL     1      12.433   9.477  21.762  0.00  0.00    +0.251 C 
ATOM     32  H   UNL     1      14.017   9.052  23.046  0.00  0.00    +0.149 HD
BRANCH  24  25
ATOM     25  C   UNL     1      12.417   7.999  21.427  0.00  0.00    +0.324 C 
BRANCH  25   2
ATOM      2  O   UNL     1      13.549   7.354  21.968  0.00  0.00    -0.483 OA
BRANCH   2  26
ATOM     26  C   UNL     1      14.584   7.075  21.107  0.00  0.00    +0.121 A 
ATOM     27  C   UNL     1      15.880   6.926  21.600  0.00  0.00    +0.045 A 
ATOM     28  C   UNL     1      14.337   6.937  19.742  0.00  0.00    +0.045 A 
ATOM     29  C   UNL     1      16.930   6.643  20.727  0.00  0.00    +0.004 A 
ATOM     30  C   UNL     1      15.387   6.653  18.868  0.00  0.00    +0.004 A 
ATOM     31  C   UNL     1      16.684   6.506  19.361  0.00  0.00    +0.000 A 
ENDBRANCH   2  26
ENDBRANCH  25   2
ENDBRANCH  24  25
ENDBRANCH  15   5
ENDBRANCH   9  15
TORSDOF 7
ENDMDL
MODEL 6
REMARK VINA RESULT:      -5.5      2.338      3.945
REMARK  Name = 40779421
REMARK  8 active torsions:
REMARK  status: ('A' for Active; 'I' for Inactive)
REMARK    1  A    between atoms: O_2  and  C_25
REMARK    2  A    between atoms: O_2  and  C_26
REMARK    3  A    between atoms: N_4  and  C_23
REMARK    4  A    between atoms: N_5  and  C_15
REMARK    5  A    between atoms: C_8  and  C_14
REMARK    6  A    between atoms: C_9  and  C_15
REMARK    7  A    between atoms: C_17  and  C_18
REMARK    8  A    between atoms: C_24  and  C_25
REMARK                            x       y       z     vdW  Elec       q    Type
REMARK                         _______ _______ _______ _____ _____    ______ ____
ROOT
ATOM      3  N   UNL     1      -5.744 -10.331  17.647  0.00  0.00    -0.297 NA
ATOM      7  C   UNL     1      -4.835 -12.429  16.401  0.00  0.00    +0.002 C 
ATOM      8  C   UNL     1      -3.850 -11.237  16.248  0.00  0.00    +0.055 C 
ATOM      9  C   UNL     1      -6.802 -10.901  16.772  0.00  0.00    +0.074 C 
ATOM     10  C   UNL     1      -6.224 -12.015  15.873  0.00  0.00    +0.024 C 
ATOM     11  C   UNL     1      -4.550  -9.980  16.837  0.00  0.00    +0.094 C 
ATOM     12  C   UNL     1      -4.984 -12.692  17.915  0.00  0.00    +0.019 C 
ATOM     13  C   UNL     1      -5.350 -11.375  18.623  0.00  0.00    +0.085 C 
ENDROOT
BRANCH   8  14
ATOM      4  N   UNL     1      -1.997 -10.465  14.694  0.00  0.00    -0.271 N 
ATOM      6  N   UNL     1      -1.655 -10.306  13.404  0.00  0.00    -0.176 NA
ATOM     14  C   UNL     1      -3.251 -10.973  14.874  0.00  0.00    +0.044 A 
ATOM     16  C   UNL     1      -3.765 -11.157  13.613  0.00  0.00    +0.048 A 
ATOM     18  C   UNL     1      -2.739 -10.730  12.749  0.00  0.00    +0.066 A 
ATOM     23  C   UNL     1      -1.052 -10.102  15.724  0.00  0.00    +0.172 C 
BRANCH  18  17
ATOM     17  C   UNL     1      -2.757 -10.714  11.237  0.00  0.00    +0.040 C 
ATOM     19  C   UNL     1      -4.070 -11.268  10.656  0.00  0.00    +0.010 C 
ATOM     20  C   UNL     1      -2.581  -9.314  10.611  0.00  0.00    +0.010 C 
ATOM     21  C   UNL     1      -4.327 -10.430   9.412  0.00  0.00    +0.001 C 
ATOM     22  C   UNL     1      -3.863  -9.047   9.829  0.00  0.00    +0.001 C 
ENDBRANCH  18  17
ENDBRANCH   8  14
BRANCH   9  15
ATOM     15  C   UNL     1      -7.525  -9.827  15.956  0.00  0.00    +0.123 C 
BRANCH  15   5
ATOM      1  O   UNL     1      -9.167  -9.356  13.623  0.00  0.00    -0.272 OA
ATOM      5  N   UNL     1      -7.110  -9.860  14.588  0.00  0.00    -0.311 N 
ATOM     24  C   UNL     1      -7.973  -9.620  13.520  0.00  0.00    +0.251 C 
ATOM     32  H   UNL     1      -6.136 -10.073  14.392  0.00  0.00    +0.149 HD
BRANCH  24  25
ATOM     25  C   UNL     1      -7.268  -9.718  12.182  0.00  0.00    +0.324 C 
BRANCH  25   2
ATOM      2  O   UNL     1      -8.045  -9.125  11.165  0.00  0.00    -0.483 OA
BRANCH   2  26
ATOM     26  C   UNL     1      -7.849  -9.575   9.881  0.00  0.00    +0.121 A 
ATOM     27  C   UNL     1      -7.971 -10.935   9.593  0.00  0.00    +0.045 A 
ATOM     28  C   UNL     1      -7.532  -8.674   8.866  0.00  0.00    +0.045 A 
ATOM     29  C   UNL     1      -7.772 -11.393   8.291  0.00  0.00    +0.004 A 
ATOM     30  C   UNL     1      -7.334  -9.132   7.563  0.00  0.00    +0.004 A 
ATOM     31  C   UNL     1      -7.454 -10.491   7.276  0.00  0.00    +0.000 A 
ENDBRANCH   2  26
ENDBRANCH  25   2
ENDBRANCH  24  25
ENDBRANCH  15   5
ENDBRANCH   9  15
TORSDOF 7
ENDMDL
MODEL 7
REMARK VINA RESULT:      -5.5     27.115     29.748
REMARK  Name = 40779421
REMARK  8 active torsions:
REMARK  status: ('A' for Active; 'I' for Inactive)
REMARK    1  A    between atoms: O_2  and  C_25
REMARK    2  A    between atoms: O_2  and  C_26
REMARK    3  A    between atoms: N_4  and  C_23
REMARK    4  A    between atoms: N_5  and  C_15
REMARK    5  A    between atoms: C_8  and  C_14
REMARK    6  A    between atoms: C_9  and  C_15
REMARK    7  A    between atoms: C_17  and  C_18
REMARK    8  A    between atoms: C_24  and  C_25
REMARK                            x       y       z     vdW  Elec       q    Type
REMARK                         _______ _______ _______ _____ _____    ______ ____
ROOT
ATOM      3  N   UNL     1      11.705  11.628  24.392  0.00  0.00    -0.297 NA
ATOM      7  C   UNL     1      11.668  12.624  21.986  0.00  0.00    +0.002 C 
ATOM      8  C   UNL     1      11.275  11.121  21.958  0.00  0.00    +0.055 C 
ATOM      9  C   UNL     1      12.972  12.358  24.125  0.00  0.00    +0.074 C 
ATOM     10  C   UNL     1      13.057  12.776  22.641  0.00  0.00    +0.024 C 
ATOM     11  C   UNL     1      11.515  10.553  23.385  0.00  0.00    +0.094 C 
ATOM     12  C   UNL     1      10.652  13.333  22.907  0.00  0.00    +0.019 C 
ATOM     13  C   UNL     1      10.587  12.592  24.255  0.00  0.00    +0.085 C 
ENDROOT
BRANCH   8  14
ATOM      4  N   UNL     1      11.523   8.938  20.688  0.00  0.00    -0.271 N 
ATOM      6  N   UNL     1      12.176   8.333  19.681  0.00  0.00    -0.176 NA
ATOM     14  C   UNL     1      11.883  10.240  20.876  0.00  0.00    +0.044 A 
ATOM     16  C   UNL     1      12.838  10.506  19.926  0.00  0.00    +0.048 A 
ATOM     18  C   UNL     1      12.978   9.296  19.219  0.00  0.00    +0.066 A 
ATOM     23  C   UNL     1      10.547   8.189  21.445  0.00  0.00    +0.172 C 
BRANCH  18  17
ATOM     17  C   UNL     1      13.900   9.012  18.054  0.00  0.00    +0.040 C 
ATOM     19  C   UNL     1      13.152   8.441  16.836  0.00  0.00    +0.010 C 
ATOM     20  C   UNL     1      14.668  10.244  17.532  0.00  0.00    +0.010 C 
ATOM     21  C   UNL     1      13.871   9.028  15.630  0.00  0.00    +0.001 C 
ATOM     22  C   UNL     1      14.215  10.433  16.088  0.00  0.00    +0.001 C 
ENDBRANCH  18  17
ENDBRANCH   8  14
BRANCH   9  15
ATOM     15  C   UNL     1      14.205  11.565  24.565  0.00  0.00    +0.123 C 
BRANCH  15   5
ATOM      1  O   UNL     1      14.507   9.264  22.839  0.00  0.00    -0.272 OA
ATOM      5  N   UNL     1      15.127  11.413  23.482  0.00  0.00    -0.311 N 
ATOM     24  C   UNL     1      15.206  10.264  22.697  0.00  0.00    +0.251 C 
ATOM     32  H   UNL     1      15.757  12.186  23.282  0.00  0.00    +0.149 HD
BRANCH  24  25
ATOM     25  C   UNL     1      16.269  10.376  21.624  0.00  0.00    +0.324 C 
BRANCH  25   2
ATOM      2  O   UNL     1      16.150   9.321  20.694  0.00  0.00    -0.483 OA
BRANCH   2  26
ATOM     26  C   UNL     1      17.113   8.341  20.729  0.00  0.00    +0.121 A 
ATOM     27  C   UNL     1      16.920   7.147  20.034  0.00  0.00    +0.045 A 
ATOM     28  C   UNL     1      18.285   8.541  21.458  0.00  0.00    +0.045 A 
ATOM     29  C   UNL     1      17.897   6.152  20.070  0.00  0.00    +0.004 A 
ATOM     30  C   UNL     1      19.263   7.547  21.493  0.00  0.00    +0.004 A 
ATOM     31  C   UNL     1      19.069   6.352  20.799  0.00  0.00    +0.000 A 
ENDBRANCH   2  26
ENDBRANCH  25   2
ENDBRANCH  24  25
ENDBRANCH  15   5
ENDBRANCH   9  15
TORSDOF 7
ENDMDL
MODEL 8
REMARK VINA RESULT:      -5.5      3.263      6.172
REMARK  Name = 40779421
REMARK  8 active torsions:
REMARK  status: ('A' for Active; 'I' for Inactive)
REMARK    1  A    between atoms: O_2  and  C_25
REMARK    2  A    between atoms: O_2  and  C_26
REMARK    3  A    between atoms: N_4  and  C_23
REMARK    4  A    between atoms: N_5  and  C_15
REMARK    5  A    between atoms: C_8  and  C_14
REMARK    6  A    between atoms: C_9  and  C_15
REMARK    7  A    between atoms: C_17  and  C_18
REMARK    8  A    between atoms: C_24  and  C_25
REMARK                            x       y       z     vdW  Elec       q    Type
REMARK                         _______ _______ _______ _____ _____    ______ ____
ROOT
ATOM      3  N   UNL     1      -5.641 -12.285  16.979  0.00  0.00    -0.297 NA
ATOM      7  C   UNL     1      -6.124 -10.677  18.969  0.00  0.00    +0.002 C 
ATOM      8  C   UNL     1      -7.441 -11.333  18.470  0.00  0.00    +0.055 C 
ATOM      9  C   UNL     1      -5.000 -10.966  16.734  0.00  0.00    +0.074 C 
ATOM     10  C   UNL     1      -5.445  -9.939  17.797  0.00  0.00    +0.024 C 
ATOM     11  C   UNL     1      -7.104 -12.111  17.166  0.00  0.00    +0.094 C 
ATOM     12  C   UNL     1      -5.184 -11.827  19.388  0.00  0.00    +0.019 C 
ATOM     13  C   UNL     1      -5.078 -12.839  18.233  0.00  0.00    +0.085 C 
ENDROOT
BRANCH   8  14
ATOM      4  N   UNL     1      -9.799 -10.604  19.061  0.00  0.00    -0.271 N 
ATOM      6  N   UNL     1     -10.771  -9.723  18.769  0.00  0.00    -0.176 NA
ATOM     14  C   UNL     1      -8.670 -10.448  18.312  0.00  0.00    +0.044 A 
ATOM     16  C   UNL     1      -8.920  -9.392  17.471  0.00  0.00    +0.048 A 
ATOM     18  C   UNL     1     -10.228  -8.985  17.797  0.00  0.00    +0.066 A 
ATOM     23  C   UNL     1     -10.029 -11.590  20.091  0.00  0.00    +0.172 C 
BRANCH  18  17
ATOM     17  C   UNL     1     -11.021  -7.854  17.180  0.00  0.00    +0.040 C 
ATOM     19  C   UNL     1     -10.242  -7.123  16.072  0.00  0.00    +0.010 C 
ATOM     20  C   UNL     1     -12.356  -8.286  16.538  0.00  0.00    +0.010 C 
ATOM     21  C   UNL     1     -11.297  -6.743  15.044  0.00  0.00    +0.001 C 
ATOM     22  C   UNL     1     -12.234  -7.937  15.058  0.00  0.00    +0.001 C 
ENDBRANCH  18  17
ENDBRANCH   8  14
BRANCH   9  15
ATOM     15  C   UNL     1      -5.241 -10.456  15.312  0.00  0.00    +0.123 C 
BRANCH  15   5
ATOM      1  O   UNL     1      -3.846 -12.603  13.968  0.00  0.00    -0.272 OA
ATOM      5  N   UNL     1      -4.012 -10.366  14.586  0.00  0.00    -0.311 N 
ATOM     24  C   UNL     1      -3.406 -11.457  13.966  0.00  0.00    +0.251 C 
ATOM     32  H   UNL     1      -3.562  -9.456  14.526  0.00  0.00    +0.149 HD
BRANCH  24  25
ATOM     25  C   UNL     1      -2.116 -11.076  13.270  0.00  0.00    +0.324 C 
BRANCH  25   2
ATOM      2  O   UNL     1      -2.074 -11.619  11.968  0.00  0.00    -0.483 OA
BRANCH   2  26
ATOM     26  C   UNL     1      -2.844 -11.008  11.007  0.00  0.00    +0.121 A 
ATOM     27  C   UNL     1      -3.749 -11.760  10.257  0.00  0.00    +0.045 A 
ATOM     28  C   UNL     1      -2.722  -9.637  10.783  0.00  0.00    +0.045 A 
ATOM     29  C   UNL     1      -4.531 -11.140   9.282  0.00  0.00    +0.004 A 
ATOM     30  C   UNL     1      -3.505  -9.018   9.808  0.00  0.00    +0.004 A 
ATOM     31  C   UNL     1      -4.409  -9.769   9.058  0.00  0.00    +0.000 A 
ENDBRANCH   2  26
ENDBRANCH  25   2
ENDBRANCH  24  25
ENDBRANCH  15   5
ENDBRANCH   9  15
TORSDOF 7
ENDMDL
MODEL 9
REMARK VINA RESULT:      -5.5      3.283      5.925
REMARK  Name = 40779421
REMARK  8 active torsions:
REMARK  status: ('A' for Active; 'I' for Inactive)
REMARK    1  A    between atoms: O_2  and  C_25
REMARK    2  A    between atoms: O_2  and  C_26
REMARK    3  A    between atoms: N_4  and  C_23
REMARK    4  A    between atoms: N_5  and  C_15
REMARK    5  A    between atoms: C_8  and  C_14
REMARK    6  A    between atoms: C_9  and  C_15
REMARK    7  A    between atoms: C_17  and  C_18
REMARK    8  A    between atoms: C_24  and  C_25
REMARK                            x       y       z     vdW  Elec       q    Type
REMARK                         _______ _______ _______ _____ _____    ______ ____
ROOT
ATOM      3  N   UNL     1      -6.647 -10.610  18.229  0.00  0.00    -0.297 NA
ATOM      7  C   UNL     1      -4.541 -12.049  17.708  0.00  0.00    +0.002 C 
ATOM      8  C   UNL     1      -4.462 -10.684  16.970  0.00  0.00    +0.055 C 
ATOM      9  C   UNL     1      -7.056 -11.976  17.809  0.00  0.00    +0.074 C 
ATOM     10  C   UNL     1      -5.839 -12.776  17.299  0.00  0.00    +0.024 C 
ATOM     11  C   UNL     1      -5.832  -9.974  17.164  0.00  0.00    +0.094 C 
ATOM     12  C   UNL     1      -4.652 -11.736  19.215  0.00  0.00    +0.019 C 
ATOM     13  C   UNL     1      -5.804 -10.740  19.441  0.00  0.00    +0.085 C 
ENDROOT
BRANCH   8  14
ATOM      4  N   UNL     1      -2.696 -10.660  15.147  0.00  0.00    -0.271 N 
ATOM      6  N   UNL     1      -2.506 -10.657  13.817  0.00  0.00    -0.176 NA
ATOM     14  C   UNL     1      -4.009 -10.678  15.517  0.00  0.00    +0.044 A 
ATOM     16  C   UNL     1      -4.729 -10.686  14.347  0.00  0.00    +0.048 A 
ATOM     18  C   UNL     1      -3.752 -10.673  13.333  0.00  0.00    +0.066 A 
ATOM     23  C   UNL     1      -1.548 -10.644  16.023  0.00  0.00    +0.172 C 
BRANCH  18  17
ATOM     17  C   UNL     1      -3.977 -10.678  11.838  0.00  0.00    +0.040 C 
ATOM     19  C   UNL     1      -4.990  -9.609  11.390  0.00  0.00    +0.010 C 
ATOM     20  C   UNL     1      -2.706 -10.424  11.000  0.00  0.00    +0.010 C 
ATOM     21  C   UNL     1      -4.477  -9.129  10.041  0.00  0.00    +0.001 C 
ATOM     22  C   UNL     1      -2.970  -9.137  10.226  0.00  0.00    +0.001 C 
ENDBRANCH  18  17
ENDBRANCH   8  14
BRANCH   9  15
ATOM     15  C   UNL     1      -8.194 -11.955  16.786  0.00  0.00    +0.123 C 
BRANCH  15   5
ATOM      1  O   UNL     1      -8.987  -9.569  15.358  0.00  0.00    -0.272 OA
ATOM      5  N   UNL     1      -9.205 -11.018  17.166  0.00  0.00    -0.311 N 
ATOM     24  C   UNL     1      -9.525  -9.888  16.415  0.00  0.00    +0.251 C 
ATOM     32  H   UNL     1      -9.711 -11.189  18.031  0.00  0.00    +0.149 HD
BRANCH  24  25
ATOM     25  C   UNL     1     -10.632  -9.073  17.050  0.00  0.00    +0.324 C 
BRANCH  25   2
ATOM      2  O   UNL     1     -10.687  -9.306  18.441  0.00  0.00    -0.483 OA
BRANCH   2  26
ATOM     26  C   UNL     1     -11.918  -9.590  18.982  0.00  0.00    +0.121 A 
ATOM     27  C   UNL     1     -12.020  -9.983  20.317  0.00  0.00    +0.045 A 
ATOM     28  C   UNL     1     -13.066  -9.484  18.198  0.00  0.00    +0.045 A 
ATOM     29  C   UNL     1     -13.269 -10.271  20.867  0.00  0.00    +0.004 A 
ATOM     30  C   UNL     1     -14.316  -9.772  18.748  0.00  0.00    +0.004 A 
ATOM     31  C   UNL     1     -14.417 -10.165  20.082  0.00  0.00    +0.000 A 
ENDBRANCH   2  26
ENDBRANCH  25   2
ENDBRANCH  24  25
ENDBRANCH  15   5
ENDBRANCH   9  15
TORSDOF 7
ENDMDL
MODEL 10
REMARK VINA RESULT:      -5.3     26.373     29.384
REMARK  Name = 40779421
REMARK  8 active torsions:
REMARK  status: ('A' for Active; 'I' for Inactive)
REMARK    1  A    between atoms: O_2  and  C_25
REMARK    2  A    between atoms: O_2  and  C_26
REMARK    3  A    between atoms: N_4  and  C_23
REMARK    4  A    between atoms: N_5  and  C_15
REMARK    5  A    between atoms: C_8  and  C_14
REMARK    6  A    between atoms: C_9  and  C_15
REMARK    7  A    between atoms: C_17  and  C_18
REMARK    8  A    between atoms: C_24  and  C_25
REMARK                            x       y       z     vdW  Elec       q    Type
REMARK                         _______ _______ _______ _____ _____    ______ ____
ROOT
ATOM      3  N   UNL     1      13.414   9.009  17.314  0.00  0.00    -0.297 NA
ATOM      7  C   UNL     1      14.312   8.337  19.664  0.00  0.00    +0.002 C 
ATOM      8  C   UNL     1      12.758   8.303  19.646  0.00  0.00    +0.055 C 
ATOM      9  C   UNL     1      14.409  10.010  17.784  0.00  0.00    +0.074 C 
ATOM     10  C   UNL     1      14.797   9.743  19.254  0.00  0.00    +0.024 C 
ATOM     11  C   UNL     1      12.299   8.907  18.289  0.00  0.00    +0.094 C 
ATOM     12  C   UNL     1      14.791   7.355  18.574  0.00  0.00    +0.019 C 
ATOM     13  C   UNL     1      14.091   7.693  17.246  0.00  0.00    +0.085 C 
ENDROOT
BRANCH   8  14
ATOM      4  N   UNL     1      11.254   8.166  21.686  0.00  0.00    -0.271 N 
ATOM      6  N   UNL     1      10.679   8.886  22.663  0.00  0.00    -0.176 NA
ATOM     14  C   UNL     1      12.013   8.907  20.828  0.00  0.00    +0.044 A 
ATOM     16  C   UNL     1      11.928  10.203  21.275  0.00  0.00    +0.048 A 
ATOM     18  C   UNL     1      11.094  10.130  22.408  0.00  0.00    +0.066 A 
ATOM     23  C   UNL     1      11.027   6.740  21.634  0.00  0.00    +0.172 C 
BRANCH  18  17
ATOM     17  C   UNL     1      10.656  11.267  23.303  0.00  0.00    +0.040 C 
ATOM     19  C   UNL     1      11.242  11.160  24.723  0.00  0.00    +0.010 C 
ATOM     20  C   UNL     1      11.051  12.669  22.794  0.00  0.00    +0.010 C 
ATOM     21  C   UNL     1      11.502  12.598  25.144  0.00  0.00    +0.001 C 
ATOM     22  C   UNL     1      11.975  13.251  23.859  0.00  0.00    +0.001 C 
ENDBRANCH  18  17
ENDBRANCH   8  14
BRANCH   9  15
ATOM     15  C   UNL     1      13.934  11.449  17.571  0.00  0.00    +0.123 C 
BRANCH  15   5
ATOM      1  O   UNL     1      15.797  12.087  15.454  0.00  0.00    -0.272 OA
ATOM      5  N   UNL     1      13.627  11.687  16.195  0.00  0.00    -0.311 N 
ATOM     24  C   UNL     1      14.592  11.990  15.236  0.00  0.00    +0.251 C 
ATOM     32  H   UNL     1      12.653  11.633  15.909  0.00  0.00    +0.149 HD
BRANCH  24  25
ATOM     25  C   UNL     1      13.989  12.193  13.861  0.00  0.00    +0.324 C 
BRANCH  25   2
ATOM      2  O   UNL     1      12.708  11.603  13.788  0.00  0.00    -0.483 OA
BRANCH   2  26
ATOM     26  C   UNL     1      11.854  12.075  12.820  0.00  0.00    +0.121 A 
ATOM     27  C   UNL     1      12.365  12.728  11.697  0.00  0.00    +0.045 A 
ATOM     28  C   UNL     1      10.478  11.900  12.958  0.00  0.00    +0.045 A 
ATOM     29  C   UNL     1      11.499  13.207  10.714  0.00  0.00    +0.004 A 
ATOM     30  C   UNL     1       9.612  12.379  11.974  0.00  0.00    +0.004 A 
ATOM     31  C   UNL     1      10.122  13.032  10.853  0.00  0.00    +0.000 A 
ENDBRANCH   2  26
ENDBRANCH  25   2
ENDBRANCH  24  25
ENDBRANCH  15   5
ENDBRANCH   9  15
TORSDOF 7
ENDMDL
