MODEL 1
REMARK VINA RESULT:      -7.5      0.000      0.000
REMARK  Name = 56774867
REMARK  5 active torsions:
REMARK  status: ('A' for Active; 'I' for Inactive)
REMARK    1  A    between atoms: O_3  and  C_14
REMARK    2  A    between atoms: N_5  and  C_17
REMARK    3  A    between atoms: C_7  and  C_12
REMARK    4  A    between atoms: C_13  and  C_14
REMARK    5  A    between atoms: C_14  and  C_16
REMARK                            x       y       z     vdW  Elec       q    Type
REMARK                         _______ _______ _______ _____ _____    ______ ____
ROOT
ATOM     16  C   UNL     1      15.780   7.068  20.110  0.00  0.00    -0.017 A 
ATOM     17  C   UNL     1      18.338   5.961  20.232  0.00  0.00    +0.033 A 
ATOM     18  C   UNL     1      16.566   7.251  21.247  0.00  0.00    +0.008 A 
ATOM     19  C   UNL     1      16.274   6.331  19.033  0.00  0.00    +0.008 A 
ATOM     20  C   UNL     1      17.844   6.698  21.309  0.00  0.00    +0.023 A 
ATOM     21  C   UNL     1      17.553   5.778  19.094  0.00  0.00    +0.023 A 
ENDROOT
BRANCH  17   5
ATOM      2  O   UNL     1      21.025   7.281  20.551  0.00  0.00    -0.275 OA
ATOM      5  N   UNL     1      19.618   5.408  20.293  0.00  0.00    -0.285 N 
ATOM     12  C   UNL     1      20.842   6.074  20.442  0.00  0.00    +0.220 C 
ATOM     24  H   UNL     1      19.650   4.393  20.227  0.00  0.00    +0.155 HD
BRANCH  12   7
ATOM      7  C   UNL     1      21.995   5.117  20.463  0.00  0.00    +0.075 C 
ATOM      8  C   UNL     1      21.523   3.726  20.903  0.00  0.00    +0.013 C 
ATOM      9  C   UNL     1      23.042   5.558  21.487  0.00  0.00    +0.013 C 
ATOM     10  C   UNL     1      22.382   3.358  22.108  0.00  0.00    +0.001 C 
ATOM     11  C   UNL     1      22.769   4.695  22.712  0.00  0.00    +0.001 C 
ENDBRANCH  12   7
ENDBRANCH  17   5
BRANCH  16  14
ATOM     14  C   UNL     1      14.397   7.667  20.043  0.00  0.00    +0.167 C 
BRANCH  14  13
ATOM      1  O   UNL     1      11.748   8.836  20.682  0.00  0.00    -0.369 OA
ATOM      4  O   UNL     1      10.911   5.364  21.226  0.00  0.00    -0.273 OA
ATOM      6  N   UNL     1      12.900   6.465  21.547  0.00  0.00    -0.306 N 
ATOM     13  C   UNL     1      13.708   7.667  21.406  0.00  0.00    +0.131 C 
ATOM     15  C   UNL     1      12.838   8.903  21.598  0.00  0.00    +0.185 C 
ATOM     22  C   UNL     1      10.890   7.754  20.984  0.00  0.00    +0.255 C 
ATOM     23  C   UNL     1      11.558   6.411  21.237  0.00  0.00    +0.239 C 
ATOM     25  H   UNL     1      13.375   5.595  21.765  0.00  0.00    +0.149 HD
ENDBRANCH  14  13
BRANCH  14   3
ATOM      3  O   UNL     1      13.608   6.931  19.112  0.00  0.00    -0.385 OA
ATOM     26  H   UNL     1      14.190   6.614  18.401  0.00  0.00    +0.210 HD
ENDBRANCH  14   3
ENDBRANCH  16  14
TORSDOF 5
ENDMDL
MODEL 2
REMARK VINA RESULT:      -7.4      1.745      2.486
REMARK  Name = 56774867
REMARK  5 active torsions:
REMARK  status: ('A' for Active; 'I' for Inactive)
REMARK    1  A    between atoms: O_3  and  C_14
REMARK    2  A    between atoms: N_5  and  C_17
REMARK    3  A    between atoms: C_7  and  C_12
REMARK    4  A    between atoms: C_13  and  C_14
REMARK    5  A    between atoms: C_14  and  C_16
REMARK                            x       y       z     vdW  Elec       q    Type
REMARK                         _______ _______ _______ _____ _____    ______ ____
ROOT
ATOM     16  C   UNL     1      15.972   6.626  19.942  0.00  0.00    -0.017 A 
ATOM     17  C   UNL     1      18.676   6.341  20.566  0.00  0.00    +0.033 A 
ATOM     18  C   UNL     1      16.804   5.878  19.110  0.00  0.00    +0.008 A 
ATOM     19  C   UNL     1      16.491   7.231  21.087  0.00  0.00    +0.008 A 
ATOM     20  C   UNL     1      18.156   5.735  19.421  0.00  0.00    +0.023 A 
ATOM     21  C   UNL     1      17.843   7.089  21.398  0.00  0.00    +0.023 A 
ENDROOT
BRANCH  17   5
ATOM      2  O   UNL     1      20.055   6.134  23.234  0.00  0.00    -0.275 OA
ATOM      5  N   UNL     1      20.028   6.198  20.878  0.00  0.00    -0.285 N 
ATOM     12  C   UNL     1      20.619   6.107  22.145  0.00  0.00    +0.220 C 
ATOM     24  H   UNL     1      20.651   6.147  20.074  0.00  0.00    +0.155 HD
BRANCH  12   7
ATOM      7  C   UNL     1      22.107   5.959  22.054  0.00  0.00    +0.075 C 
ATOM      8  C   UNL     1      22.550   5.932  20.587  0.00  0.00    +0.013 C 
ATOM      9  C   UNL     1      22.554   4.628  22.661  0.00  0.00    +0.013 C 
ATOM     10  C   UNL     1      23.330   4.633  20.412  0.00  0.00    +0.001 C 
ATOM     11  C   UNL     1      22.750   3.707  21.465  0.00  0.00    +0.001 C 
ENDBRANCH  12   7
ENDBRANCH  17   5
BRANCH  16  14
ATOM     14  C   UNL     1      14.509   6.780  19.606  0.00  0.00    +0.167 C 
BRANCH  14  13
ATOM      1  O   UNL     1      13.199   7.742  17.126  0.00  0.00    -0.369 OA
ATOM      4  O   UNL     1      10.539   8.531  19.439  0.00  0.00    -0.273 OA
ATOM      6  N   UNL     1      12.812   8.526  19.759  0.00  0.00    -0.306 N 
ATOM     13  C   UNL     1      14.149   8.226  19.269  0.00  0.00    +0.131 C 
ATOM     15  C   UNL     1      14.225   8.492  17.771  0.00  0.00    +0.185 C 
ATOM     22  C   UNL     1      11.915   8.204  17.499  0.00  0.00    +0.255 C 
ATOM     23  C   UNL     1      11.676   8.411  18.986  0.00  0.00    +0.239 C 
ATOM     25  H   UNL     1      12.698   8.707  20.752  0.00  0.00    +0.149 HD
ENDBRANCH  14  13
BRANCH  14   3
ATOM      3  O   UNL     1      13.721   6.339  20.709  0.00  0.00    -0.385 OA
ATOM     26  H   UNL     1      13.985   6.847  21.494  0.00  0.00    +0.210 HD
ENDBRANCH  14   3
ENDBRANCH  16  14
TORSDOF 5
ENDMDL
MODEL 3
REMARK VINA RESULT:      -6.9     27.794     30.486
REMARK  Name = 56774867
REMARK  5 active torsions:
REMARK  status: ('A' for Active; 'I' for Inactive)
REMARK    1  A    between atoms: O_3  and  C_14
REMARK    2  A    between atoms: N_5  and  C_17
REMARK    3  A    between atoms: C_7  and  C_12
REMARK    4  A    between atoms: C_13  and  C_14
REMARK    5  A    between atoms: C_14  and  C_16
REMARK                            x       y       z     vdW  Elec       q    Type
REMARK                         _______ _______ _______ _____ _____    ______ ____
ROOT
ATOM     16  C   UNL     1     -13.671   6.406  21.049  0.00  0.00    -0.017 A 
ATOM     17  C   UNL     1     -12.136   8.204  19.569  0.00  0.00    +0.033 A 
ATOM     18  C   UNL     1     -14.291   7.289  20.165  0.00  0.00    +0.008 A 
ATOM     19  C   UNL     1     -12.284   6.422  21.193  0.00  0.00    +0.008 A 
ATOM     20  C   UNL     1     -13.523   8.188  19.425  0.00  0.00    +0.023 A 
ATOM     21  C   UNL     1     -11.516   7.321  20.453  0.00  0.00    +0.023 A 
ENDROOT
BRANCH  17   5
ATOM      2  O   UNL     1     -10.453   7.774  17.109  0.00  0.00    -0.275 OA
ATOM      5  N   UNL     1     -11.368   9.102  18.828  0.00  0.00    -0.285 N 
ATOM     12  C   UNL     1     -10.599   8.846  17.685  0.00  0.00    +0.220 C 
ATOM     24  H   UNL     1     -11.383  10.062  19.168  0.00  0.00    +0.155 HD
BRANCH  12   7
ATOM      7  C   UNL     1      -9.921  10.085  17.183  0.00  0.00    +0.075 C 
ATOM      8  C   UNL     1     -10.178  11.256  18.139  0.00  0.00    +0.013 C 
ATOM      9  C   UNL     1     -10.496  10.503  15.829  0.00  0.00    +0.013 C 
ATOM     10  C   UNL     1     -10.801  12.357  17.288  0.00  0.00    +0.001 C 
ATOM     11  C   UNL     1     -11.486  11.612  16.157  0.00  0.00    +0.001 C 
ENDBRANCH  12   7
ENDBRANCH  17   5
BRANCH  16  14
ATOM     14  C   UNL     1     -14.502   5.433  21.850  0.00  0.00    +0.167 C 
BRANCH  14  13
ATOM      1  O   UNL     1     -17.155   5.621  23.160  0.00  0.00    -0.369 OA
ATOM      4  O   UNL     1     -15.711   3.102  25.308  0.00  0.00    -0.273 OA
ATOM      6  N   UNL     1     -14.705   4.850  24.209  0.00  0.00    -0.306 N 
ATOM     13  C   UNL     1     -14.785   5.949  23.259  0.00  0.00    +0.131 C 
ATOM     15  C   UNL     1     -16.152   6.616  23.350  0.00  0.00    +0.185 C 
ATOM     22  C   UNL     1     -17.153   4.682  24.216  0.00  0.00    +0.255 C 
ATOM     23  C   UNL     1     -15.799   4.114  24.615  0.00  0.00    +0.239 C 
ATOM     25  H   UNL     1     -13.784   4.529  24.491  0.00  0.00    +0.149 HD
ENDBRANCH  14  13
BRANCH  14   3
ATOM      3  O   UNL     1     -13.820   4.184  21.930  0.00  0.00    -0.385 OA
ATOM     26  H   UNL     1     -13.518   4.059  22.845  0.00  0.00    +0.210 HD
ENDBRANCH  14   3
ENDBRANCH  16  14
TORSDOF 5
ENDMDL
MODEL 4
REMARK VINA RESULT:      -6.9      2.560      8.667
REMARK  Name = 56774867
REMARK  5 active torsions:
REMARK  status: ('A' for Active; 'I' for Inactive)
REMARK    1  A    between atoms: O_3  and  C_14
REMARK    2  A    between atoms: N_5  and  C_17
REMARK    3  A    between atoms: C_7  and  C_12
REMARK    4  A    between atoms: C_13  and  C_14
REMARK    5  A    between atoms: C_14  and  C_16
REMARK                            x       y       z     vdW  Elec       q    Type
REMARK                         _______ _______ _______ _____ _____    ______ ____
ROOT
ATOM     16  C   UNL     1      17.816   6.407  20.196  0.00  0.00    -0.017 A 
ATOM     17  C   UNL     1      15.547   7.758  19.300  0.00  0.00    +0.033 A 
ATOM     18  C   UNL     1      17.398   7.570  20.841  0.00  0.00    +0.008 A 
ATOM     19  C   UNL     1      17.100   5.918  19.103  0.00  0.00    +0.008 A 
ATOM     20  C   UNL     1      16.263   8.246  20.393  0.00  0.00    +0.023 A 
ATOM     21  C   UNL     1      15.965   6.595  18.655  0.00  0.00    +0.023 A 
ENDROOT
BRANCH  17   5
ATOM      2  O   UNL     1      12.673   6.872  19.158  0.00  0.00    -0.275 OA
ATOM      5  N   UNL     1      14.411   8.434  18.852  0.00  0.00    -0.285 N 
ATOM     12  C   UNL     1      13.090   7.971  18.807  0.00  0.00    +0.220 C 
ATOM     24  H   UNL     1      14.578   9.384  18.527  0.00  0.00    +0.155 HD
BRANCH  12   7
ATOM      7  C   UNL     1      12.156   9.006  18.257  0.00  0.00    +0.075 C 
ATOM      8  C   UNL     1      11.056   8.340  17.423  0.00  0.00    +0.013 C 
ATOM      9  C   UNL     1      12.898   9.952  17.311  0.00  0.00    +0.013 C 
ATOM     10  C   UNL     1      11.125   8.993  16.047  0.00  0.00    +0.001 C 
ATOM     11  C   UNL     1      12.571   9.435  15.917  0.00  0.00    +0.001 C 
ENDBRANCH  12   7
ENDBRANCH  17   5
BRANCH  16  14
ATOM     14  C   UNL     1      19.044   5.674  20.681  0.00  0.00    +0.167 C 
BRANCH  14  13
ATOM      1  O   UNL     1      20.979   5.578  22.925  0.00  0.00    -0.369 OA
ATOM      4  O   UNL     1      23.268   4.766  20.251  0.00  0.00    -0.273 OA
ATOM      6  N   UNL     1      21.402   6.105  20.234  0.00  0.00    -0.306 N 
ATOM     13  C   UNL     1      20.221   6.621  20.908  0.00  0.00    +0.131 C 
ATOM     15  C   UNL     1      20.511   6.814  22.392  0.00  0.00    +0.185 C 
ATOM     22  C   UNL     1      22.228   5.219  22.368  0.00  0.00    +0.255 C 
ATOM     23  C   UNL     1      22.346   5.313  20.854  0.00  0.00    +0.239 C 
ATOM     25  H   UNL     1      21.470   6.229  19.229  0.00  0.00    +0.149 HD
ENDBRANCH  14  13
BRANCH  14   3
ATOM      3  O   UNL     1      19.410   4.682  19.727  0.00  0.00    -0.385 OA
ATOM     26  H   UNL     1      18.667   4.062  19.630  0.00  0.00    +0.210 HD
ENDBRANCH  14   3
ENDBRANCH  16  14
TORSDOF 5
ENDMDL
MODEL 5
REMARK VINA RESULT:      -6.8      1.735      8.597
REMARK  Name = 56774867
REMARK  5 active torsions:
REMARK  status: ('A' for Active; 'I' for Inactive)
REMARK    1  A    between atoms: O_3  and  C_14
REMARK    2  A    between atoms: N_5  and  C_17
REMARK    3  A    between atoms: C_7  and  C_12
REMARK    4  A    between atoms: C_13  and  C_14
REMARK    5  A    between atoms: C_14  and  C_16
REMARK                            x       y       z     vdW  Elec       q    Type
REMARK                         _______ _______ _______ _____ _____    ______ ____
ROOT
ATOM     16  C   UNL     1      17.773   6.236  20.426  0.00  0.00    -0.017 A 
ATOM     17  C   UNL     1      15.324   7.552  20.197  0.00  0.00    +0.033 A 
ATOM     18  C   UNL     1      17.309   7.033  21.472  0.00  0.00    +0.008 A 
ATOM     19  C   UNL     1      17.011   6.096  19.265  0.00  0.00    +0.008 A 
ATOM     20  C   UNL     1      16.085   7.691  21.357  0.00  0.00    +0.023 A 
ATOM     21  C   UNL     1      15.787   6.754  19.151  0.00  0.00    +0.023 A 
ENDROOT
BRANCH  17   5
ATOM      2  O   UNL     1      12.609   6.508  19.416  0.00  0.00    -0.275 OA
ATOM      5  N   UNL     1      14.098   8.209  20.082  0.00  0.00    -0.285 N 
ATOM     12  C   UNL     1      12.859   7.671  19.712  0.00  0.00    +0.220 C 
ATOM     24  H   UNL     1      14.122   9.202  20.306  0.00  0.00    +0.155 HD
BRANCH  12   7
ATOM      7  C   UNL     1      11.780   8.712  19.710  0.00  0.00    +0.075 C 
ATOM      8  C   UNL     1      12.354  10.073  20.122  0.00  0.00    +0.013 C 
ATOM      9  C   UNL     1      10.702   8.372  20.741  0.00  0.00    +0.013 C 
ATOM     10  C   UNL     1      11.524  10.529  21.317  0.00  0.00    +0.001 C 
ATOM     11  C   UNL     1      11.037   9.237  21.948  0.00  0.00    +0.001 C 
ENDBRANCH  12   7
ENDBRANCH  17   5
BRANCH  16  14
ATOM     14  C   UNL     1      19.097   5.523  20.549  0.00  0.00    +0.167 C 
BRANCH  14  13
ATOM      1  O   UNL     1      21.010   5.480  22.815  0.00  0.00    -0.369 OA
ATOM      4  O   UNL     1      23.345   4.709  20.170  0.00  0.00    -0.273 OA
ATOM      6  N   UNL     1      21.450   6.005  20.126  0.00  0.00    -0.306 N 
ATOM     13  C   UNL     1      20.250   6.497  20.785  0.00  0.00    +0.131 C 
ATOM     15  C   UNL     1      20.519   6.703  22.271  0.00  0.00    +0.185 C 
ATOM     22  C   UNL     1      22.272   5.147  22.273  0.00  0.00    +0.255 C 
ATOM     23  C   UNL     1      22.405   5.238  20.760  0.00  0.00    +0.239 C 
ATOM     25  H   UNL     1      21.527   6.126  19.121  0.00  0.00    +0.149 HD
ENDBRANCH  14  13
BRANCH  14   3
ATOM      3  O   UNL     1      19.343   4.774  19.362  0.00  0.00    -0.385 OA
ATOM     26  H   UNL     1      18.625   4.128  19.254  0.00  0.00    +0.210 HD
ENDBRANCH  14   3
ENDBRANCH  16  14
TORSDOF 5
ENDMDL
MODEL 6
REMARK VINA RESULT:      -6.5      2.369      8.560
REMARK  Name = 56774867
REMARK  5 active torsions:
REMARK  status: ('A' for Active; 'I' for Inactive)
REMARK    1  A    between atoms: O_3  and  C_14
REMARK    2  A    between atoms: N_5  and  C_17
REMARK    3  A    between atoms: C_7  and  C_12
REMARK    4  A    between atoms: C_13  and  C_14
REMARK    5  A    between atoms: C_14  and  C_16
REMARK                            x       y       z     vdW  Elec       q    Type
REMARK                         _______ _______ _______ _____ _____    ______ ____
ROOT
ATOM     16  C   UNL     1      18.766   6.974  21.269  0.00  0.00    -0.017 A 
ATOM     17  C   UNL     1      16.451   7.305  19.748  0.00  0.00    +0.033 A 
ATOM     18  C   UNL     1      17.949   8.084  21.477  0.00  0.00    +0.008 A 
ATOM     19  C   UNL     1      18.426   6.029  20.301  0.00  0.00    +0.008 A 
ATOM     20  C   UNL     1      16.791   8.250  20.717  0.00  0.00    +0.023 A 
ATOM     21  C   UNL     1      17.269   6.195  19.541  0.00  0.00    +0.023 A 
ENDROOT
BRANCH  17   5
ATOM      2  O   UNL     1      13.571   6.752  20.428  0.00  0.00    -0.275 OA
ATOM      5  N   UNL     1      15.293   7.471  18.988  0.00  0.00    -0.285 N 
ATOM     12  C   UNL     1      13.970   7.194  19.356  0.00  0.00    +0.220 C 
ATOM     24  H   UNL     1      15.443   7.847  18.054  0.00  0.00    +0.155 HD
BRANCH  12   7
ATOM      7  C   UNL     1      13.008   7.511  18.251  0.00  0.00    +0.075 C 
ATOM      8  C   UNL     1      13.771   7.891  16.976  0.00  0.00    +0.013 C 
ATOM      9  C   UNL     1      12.151   8.724  18.615  0.00  0.00    +0.013 C 
ATOM     10  C   UNL     1      13.257   9.271  16.581  0.00  0.00    +0.001 C 
ATOM     11  C   UNL     1      12.808   9.891  17.891  0.00  0.00    +0.001 C 
ENDBRANCH  12   7
ENDBRANCH  17   5
BRANCH  16  14
ATOM     14  C   UNL     1      20.018   6.794  22.092  0.00  0.00    +0.167 C 
BRANCH  14  13
ATOM      1  O   UNL     1      22.873   7.274  21.449  0.00  0.00    -0.369 OA
ATOM      4  O   UNL     1      23.347   4.760  23.999  0.00  0.00    -0.273 OA
ATOM      6  N   UNL     1      21.640   5.015  22.485  0.00  0.00    -0.306 N 
ATOM     13  C   UNL     1      20.986   5.801  21.450  0.00  0.00    +0.131 C 
ATOM     15  C   UNL     1      22.030   6.505  20.594  0.00  0.00    +0.185 C 
ATOM     22  C   UNL     1      23.627   6.442  22.308  0.00  0.00    +0.255 C 
ATOM     23  C   UNL     1      22.862   5.345  23.032  0.00  0.00    +0.239 C 
ATOM     25  H   UNL     1      21.115   4.258  22.912  0.00  0.00    +0.149 HD
ENDBRANCH  14  13
BRANCH  14   3
ATOM      3  O   UNL     1      19.666   6.338  23.395  0.00  0.00    -0.385 OA
ATOM     26  H   UNL     1      20.405   6.531  23.997  0.00  0.00    +0.210 HD
ENDBRANCH  14   3
ENDBRANCH  16  14
TORSDOF 5
ENDMDL
MODEL 7
REMARK VINA RESULT:      -6.4     18.054     20.119
REMARK  Name = 56774867
REMARK  5 active torsions:
REMARK  status: ('A' for Active; 'I' for Inactive)
REMARK    1  A    between atoms: O_3  and  C_14
REMARK    2  A    between atoms: N_5  and  C_17
REMARK    3  A    between atoms: C_7  and  C_12
REMARK    4  A    between atoms: C_13  and  C_14
REMARK    5  A    between atoms: C_14  and  C_16
REMARK                            x       y       z     vdW  Elec       q    Type
REMARK                         _______ _______ _______ _____ _____    ______ ____
ROOT
ATOM     16  C   UNL     1      10.356   5.060   3.762  0.00  0.00    -0.017 A 
ATOM     17  C   UNL     1      11.167   4.980   1.094  0.00  0.00    +0.033 A 
ATOM     18  C   UNL     1      10.122   6.154   2.929  0.00  0.00    +0.008 A 
ATOM     19  C   UNL     1      10.995   3.926   3.261  0.00  0.00    +0.008 A 
ATOM     20  C   UNL     1      10.528   6.114   1.595  0.00  0.00    +0.023 A 
ATOM     21  C   UNL     1      11.401   3.886   1.927  0.00  0.00    +0.023 A 
ENDROOT
BRANCH  17   5
ATOM      2  O   UNL     1       9.554   4.683  -1.431  0.00  0.00    -0.275 OA
ATOM      5  N   UNL     1      11.572   4.940  -0.241  0.00  0.00    -0.285 N 
ATOM     12  C   UNL     1      10.774   4.798  -1.383  0.00  0.00    +0.220 C 
ATOM     24  H   UNL     1      12.575   5.033  -0.388  0.00  0.00    +0.155 HD
BRANCH  12   7
ATOM      7  C   UNL     1      11.594   4.802  -2.637  0.00  0.00    +0.075 C 
ATOM      8  C   UNL     1      10.781   4.231  -3.805  0.00  0.00    +0.013 C 
ATOM      9  C   UNL     1      12.817   3.896  -2.484  0.00  0.00    +0.013 C 
ATOM     10  C   UNL     1      11.606   3.075  -4.361  0.00  0.00    +0.001 C 
ATOM     11  C   UNL     1      12.423   2.598  -3.174  0.00  0.00    +0.001 C 
ENDBRANCH  12   7
ENDBRANCH  17   5
BRANCH  16  14
ATOM     14  C   UNL     1       9.917   5.103   5.205  0.00  0.00    +0.167 C 
BRANCH  14  13
ATOM      1  O   UNL     1       8.781   7.159   7.015  0.00  0.00    -0.369 OA
ATOM      4  O   UNL     1      10.506   5.192   9.506  0.00  0.00    -0.273 OA
ATOM      6  N   UNL     1      11.049   5.588   7.310  0.00  0.00    -0.306 N 
ATOM     13  C   UNL     1      10.700   6.139   6.010  0.00  0.00    +0.131 C 
ATOM     15  C   UNL     1       9.909   7.429   6.187  0.00  0.00    +0.185 C 
ATOM     22  C   UNL     1       9.179   6.808   8.326  0.00  0.00    +0.255 C 
ATOM     23  C   UNL     1      10.285   5.771   8.443  0.00  0.00    +0.239 C 
ATOM     25  H   UNL     1      11.825   4.935   7.359  0.00  0.00    +0.149 HD
ENDBRANCH  14  13
BRANCH  14   3
ATOM      3  O   UNL     1      10.092   3.816   5.791  0.00  0.00    -0.385 OA
ATOM     26  H   UNL     1      10.403   3.206   5.100  0.00  0.00    +0.210 HD
ENDBRANCH  14   3
ENDBRANCH  16  14
TORSDOF 5
ENDMDL
MODEL 8
REMARK VINA RESULT:      -6.2     22.195     25.399
REMARK  Name = 56774867
REMARK  5 active torsions:
REMARK  status: ('A' for Active; 'I' for Inactive)
REMARK    1  A    between atoms: O_3  and  C_14
REMARK    2  A    between atoms: N_5  and  C_17
REMARK    3  A    between atoms: C_7  and  C_12
REMARK    4  A    between atoms: C_13  and  C_14
REMARK    5  A    between atoms: C_14  and  C_16
REMARK                            x       y       z     vdW  Elec       q    Type
REMARK                         _______ _______ _______ _____ _____    ______ ____
ROOT
ATOM     16  C   UNL     1      -0.286  10.652  37.053  0.00  0.00    -0.017 A 
ATOM     17  C   UNL     1      -0.886   8.316  38.454  0.00  0.00    +0.033 A 
ATOM     18  C   UNL     1      -0.476  10.697  38.434  0.00  0.00    +0.008 A 
ATOM     19  C   UNL     1      -0.396   9.439  36.373  0.00  0.00    +0.008 A 
ATOM     20  C   UNL     1      -0.776   9.529  39.135  0.00  0.00    +0.023 A 
ATOM     21  C   UNL     1      -0.697   8.272  37.074  0.00  0.00    +0.023 A 
ENDROOT
BRANCH  17   5
ATOM      2  O   UNL     1      -3.434   7.443  39.802  0.00  0.00    -0.275 OA
ATOM      5  N   UNL     1      -1.186   7.148  39.156  0.00  0.00    -0.285 N 
ATOM     12  C   UNL     1      -2.395   6.791  39.767  0.00  0.00    +0.220 C 
ATOM     24  H   UNL     1      -0.423   6.476  39.216  0.00  0.00    +0.155 HD
BRANCH  12   7
ATOM      7  C   UNL     1      -2.311   5.446  40.421  0.00  0.00    +0.075 C 
ATOM      8  C   UNL     1      -2.972   5.485  41.803  0.00  0.00    +0.013 C 
ATOM      9  C   UNL     1      -0.852   5.050  40.654  0.00  0.00    +0.013 C 
ATOM     10  C   UNL     1      -1.907   5.012  42.787  0.00  0.00    +0.001 C 
ATOM     11  C   UNL     1      -0.595   5.379  42.118  0.00  0.00    +0.001 C 
ENDBRANCH  12   7
ENDBRANCH  17   5
BRANCH  16  14
ATOM     14  C   UNL     1       0.040  11.916  36.294  0.00  0.00    +0.167 C 
BRANCH  14  13
ATOM      1  O   UNL     1      -1.433  14.063  34.876  0.00  0.00    -0.369 OA
ATOM      4  O   UNL     1       1.574  14.109  32.876  0.00  0.00    -0.273 OA
ATOM      6  N   UNL     1       0.550  12.358  33.951  0.00  0.00    -0.306 N 
ATOM     13  C   UNL     1      -0.477  11.868  34.857  0.00  0.00    +0.131 C 
ATOM     15  C   UNL     1      -1.752  12.686  34.690  0.00  0.00    +0.185 C 
ATOM     22  C   UNL     1      -0.577  14.534  33.854  0.00  0.00    +0.255 C 
ATOM     23  C   UNL     1       0.630  13.668  33.529  0.00  0.00    +0.239 C 
ATOM     25  H   UNL     1       1.316  11.734  33.717  0.00  0.00    +0.149 HD
ENDBRANCH  14  13
BRANCH  14   3
ATOM      3  O   UNL     1       1.451  12.111  36.285  0.00  0.00    -0.385 OA
ATOM     26  H   UNL     1       1.869  11.300  35.949  0.00  0.00    +0.210 HD
ENDBRANCH  14   3
ENDBRANCH  16  14
TORSDOF 5
ENDMDL
MODEL 9
REMARK VINA RESULT:      -6.1     16.648     18.350
REMARK  Name = 56774867
REMARK  5 active torsions:
REMARK  status: ('A' for Active; 'I' for Inactive)
REMARK    1  A    between atoms: O_3  and  C_14
REMARK    2  A    between atoms: N_5  and  C_17
REMARK    3  A    between atoms: C_7  and  C_12
REMARK    4  A    between atoms: C_13  and  C_14
REMARK    5  A    between atoms: C_14  and  C_16
REMARK                            x       y       z     vdW  Elec       q    Type
REMARK                         _______ _______ _______ _____ _____    ______ ____
ROOT
ATOM     16  C   UNL     1      10.857   5.468   4.135  0.00  0.00    -0.017 A 
ATOM     17  C   UNL     1      12.485   5.037   1.911  0.00  0.00    +0.033 A 
ATOM     18  C   UNL     1      11.859   6.384   3.817  0.00  0.00    +0.008 A 
ATOM     19  C   UNL     1      10.668   4.336   3.341  0.00  0.00    +0.008 A 
ATOM     20  C   UNL     1      12.673   6.169   2.705  0.00  0.00    +0.023 A 
ATOM     21  C   UNL     1      11.482   4.122   2.229  0.00  0.00    +0.023 A 
ENDROOT
BRANCH  17   5
ATOM      2  O   UNL     1      14.918   3.297   1.575  0.00  0.00    -0.275 OA
ATOM      5  N   UNL     1      13.299   4.823   0.798  0.00  0.00    -0.285 N 
ATOM     12  C   UNL     1      14.426   3.997   0.697  0.00  0.00    +0.220 C 
ATOM     24  H   UNL     1      13.022   5.330  -0.040  0.00  0.00    +0.155 HD
BRANCH  12   7
ATOM      7  C   UNL     1      15.025   4.041  -0.675  0.00  0.00    +0.075 C 
ATOM      8  C   UNL     1      16.556   4.033  -0.588  0.00  0.00    +0.013 C 
ATOM      9  C   UNL     1      14.644   5.340  -1.388  0.00  0.00    +0.013 C 
ATOM     10  C   UNL     1      17.022   5.274  -1.342  0.00  0.00    +0.001 C 
ATOM     11  C   UNL     1      15.859   6.242  -1.221  0.00  0.00    +0.001 C 
ENDBRANCH  12   7
ENDBRANCH  17   5
BRANCH  16  14
ATOM     14  C   UNL     1       9.975   5.700   5.337  0.00  0.00    +0.167 C 
BRANCH  14  13
ATOM      1  O   UNL     1       8.809   7.094   7.681  0.00  0.00    -0.369 OA
ATOM      4  O   UNL     1      10.211   4.259   9.426  0.00  0.00    -0.273 OA
ATOM      6  N   UNL     1      10.954   5.340   7.542  0.00  0.00    -0.306 N 
ATOM     13  C   UNL     1      10.745   6.330   6.497  0.00  0.00    +0.131 C 
ATOM     15  C   UNL     1      10.016   7.541   7.066  0.00  0.00    +0.185 C 
ATOM     22  C   UNL     1       9.077   6.284   8.808  0.00  0.00    +0.255 C 
ATOM     23  C   UNL     1      10.110   5.183   8.621  0.00  0.00    +0.239 C 
ATOM     25  H   UNL     1      11.686   4.649   7.405  0.00  0.00    +0.149 HD
ENDBRANCH  14  13
BRANCH  14   3
ATOM      3  O   UNL     1       9.413   4.460   5.758  0.00  0.00    -0.385 OA
ATOM     26  H   UNL     1      10.029   4.043   6.383  0.00  0.00    +0.210 HD
ENDBRANCH  14   3
ENDBRANCH  16  14
TORSDOF 5
ENDMDL
MODEL 10
REMARK VINA RESULT:      -6.0     27.079     30.462
REMARK  Name = 56774867
REMARK  5 active torsions:
REMARK  status: ('A' for Active; 'I' for Inactive)
REMARK    1  A    between atoms: O_3  and  C_14
REMARK    2  A    between atoms: N_5  and  C_17
REMARK    3  A    between atoms: C_7  and  C_12
REMARK    4  A    between atoms: C_13  and  C_14
REMARK    5  A    between atoms: C_14  and  C_16
REMARK                            x       y       z     vdW  Elec       q    Type
REMARK                         _______ _______ _______ _____ _____    ______ ____
ROOT
ATOM     16  C   UNL     1      -4.684 -10.390  16.971  0.00  0.00    -0.017 A 
ATOM     17  C   UNL     1      -7.073 -10.318  18.408  0.00  0.00    +0.033 A 
ATOM     18  C   UNL     1      -4.774 -11.031  18.206  0.00  0.00    +0.008 A 
ATOM     19  C   UNL     1      -5.789  -9.713  16.454  0.00  0.00    +0.008 A 
ATOM     20  C   UNL     1      -5.968 -10.995  18.925  0.00  0.00    +0.023 A 
ATOM     21  C   UNL     1      -6.983  -9.677  17.173  0.00  0.00    +0.023 A 
ENDROOT
BRANCH  17   5
ATOM      2  O   UNL     1      -9.325 -12.312  18.559  0.00  0.00    -0.275 OA
ATOM      5  N   UNL     1      -8.269 -10.283  19.128  0.00  0.00    -0.285 N 
ATOM     12  C   UNL     1      -9.288 -11.243  19.160  0.00  0.00    +0.220 C 
ATOM     24  H   UNL     1      -8.400  -9.452  19.701  0.00  0.00    +0.155 HD
BRANCH  12   7
ATOM      7  C   UNL     1     -10.412 -10.830  20.060  0.00  0.00    +0.075 C 
ATOM      8  C   UNL     1     -11.286 -12.041  20.409  0.00  0.00    +0.013 C 
ATOM      9  C   UNL     1     -11.329  -9.831  19.352  0.00  0.00    +0.013 C 
ATOM     10  C   UNL     1     -12.703 -11.667  19.987  0.00  0.00    +0.001 C 
ATOM     11  C   UNL     1     -12.504 -10.666  18.864  0.00  0.00    +0.001 C 
ENDBRANCH  12   7
ENDBRANCH  17   5
BRANCH  16  14
ATOM     14  C   UNL     1      -3.392 -10.430  16.192  0.00  0.00    +0.167 C 
BRANCH  14  13
ATOM      1  O   UNL     1      -1.378 -11.583  14.347  0.00  0.00    -0.369 OA
ATOM      4  O   UNL     1      -3.566 -14.449  14.559  0.00  0.00    -0.273 OA
ATOM      6  N   UNL     1      -4.061 -12.210  14.665  0.00  0.00    -0.306 N 
ATOM     13  C   UNL     1      -3.616 -10.826  14.734  0.00  0.00    +0.131 C 
ATOM     15  C   UNL     1      -2.353 -10.645  13.900  0.00  0.00    +0.185 C 
ATOM     22  C   UNL     1      -1.784 -12.911  14.082  0.00  0.00    +0.255 C 
ATOM     23  C   UNL     1      -3.206 -13.275  14.479  0.00  0.00    +0.239 C 
ATOM     25  H   UNL     1      -5.031 -12.410  14.889  0.00  0.00    +0.149 HD
ENDBRANCH  14  13
BRANCH  14   3
ATOM      3  O   UNL     1      -2.499 -11.356  16.804  0.00  0.00    -0.385 OA
ATOM     26  H   UNL     1      -2.236 -11.000  17.670  0.00  0.00    +0.210 HD
ENDBRANCH  14   3
ENDBRANCH  16  14
TORSDOF 5
ENDMDL
