MODEL 1
REMARK VINA RESULT:      -7.2      0.000      0.000
REMARK  Name = 75536507
REMARK  9 active torsions:
REMARK  status: ('A' for Active; 'I' for Inactive)
REMARK    1  A    between atoms: S_1  and  C_19
REMARK    2  A    between atoms: S_1  and  C_23
REMARK    3  A    between atoms: O_3  and  C_10
REMARK    4  A    between atoms: N_7  and  C_9
REMARK    5  A    between atoms: N_7  and  C_14
REMARK    6  A    between atoms: N_8  and  C_13
REMARK    7  A    between atoms: C_11  and  C_13
REMARK    8  A    between atoms: C_14  and  C_15
REMARK    9  A    between atoms: C_18  and  C_22
REMARK                            x       y       z     vdW  Elec       q    Type
REMARK                         _______ _______ _______ _____ _____    ______ ____
ROOT
ATOM      7  N   UNL     1      13.984   6.380  19.590  0.00  0.00    -0.305 NA
ATOM     24  H   UNL     1      14.062   5.788  18.762  0.00  0.00    +0.123 HD
ENDROOT
BRANCH   7   9
ATOM      2  O   UNL     1      11.262   8.752  20.032  0.00  0.00    -0.371 OA
ATOM      9  C   UNL     1      12.605   6.815  19.732  0.00  0.00    +0.111 C 
ATOM     10  C   UNL     1      12.129   6.869  21.173  0.00  0.00    +0.164 C 
ATOM     11  C   UNL     1      10.925   7.793  21.049  0.00  0.00    +0.165 C 
ATOM     12  C   UNL     1      12.389   8.253  19.290  0.00  0.00    +0.181 C 
BRANCH  10   3
ATOM      3  O   UNL     1      11.768   5.598  21.677  0.00  0.00    -0.388 OA
ATOM     25  H   UNL     1      12.287   5.430  22.481  0.00  0.00    +0.210 HD
ENDBRANCH  10   3
BRANCH  11  13
ATOM     13  C   UNL     1      10.585   8.514  22.342  0.00  0.00    +0.138 C 
BRANCH  13   8
ATOM      4  O   UNL     1      10.968  11.388  22.199  0.00  0.00    -0.276 OA
ATOM      8  N   UNL     1      11.704   9.269  22.829  0.00  0.00    -0.313 N 
ATOM     18  C   UNL     1      11.804  10.651  22.717  0.00  0.00    +0.210 C 
ATOM     22  C   UNL     1      13.067  11.191  23.331  0.00  0.00    +0.109 C 
ATOM     26  H   UNL     1      12.460   8.757  23.275  0.00  0.00    +0.149 HD
ENDBRANCH  13   8
ENDBRANCH  11  13
ENDBRANCH   7   9
BRANCH   7  14
ATOM     14  C   UNL     1      14.882   7.518  19.443  0.00  0.00    +0.116 C 
BRANCH  14  15
ATOM     15  C   UNL     1      16.274   7.202  19.922  0.00  0.00    -0.033 A 
ATOM     16  C   UNL     1      16.995   6.163  19.333  0.00  0.00    +0.007 A 
ATOM     17  C   UNL     1      16.841   7.946  20.957  0.00  0.00    +0.007 A 
ATOM     19  C   UNL     1      18.851   6.613  20.812  0.00  0.00    +0.088 A 
ATOM     20  C   UNL     1      18.284   5.869  19.777  0.00  0.00    +0.027 A 
ATOM     21  C   UNL     1      18.130   7.652  21.402  0.00  0.00    +0.027 A 
BRANCH  19   1
ATOM      1  S   UNL     1      20.463   6.244  21.372  0.00  0.00    -0.006 S 
ATOM      5  O   UNL     1      21.378   7.268  20.886  0.00  0.00    -0.170 OA
ATOM      6  O   UNL     1      20.388   5.960  22.798  0.00  0.00    -0.170 OA
ATOM     23  C   UNL     1      20.887   4.732  20.535  0.00  0.00    +0.200 C 
ENDBRANCH  19   1
ENDBRANCH  14  15
ENDBRANCH   7  14
TORSDOF 7
ENDMDL
MODEL 2
REMARK VINA RESULT:      -6.5      2.377      3.721
REMARK  Name = 75536507
REMARK  9 active torsions:
REMARK  status: ('A' for Active; 'I' for Inactive)
REMARK    1  A    between atoms: S_1  and  C_19
REMARK    2  A    between atoms: S_1  and  C_23
REMARK    3  A    between atoms: O_3  and  C_10
REMARK    4  A    between atoms: N_7  and  C_9
REMARK    5  A    between atoms: N_7  and  C_14
REMARK    6  A    between atoms: N_8  and  C_13
REMARK    7  A    between atoms: C_11  and  C_13
REMARK    8  A    between atoms: C_14  and  C_15
REMARK    9  A    between atoms: C_18  and  C_22
REMARK                            x       y       z     vdW  Elec       q    Type
REMARK                         _______ _______ _______ _____ _____    ______ ____
ROOT
ATOM      7  N   UNL     1      14.546   8.266  21.288  0.00  0.00    -0.305 NA
ATOM     24  H   UNL     1      14.869   7.395  21.712  0.00  0.00    +0.123 HD
ENDROOT
BRANCH   7   9
ATOM      2  O   UNL     1      12.106   6.885  18.971  0.00  0.00    -0.371 OA
ATOM      9  C   UNL     1      13.231   8.051  20.708  0.00  0.00    +0.111 C 
ATOM     10  C   UNL     1      12.889   9.028  19.597  0.00  0.00    +0.164 C 
ATOM     11  C   UNL     1      11.770   8.280  18.884  0.00  0.00    +0.165 C 
ATOM     12  C   UNL     1      13.113   6.720  19.984  0.00  0.00    +0.181 C 
BRANCH  10   3
ATOM      3  O   UNL     1      12.456  10.282  20.086  0.00  0.00    -0.388 OA
ATOM     25  H   UNL     1      13.003  10.516  20.855  0.00  0.00    +0.210 HD
ENDBRANCH  10   3
BRANCH  11  13
ATOM     13  C   UNL     1      11.612   8.681  17.428  0.00  0.00    +0.138 C 
BRANCH  13   8
ATOM      4  O   UNL     1      13.353   8.715  15.105  0.00  0.00    -0.276 OA
ATOM      8  N   UNL     1      12.555   9.698  17.061  0.00  0.00    -0.313 N 
ATOM     18  C   UNL     1      13.352   9.631  15.924  0.00  0.00    +0.210 C 
ATOM     22  C   UNL     1      14.234  10.840  15.763  0.00  0.00    +0.109 C 
ATOM     26  H   UNL     1      12.640  10.505  17.672  0.00  0.00    +0.149 HD
ENDBRANCH  13   8
ENDBRANCH  11  13
ENDBRANCH   7   9
BRANCH   7  14
ATOM     14  C   UNL     1      15.507   8.681  20.273  0.00  0.00    +0.116 C 
BRANCH  14  15
ATOM     15  C   UNL     1      16.819   7.955  20.411  0.00  0.00    -0.033 A 
ATOM     16  C   UNL     1      17.008   6.729  19.772  0.00  0.00    +0.007 A 
ATOM     17  C   UNL     1      17.844   8.507  21.179  0.00  0.00    +0.007 A 
ATOM     19  C   UNL     1      19.248   6.608  20.668  0.00  0.00    +0.088 A 
ATOM     20  C   UNL     1      18.223   6.057  19.899  0.00  0.00    +0.027 A 
ATOM     21  C   UNL     1      19.059   7.834  21.307  0.00  0.00    +0.027 A 
BRANCH  19   1
ATOM      1  S   UNL     1      20.768   5.765  20.831  0.00  0.00    -0.006 S 
ATOM      5  O   UNL     1      20.579   4.372  20.449  0.00  0.00    -0.170 OA
ATOM      6  O   UNL     1      21.795   6.562  20.175  0.00  0.00    -0.170 OA
ATOM     23  C   UNL     1      21.097   5.781  22.580  0.00  0.00    +0.200 C 
ENDBRANCH  19   1
ENDBRANCH  14  15
ENDBRANCH   7  14
TORSDOF 7
ENDMDL
MODEL 3
REMARK VINA RESULT:      -6.5      2.748      4.394
REMARK  Name = 75536507
REMARK  9 active torsions:
REMARK  status: ('A' for Active; 'I' for Inactive)
REMARK    1  A    between atoms: S_1  and  C_19
REMARK    2  A    between atoms: S_1  and  C_23
REMARK    3  A    between atoms: O_3  and  C_10
REMARK    4  A    between atoms: N_7  and  C_9
REMARK    5  A    between atoms: N_7  and  C_14
REMARK    6  A    between atoms: N_8  and  C_13
REMARK    7  A    between atoms: C_11  and  C_13
REMARK    8  A    between atoms: C_14  and  C_15
REMARK    9  A    between atoms: C_18  and  C_22
REMARK                            x       y       z     vdW  Elec       q    Type
REMARK                         _______ _______ _______ _____ _____    ______ ____
ROOT
ATOM      7  N   UNL     1      18.049   7.023  21.714  0.00  0.00    -0.305 NA
ATOM     24  H   UNL     1      18.275   6.524  22.575  0.00  0.00    +0.123 HD
ENDROOT
BRANCH   7   9
ATOM      2  O   UNL     1      15.710   6.254  19.036  0.00  0.00    -0.371 OA
ATOM      9  C   UNL     1      16.898   6.392  21.088  0.00  0.00    +0.111 C 
ATOM     10  C   UNL     1      15.622   7.205  21.200  0.00  0.00    +0.164 C 
ATOM     11  C   UNL     1      14.786   6.594  20.084  0.00  0.00    +0.165 C 
ATOM     12  C   UNL     1      17.041   6.262  19.581  0.00  0.00    +0.181 C 
BRANCH  10   3
ATOM      3  O   UNL     1      14.996   7.070  22.461  0.00  0.00    -0.388 OA
ATOM     25  H   UNL     1      14.074   6.797  22.318  0.00  0.00    +0.210 HD
ENDBRANCH  10   3
BRANCH  11  13
ATOM     13  C   UNL     1      13.723   7.535  19.545  0.00  0.00    +0.138 C 
BRANCH  13   8
ATOM      4  O   UNL     1      11.412   6.117  20.583  0.00  0.00    -0.276 OA
ATOM      8  N   UNL     1      12.831   7.965  20.584  0.00  0.00    -0.313 N 
ATOM     18  C   UNL     1      11.743   7.217  21.019  0.00  0.00    +0.210 C 
ATOM     22  C   UNL     1      10.989   7.888  22.135  0.00  0.00    +0.109 C 
ATOM     26  H   UNL     1      13.011   8.866  21.016  0.00  0.00    +0.149 HD
ENDBRANCH  13   8
ENDBRANCH  11  13
ENDBRANCH   7   9
BRANCH   7  14
ATOM     14  C   UNL     1      19.209   6.992  20.832  0.00  0.00    +0.116 C 
BRANCH  14  15
ATOM     15  C   UNL     1      20.246   6.008  21.303  0.00  0.00    -0.033 A 
ATOM     16  C   UNL     1      20.535   4.878  20.536  0.00  0.00    +0.007 A 
ATOM     17  C   UNL     1      20.917   6.223  22.507  0.00  0.00    +0.007 A 
ATOM     19  C   UNL     1      22.166   4.182  22.175  0.00  0.00    +0.088 A 
ATOM     20  C   UNL     1      21.495   3.966  20.971  0.00  0.00    +0.027 A 
ATOM     21  C   UNL     1      21.878   5.311  22.943  0.00  0.00    +0.027 A 
BRANCH  19   1
ATOM      1  S   UNL     1      23.366   3.038  22.723  0.00  0.00    -0.006 S 
ATOM      5  O   UNL     1      24.589   3.758  23.054  0.00  0.00    -0.170 OA
ATOM      6  O   UNL     1      22.742   2.177  23.718  0.00  0.00    -0.170 OA
ATOM     23  C   UNL     1      23.721   2.048  21.289  0.00  0.00    +0.200 C 
ENDBRANCH  19   1
ENDBRANCH  14  15
ENDBRANCH   7  14
TORSDOF 7
ENDMDL
MODEL 4
REMARK VINA RESULT:      -6.4      1.706      2.324
REMARK  Name = 75536507
REMARK  9 active torsions:
REMARK  status: ('A' for Active; 'I' for Inactive)
REMARK    1  A    between atoms: S_1  and  C_19
REMARK    2  A    between atoms: S_1  and  C_23
REMARK    3  A    between atoms: O_3  and  C_10
REMARK    4  A    between atoms: N_7  and  C_9
REMARK    5  A    between atoms: N_7  and  C_14
REMARK    6  A    between atoms: N_8  and  C_13
REMARK    7  A    between atoms: C_11  and  C_13
REMARK    8  A    between atoms: C_14  and  C_15
REMARK    9  A    between atoms: C_18  and  C_22
REMARK                            x       y       z     vdW  Elec       q    Type
REMARK                         _______ _______ _______ _____ _____    ______ ____
ROOT
ATOM      7  N   UNL     1      15.679   6.601  21.175  0.00  0.00    -0.305 NA
ATOM     24  H   UNL     1      16.105   5.681  21.294  0.00  0.00    +0.123 HD
ENDROOT
BRANCH   7   9
ATOM      2  O   UNL     1      13.795   7.788  18.299  0.00  0.00    -0.371 OA
ATOM      9  C   UNL     1      14.700   6.535  20.103  0.00  0.00    +0.111 C 
ATOM     10  C   UNL     1      13.328   7.051  20.498  0.00  0.00    +0.164 C 
ATOM     11  C   UNL     1      12.716   7.332  19.133  0.00  0.00    +0.165 C 
ATOM     12  C   UNL     1      15.039   7.447  18.934  0.00  0.00    +0.181 C 
BRANCH  10   3
ATOM      3  O   UNL     1      12.577   6.102  21.228  0.00  0.00    -0.388 OA
ATOM     25  H   UNL     1      13.194   5.544  21.731  0.00  0.00    +0.210 HD
ENDBRANCH  10   3
BRANCH  11  13
ATOM     13  C   UNL     1      11.617   8.379  19.170  0.00  0.00    +0.138 C 
BRANCH  13   8
ATOM      4  O   UNL     1      11.956  10.720  20.853  0.00  0.00    -0.276 OA
ATOM      8  N   UNL     1      11.125   8.572  20.504  0.00  0.00    -0.313 N 
ATOM     18  C   UNL     1      11.336   9.733  21.240  0.00  0.00    +0.210 C 
ATOM     22  C   UNL     1      10.692   9.681  22.598  0.00  0.00    +0.109 C 
ATOM     26  H   UNL     1      10.597   7.813  20.926  0.00  0.00    +0.149 HD
ENDBRANCH  13   8
ENDBRANCH  11  13
ENDBRANCH   7   9
BRANCH   7  14
ATOM     14  C   UNL     1      16.726   7.570  20.872  0.00  0.00    +0.116 C 
BRANCH  14  15
ATOM     15  C   UNL     1      18.101   6.979  21.030  0.00  0.00    -0.033 A 
ATOM     16  C   UNL     1      18.507   5.926  20.209  0.00  0.00    +0.007 A 
ATOM     17  C   UNL     1      18.969   7.481  22.000  0.00  0.00    +0.007 A 
ATOM     19  C   UNL     1      20.649   5.881  21.324  0.00  0.00    +0.088 A 
ATOM     20  C   UNL     1      19.781   5.379  20.354  0.00  0.00    +0.027 A 
ATOM     21  C   UNL     1      20.243   6.933  22.147  0.00  0.00    +0.027 A 
BRANCH  19   1
ATOM      1  S   UNL     1      22.243   5.193  21.511  0.00  0.00    -0.006 S 
ATOM      5  O   UNL     1      22.916   5.203  20.219  0.00  0.00    -0.170 OA
ATOM      6  O   UNL     1      22.873   5.829  22.660  0.00  0.00    -0.170 OA
ATOM     23  C   UNL     1      21.943   3.489  21.924  0.00  0.00    +0.200 C 
ENDBRANCH  19   1
ENDBRANCH  14  15
ENDBRANCH   7  14
TORSDOF 7
ENDMDL
MODEL 5
REMARK VINA RESULT:      -6.2     27.075     30.151
REMARK  Name = 75536507
REMARK  9 active torsions:
REMARK  status: ('A' for Active; 'I' for Inactive)
REMARK    1  A    between atoms: S_1  and  C_19
REMARK    2  A    between atoms: S_1  and  C_23
REMARK    3  A    between atoms: O_3  and  C_10
REMARK    4  A    between atoms: N_7  and  C_9
REMARK    5  A    between atoms: N_7  and  C_14
REMARK    6  A    between atoms: N_8  and  C_13
REMARK    7  A    between atoms: C_11  and  C_13
REMARK    8  A    between atoms: C_14  and  C_15
REMARK    9  A    between atoms: C_18  and  C_22
REMARK                            x       y       z     vdW  Elec       q    Type
REMARK                         _______ _______ _______ _____ _____    ______ ____
ROOT
ATOM      7  N   UNL     1     -14.677   4.321  22.402  0.00  0.00    -0.305 NA
ATOM     24  H   UNL     1     -14.944   4.378  21.419  0.00  0.00    +0.123 HD
ENDROOT
BRANCH   7   9
ATOM      2  O   UNL     1     -17.061   5.565  24.852  0.00  0.00    -0.371 OA
ATOM      9  C   UNL     1     -15.879   4.308  23.219  0.00  0.00    +0.111 C 
ATOM     10  C   UNL     1     -15.685   3.660  24.578  0.00  0.00    +0.164 C 
ATOM     11  C   UNL     1     -16.871   4.228  25.346  0.00  0.00    +0.165 C 
ATOM     12  C   UNL     1     -16.343   5.700  23.613  0.00  0.00    +0.181 C 
BRANCH  10   3
ATOM      3  O   UNL     1     -15.722   2.248  24.521  0.00  0.00    -0.388 OA
ATOM     25  H   UNL     1     -16.405   1.934  25.137  0.00  0.00    +0.210 HD
ENDBRANCH  10   3
BRANCH  11  13
ATOM     13  C   UNL     1     -16.654   4.261  26.848  0.00  0.00    +0.138 C 
BRANCH  13   8
ATOM      4  O   UNL     1     -15.020   3.374  29.078  0.00  0.00    -0.276 OA
ATOM      8  N   UNL     1     -16.570   2.937  27.393  0.00  0.00    -0.313 N 
ATOM     18  C   UNL     1     -15.756   2.600  28.469  0.00  0.00    +0.210 C 
ATOM     22  C   UNL     1     -15.876   1.150  28.854  0.00  0.00    +0.109 C 
ATOM     26  H   UNL     1     -17.137   2.213  26.962  0.00  0.00    +0.149 HD
ENDBRANCH  13   8
ENDBRANCH  11  13
ENDBRANCH   7   9
BRANCH   7  14
ATOM     14  C   UNL     1     -13.832   5.462  22.729  0.00  0.00    +0.116 C 
BRANCH  14  15
ATOM     15  C   UNL     1     -13.453   6.250  21.504  0.00  0.00    -0.033 A 
ATOM     16  C   UNL     1     -14.444   6.853  20.728  0.00  0.00    +0.007 A 
ATOM     17  C   UNL     1     -12.111   6.376  21.142  0.00  0.00    +0.007 A 
ATOM     19  C   UNL     1     -12.751   7.709  19.231  0.00  0.00    +0.088 A 
ATOM     20  C   UNL     1     -14.093   7.583  19.593  0.00  0.00    +0.027 A 
ATOM     21  C   UNL     1     -11.760   7.105  20.007  0.00  0.00    +0.027 A 
BRANCH  19   1
ATOM      1  S   UNL     1     -12.312   8.619  17.808  0.00  0.00    -0.006 S 
ATOM      5  O   UNL     1     -13.152   8.193  16.697  0.00  0.00    -0.170 OA
ATOM      6  O   UNL     1     -12.258  10.027  18.176  0.00  0.00    -0.170 OA
ATOM     23  C   UNL     1     -10.655   8.087  17.437  0.00  0.00    +0.200 C 
ENDBRANCH  19   1
ENDBRANCH  14  15
ENDBRANCH   7  14
TORSDOF 7
ENDMDL
MODEL 6
REMARK VINA RESULT:      -6.1      4.060      9.975
REMARK  Name = 75536507
REMARK  9 active torsions:
REMARK  status: ('A' for Active; 'I' for Inactive)
REMARK    1  A    between atoms: S_1  and  C_19
REMARK    2  A    between atoms: S_1  and  C_23
REMARK    3  A    between atoms: O_3  and  C_10
REMARK    4  A    between atoms: N_7  and  C_9
REMARK    5  A    between atoms: N_7  and  C_14
REMARK    6  A    between atoms: N_8  and  C_13
REMARK    7  A    between atoms: C_11  and  C_13
REMARK    8  A    between atoms: C_14  and  C_15
REMARK    9  A    between atoms: C_18  and  C_22
REMARK                            x       y       z     vdW  Elec       q    Type
REMARK                         _______ _______ _______ _____ _____    ______ ____
ROOT
ATOM      7  N   UNL     1      19.996   6.486  20.143  0.00  0.00    -0.305 NA
ATOM     24  H   UNL     1      19.796   5.803  19.411  0.00  0.00    +0.123 HD
ENDROOT
BRANCH   7   9
ATOM      2  O   UNL     1      23.595   6.394  20.664  0.00  0.00    -0.371 OA
ATOM      9  C   UNL     1      21.239   6.123  20.803  0.00  0.00    +0.111 C 
ATOM     10  C   UNL     1      21.854   4.838  20.280  0.00  0.00    +0.164 C 
ATOM     11  C   UNL     1      23.294   4.991  20.750  0.00  0.00    +0.165 C 
ATOM     12  C   UNL     1      22.358   7.119  20.547  0.00  0.00    +0.181 C 
BRANCH  10   3
ATOM      3  O   UNL     1      21.244   3.682  20.818  0.00  0.00    -0.388 OA
ATOM     25  H   UNL     1      21.940   3.107  21.178  0.00  0.00    +0.210 HD
ENDBRANCH  10   3
BRANCH  11  13
ATOM     13  C   UNL     1      24.286   4.201  19.914  0.00  0.00    +0.138 C 
BRANCH  13   8
ATOM      4  O   UNL     1      25.560   2.807  22.119  0.00  0.00    -0.276 OA
ATOM      8  N   UNL     1      24.221   2.799  20.213  0.00  0.00    -0.313 N 
ATOM     18  C   UNL     1      24.866   2.214  21.296  0.00  0.00    +0.210 C 
ATOM     22  C   UNL     1      24.612   0.734  21.391  0.00  0.00    +0.109 C 
ATOM     26  H   UNL     1      23.673   2.210  19.592  0.00  0.00    +0.149 HD
ENDBRANCH  13   8
ENDBRANCH  11  13
ENDBRANCH   7   9
BRANCH   7  14
ATOM     14  C   UNL     1      18.885   6.506  21.086  0.00  0.00    +0.116 C 
BRANCH  14  15
ATOM     15  C   UNL     1      17.573   6.785  20.404  0.00  0.00    -0.033 A 
ATOM     16  C   UNL     1      16.754   7.817  20.863  0.00  0.00    +0.007 A 
ATOM     17  C   UNL     1      17.174   6.010  19.314  0.00  0.00    +0.007 A 
ATOM     19  C   UNL     1      15.139   7.302  19.141  0.00  0.00    +0.088 A 
ATOM     20  C   UNL     1      15.538   8.077  20.231  0.00  0.00    +0.027 A 
ATOM     21  C   UNL     1      15.958   6.269  18.683  0.00  0.00    +0.027 A 
BRANCH  19   1
ATOM      1  S   UNL     1      13.616   7.623  18.352  0.00  0.00    -0.006 S 
ATOM      5  O   UNL     1      13.794   7.498  16.912  0.00  0.00    -0.170 OA
ATOM      6  O   UNL     1      12.590   6.837  19.024  0.00  0.00    -0.170 OA
ATOM     23  C   UNL     1      13.297   9.340  18.687  0.00  0.00    +0.200 C 
ENDBRANCH  19   1
ENDBRANCH  14  15
ENDBRANCH   7  14
TORSDOF 7
ENDMDL
MODEL 7
REMARK VINA RESULT:      -6.1      3.665      9.310
REMARK  Name = 75536507
REMARK  9 active torsions:
REMARK  status: ('A' for Active; 'I' for Inactive)
REMARK    1  A    between atoms: S_1  and  C_19
REMARK    2  A    between atoms: S_1  and  C_23
REMARK    3  A    between atoms: O_3  and  C_10
REMARK    4  A    between atoms: N_7  and  C_9
REMARK    5  A    between atoms: N_7  and  C_14
REMARK    6  A    between atoms: N_8  and  C_13
REMARK    7  A    between atoms: C_11  and  C_13
REMARK    8  A    between atoms: C_14  and  C_15
REMARK    9  A    between atoms: C_18  and  C_22
REMARK                            x       y       z     vdW  Elec       q    Type
REMARK                         _______ _______ _______ _____ _____    ______ ____
ROOT
ATOM      7  N   UNL     1      18.994   6.745  20.242  0.00  0.00    -0.305 NA
ATOM     24  H   UNL     1      19.662   7.164  19.595  0.00  0.00    +0.123 HD
ENDROOT
BRANCH   7   9
ATOM      2  O   UNL     1      21.052   5.883  23.115  0.00  0.00    -0.371 OA
ATOM      9  C   UNL     1      19.707   5.869  21.157  0.00  0.00    +0.111 C 
ATOM     10  C   UNL     1      21.153   5.627  20.766  0.00  0.00    +0.164 C 
ATOM     11  C   UNL     1      21.738   5.149  22.087  0.00  0.00    +0.165 C 
ATOM     12  C   UNL     1      19.867   6.467  22.545  0.00  0.00    +0.181 C 
BRANCH  10   3
ATOM      3  O   UNL     1      21.288   4.655  19.748  0.00  0.00    -0.388 OA
ATOM     25  H   UNL     1      22.062   4.103  19.951  0.00  0.00    +0.210 HD
ENDBRANCH  10   3
BRANCH  11  13
ATOM     13  C   UNL     1      23.235   5.382  22.201  0.00  0.00    +0.138 C 
BRANCH  13   8
ATOM      4  O   UNL     1      24.273   4.182  19.771  0.00  0.00    -0.276 OA
ATOM      8  N   UNL     1      23.966   4.154  22.080  0.00  0.00    -0.313 N 
ATOM     18  C   UNL     1      24.427   3.652  20.869  0.00  0.00    +0.210 C 
ATOM     22  C   UNL     1      25.184   2.361  21.028  0.00  0.00    +0.109 C 
ATOM     26  H   UNL     1      24.149   3.628  22.930  0.00  0.00    +0.149 HD
ENDBRANCH  13   8
ENDBRANCH  11  13
ENDBRANCH   7   9
BRANCH   7  14
ATOM     14  C   UNL     1      17.996   6.007  19.478  0.00  0.00    +0.116 C 
BRANCH  14  15
ATOM     15  C   UNL     1      16.595   6.440  19.817  0.00  0.00    -0.033 A 
ATOM     16  C   UNL     1      15.679   6.701  18.797  0.00  0.00    +0.007 A 
ATOM     17  C   UNL     1      16.212   6.585  21.151  0.00  0.00    +0.007 A 
ATOM     19  C   UNL     1      13.999   7.247  20.444  0.00  0.00    +0.088 A 
ATOM     20  C   UNL     1      14.381   7.103  19.110  0.00  0.00    +0.027 A 
ATOM     21  C   UNL     1      14.915   6.987  21.465  0.00  0.00    +0.027 A 
BRANCH  19   1
ATOM      1  S   UNL     1      12.375   7.755  20.838  0.00  0.00    -0.006 S 
ATOM      5  O   UNL     1      11.461   6.649  20.587  0.00  0.00    -0.170 OA
ATOM      6  O   UNL     1      12.409   8.382  22.152  0.00  0.00    -0.170 OA
ATOM     23  C   UNL     1      12.003   9.016  19.639  0.00  0.00    +0.200 C 
ENDBRANCH  19   1
ENDBRANCH  14  15
ENDBRANCH   7  14
TORSDOF 7
ENDMDL
MODEL 8
REMARK VINA RESULT:      -6.0      3.605      9.276
REMARK  Name = 75536507
REMARK  9 active torsions:
REMARK  status: ('A' for Active; 'I' for Inactive)
REMARK    1  A    between atoms: S_1  and  C_19
REMARK    2  A    between atoms: S_1  and  C_23
REMARK    3  A    between atoms: O_3  and  C_10
REMARK    4  A    between atoms: N_7  and  C_9
REMARK    5  A    between atoms: N_7  and  C_14
REMARK    6  A    between atoms: N_8  and  C_13
REMARK    7  A    between atoms: C_11  and  C_13
REMARK    8  A    between atoms: C_14  and  C_15
REMARK    9  A    between atoms: C_18  and  C_22
REMARK                            x       y       z     vdW  Elec       q    Type
REMARK                         _______ _______ _______ _____ _____    ______ ____
ROOT
ATOM      7  N   UNL     1      19.062   7.088  20.483  0.00  0.00    -0.305 NA
ATOM     24  H   UNL     1      18.467   6.625  19.796  0.00  0.00    +0.123 HD
ENDROOT
BRANCH   7   9
ATOM      2  O   UNL     1      21.000   5.831  23.293  0.00  0.00    -0.371 OA
ATOM      9  C   UNL     1      19.644   6.085  21.359  0.00  0.00    +0.111 C 
ATOM     10  C   UNL     1      21.031   5.636  20.936  0.00  0.00    +0.164 C 
ATOM     11  C   UNL     1      21.552   5.033  22.232  0.00  0.00    +0.165 C 
ATOM     12  C   UNL     1      19.912   6.607  22.761  0.00  0.00    +0.181 C 
BRANCH  10   3
ATOM      3  O   UNL     1      21.001   4.688  19.887  0.00  0.00    -0.388 OA
ATOM     25  H   UNL     1      20.200   4.146  19.986  0.00  0.00    +0.210 HD
ENDBRANCH  10   3
BRANCH  11  13
ATOM     13  C   UNL     1      23.068   5.030  22.327  0.00  0.00    +0.138 C 
BRANCH  13   8
ATOM      4  O   UNL     1      24.201   4.189  19.790  0.00  0.00    -0.276 OA
ATOM      8  N   UNL     1      23.610   3.743  21.999  0.00  0.00    -0.313 N 
ATOM     18  C   UNL     1      24.134   3.427  20.751  0.00  0.00    +0.210 C 
ATOM     22  C   UNL     1      24.657   2.017  20.684  0.00  0.00    +0.109 C 
ATOM     26  H   UNL     1      23.602   3.030  22.723  0.00  0.00    +0.149 HD
ENDBRANCH  13   8
ENDBRANCH  11  13
ENDBRANCH   7   9
BRANCH   7  14
ATOM     14  C   UNL     1      18.259   8.043  21.237  0.00  0.00    +0.116 C 
BRANCH  14  15
ATOM     15  C   UNL     1      16.798   7.950  20.885  0.00  0.00    -0.033 A 
ATOM     16  C   UNL     1      16.112   6.748  21.065  0.00  0.00    +0.007 A 
ATOM     17  C   UNL     1      16.132   9.064  20.374  0.00  0.00    +0.007 A 
ATOM     19  C   UNL     1      14.092   7.776  20.229  0.00  0.00    +0.088 A 
ATOM     20  C   UNL     1      14.759   6.662  20.739  0.00  0.00    +0.027 A 
ATOM     21  C   UNL     1      14.778   8.977  20.047  0.00  0.00    +0.027 A 
BRANCH  19   1
ATOM      1  S   UNL     1      12.399   7.667  19.816  0.00  0.00    -0.006 S 
ATOM      5  O   UNL     1      11.824   9.005  19.826  0.00  0.00    -0.170 OA
ATOM      6  O   UNL     1      12.282   6.839  18.624  0.00  0.00    -0.170 OA
ATOM     23  C   UNL     1      11.669   6.780  21.174  0.00  0.00    +0.200 C 
ENDBRANCH  19   1
ENDBRANCH  14  15
ENDBRANCH   7  14
TORSDOF 7
ENDMDL
MODEL 9
REMARK VINA RESULT:      -6.0      3.480      9.203
REMARK  Name = 75536507
REMARK  9 active torsions:
REMARK  status: ('A' for Active; 'I' for Inactive)
REMARK    1  A    between atoms: S_1  and  C_19
REMARK    2  A    between atoms: S_1  and  C_23
REMARK    3  A    between atoms: O_3  and  C_10
REMARK    4  A    between atoms: N_7  and  C_9
REMARK    5  A    between atoms: N_7  and  C_14
REMARK    6  A    between atoms: N_8  and  C_13
REMARK    7  A    between atoms: C_11  and  C_13
REMARK    8  A    between atoms: C_14  and  C_15
REMARK    9  A    between atoms: C_18  and  C_22
REMARK                            x       y       z     vdW  Elec       q    Type
REMARK                         _______ _______ _______ _____ _____    ______ ____
ROOT
ATOM      7  N   UNL     1      17.946   7.371  21.860  0.00  0.00    -0.305 NA
ATOM     24  H   UNL     1      17.728   8.261  22.311  0.00  0.00    +0.123 HD
ENDROOT
BRANCH   7   9
ATOM      2  O   UNL     1      21.086   5.828  20.864  0.00  0.00    -0.371 OA
ATOM      9  C   UNL     1      19.388   7.246  21.732  0.00  0.00    +0.111 C 
ATOM     10  C   UNL     1      20.039   6.494  22.878  0.00  0.00    +0.164 C 
ATOM     11  C   UNL     1      21.365   6.091  22.250  0.00  0.00    +0.165 C 
ATOM     12  C   UNL     1      19.805   6.397  20.541  0.00  0.00    +0.181 C 
BRANCH  10   3
ATOM      3  O   UNL     1      20.222   7.300  24.026  0.00  0.00    -0.388 OA
ATOM     25  H   UNL     1      19.347   7.544  24.372  0.00  0.00    +0.210 HD
ENDBRANCH  10   3
BRANCH  11  13
ATOM     13  C   UNL     1      21.986   4.862  22.891  0.00  0.00    +0.138 C 
BRANCH  13   8
ATOM      4  O   UNL     1      24.274   3.077  22.944  0.00  0.00    -0.276 OA
ATOM      8  N   UNL     1      22.353   3.888  21.904  0.00  0.00    -0.313 N 
ATOM     18  C   UNL     1      23.473   3.071  22.012  0.00  0.00    +0.210 C 
ATOM     22  C   UNL     1      23.611   2.122  20.852  0.00  0.00    +0.109 C 
ATOM     26  H   UNL     1      21.759   3.799  21.085  0.00  0.00    +0.149 HD
ENDBRANCH  13   8
ENDBRANCH  11  13
ENDBRANCH   7   9
BRANCH   7  14
ATOM     14  C   UNL     1      17.296   7.332  20.556  0.00  0.00    +0.116 C 
BRANCH  14  15
ATOM     15  C   UNL     1      15.796   7.353  20.674  0.00  0.00    -0.033 A 
ATOM     16  C   UNL     1      15.194   7.870  21.822  0.00  0.00    +0.007 A 
ATOM     17  C   UNL     1      15.007   6.854  19.638  0.00  0.00    +0.007 A 
ATOM     19  C   UNL     1      13.015   7.391  20.896  0.00  0.00    +0.088 A 
ATOM     20  C   UNL     1      13.804   7.891  21.932  0.00  0.00    +0.027 A 
ATOM     21  C   UNL     1      13.616   6.873  19.748  0.00  0.00    +0.027 A 
BRANCH  19   1
ATOM      1  S   UNL     1      11.275   7.412  21.035  0.00  0.00    -0.006 S 
ATOM      5  O   UNL     1      10.719   8.137  19.900  0.00  0.00    -0.170 OA
ATOM      6  O   UNL     1      10.832   6.052  21.311  0.00  0.00    -0.170 OA
ATOM     23  C   UNL     1      10.958   8.396  22.483  0.00  0.00    +0.200 C 
ENDBRANCH  19   1
ENDBRANCH  14  15
ENDBRANCH   7  14
TORSDOF 7
ENDMDL
MODEL 10
REMARK VINA RESULT:      -6.0     26.911     30.202
REMARK  Name = 75536507
REMARK  9 active torsions:
REMARK  status: ('A' for Active; 'I' for Inactive)
REMARK    1  A    between atoms: S_1  and  C_19
REMARK    2  A    between atoms: S_1  and  C_23
REMARK    3  A    between atoms: O_3  and  C_10
REMARK    4  A    between atoms: N_7  and  C_9
REMARK    5  A    between atoms: N_7  and  C_14
REMARK    6  A    between atoms: N_8  and  C_13
REMARK    7  A    between atoms: C_11  and  C_13
REMARK    8  A    between atoms: C_14  and  C_15
REMARK    9  A    between atoms: C_18  and  C_22
REMARK                            x       y       z     vdW  Elec       q    Type
REMARK                         _______ _______ _______ _____ _____    ______ ____
ROOT
ATOM      7  N   UNL     1     -15.454   5.058  21.426  0.00  0.00    -0.305 NA
ATOM     24  H   UNL     1     -15.762   5.873  20.894  0.00  0.00    +0.123 HD
ENDROOT
BRANCH   7   9
ATOM      2  O   UNL     1     -16.788   5.486  24.783  0.00  0.00    -0.371 OA
ATOM      9  C   UNL     1     -16.369   4.843  22.535  0.00  0.00    +0.111 C 
ATOM     10  C   UNL     1     -15.951   3.713  23.459  0.00  0.00    +0.164 C 
ATOM     11  C   UNL     1     -16.746   4.051  24.712  0.00  0.00    +0.165 C 
ATOM     12  C   UNL     1     -16.417   6.017  23.499  0.00  0.00    +0.181 C 
BRANCH  10   3
ATOM      3  O   UNL     1     -16.287   2.438  22.948  0.00  0.00    -0.388 OA
ATOM     25  H   UNL     1     -17.255   2.381  22.880  0.00  0.00    +0.210 HD
ENDBRANCH  10   3
BRANCH  11  13
ATOM     13  C   UNL     1     -16.131   3.491  25.983  0.00  0.00    +0.138 C 
BRANCH  13   8
ATOM      4  O   UNL     1     -16.420   0.643  25.495  0.00  0.00    -0.276 OA
ATOM      8  N   UNL     1     -17.026   2.581  26.639  0.00  0.00    -0.313 N 
ATOM     18  C   UNL     1     -17.097   1.225  26.339  0.00  0.00    +0.210 C 
ATOM     22  C   UNL     1     -18.100   0.496  27.192  0.00  0.00    +0.109 C 
ATOM     26  H   UNL     1     -17.638   2.957  27.357  0.00  0.00    +0.149 HD
ENDBRANCH  13   8
ENDBRANCH  11  13
ENDBRANCH   7   9
BRANCH   7  14
ATOM     14  C   UNL     1     -14.096   5.292  21.902  0.00  0.00    +0.116 C 
BRANCH  14  15
ATOM     15  C   UNL     1     -13.424   6.414  21.156  0.00  0.00    -0.033 A 
ATOM     16  C   UNL     1     -12.032   6.478  21.099  0.00  0.00    +0.007 A 
ATOM     17  C   UNL     1     -14.194   7.390  20.524  0.00  0.00    +0.007 A 
ATOM     19  C   UNL     1     -12.179   8.493  19.775  0.00  0.00    +0.088 A 
ATOM     20  C   UNL     1     -11.409   7.517  20.408  0.00  0.00    +0.027 A 
ATOM     21  C   UNL     1     -13.572   8.430  19.833  0.00  0.00    +0.027 A 
BRANCH  19   1
ATOM      1  S   UNL     1     -11.400   9.797  18.913  0.00  0.00    -0.006 S 
ATOM      5  O   UNL     1      -9.957   9.668  19.066  0.00  0.00    -0.170 OA
ATOM      6  O   UNL     1     -11.983   9.863  17.580  0.00  0.00    -0.170 OA
ATOM     23  C   UNL     1     -11.885  11.263  19.796  0.00  0.00    +0.200 C 
ENDBRANCH  19   1
ENDBRANCH  14  15
ENDBRANCH   7  14
TORSDOF 7
ENDMDL
