MODEL 1
REMARK VINA RESULT:      -7.6      0.000      0.000
REMARK  Name = 11886501
REMARK  8 active torsions:
REMARK  status: ('A' for Active; 'I' for Inactive)
REMARK    1  A    between atoms: S_1  and  N_8
REMARK    2  A    between atoms: S_1  and  C_17
REMARK    3  A    between atoms: O_4  and  C_13
REMARK    4  A    between atoms: O_4  and  C_16
REMARK    5  A    between atoms: N_8  and  C_12
REMARK    6  A    between atoms: N_9  and  C_25
REMARK    7  A    between atoms: C_16  and  C_18
REMARK    8  A    between atoms: C_29  and  C_30
REMARK                            x       y       z     vdW  Elec       q    Type
REMARK                         _______ _______ _______ _____ _____    ______ ____
ROOT
ATOM      8  N   UNL     1     -15.733   3.225  23.251  0.00  0.00    -0.182 NA
ATOM     31  H   UNL     1     -15.218   2.731  22.513  0.00  0.00    +0.148 HD
ENDROOT
BRANCH   8  12
ATOM      2  O   UNL     1     -13.194   4.932  22.602  0.00  0.00    -0.370 OA
ATOM      3  O   UNL     1     -15.596   6.853  22.597  0.00  0.00    -0.370 OA
ATOM     10  C   UNL     1     -15.484   5.453  22.264  0.00  0.00    +0.170 C 
ATOM     11  C   UNL     1     -14.144   5.270  21.579  0.00  0.00    +0.179 C 
ATOM     12  C   UNL     1     -15.363   4.634  23.525  0.00  0.00    +0.133 C 
ATOM     13  C   UNL     1     -13.881   6.639  21.001  0.00  0.00    +0.175 C 
ATOM     14  C   UNL     1     -13.884   4.723  23.844  0.00  0.00    +0.183 C 
ATOM     15  C   UNL     1     -14.461   7.549  22.060  0.00  0.00    +0.194 C 
BRANCH  13   4
ATOM      4  O   UNL     1     -12.516   6.900  20.769  0.00  0.00    -0.367 OA
BRANCH   4  16
ATOM     16  C   UNL     1     -12.227   8.296  20.794  0.00  0.00    +0.195 C 
BRANCH  16  18
ATOM     18  C   UNL     1     -11.451   8.658  19.563  0.00  0.00    -0.022 A 
ATOM     21  C   UNL     1     -11.351   7.745  18.518  0.00  0.00    +0.006 A 
ATOM     22  C   UNL     1     -10.838   9.903  19.475  0.00  0.00    +0.006 A 
ATOM     26  C   UNL     1     -10.630   8.081  17.373  0.00  0.00    +0.000 A 
ATOM     27  C   UNL     1     -10.117  10.240  18.329  0.00  0.00    +0.000 A 
ATOM     28  C   UNL     1     -10.013   9.329  17.278  0.00  0.00    +0.000 A 
ENDBRANCH  16  18
ENDBRANCH   4  16
ENDBRANCH  13   4
ENDBRANCH   8  12
BRANCH   8   1
ATOM      1  S   UNL     1     -17.200   2.607  23.842  0.00  0.00    +0.059 S 
ATOM      5  O   UNL     1     -17.487   1.342  23.192  0.00  0.00    -0.153 OA
ATOM      6  O   UNL     1     -18.188   3.668  23.842  0.00  0.00    -0.153 OA
BRANCH   1  17
ATOM     17  C   UNL     1     -16.801   2.272  25.531  0.00  0.00    +0.105 A 
ATOM     19  C   UNL     1     -17.082   1.024  26.058  0.00  0.00    +0.030 A 
ATOM     20  C   UNL     1     -16.215   3.266  26.296  0.00  0.00    +0.030 A 
ATOM     23  C   UNL     1     -16.767   0.760  27.391  0.00  0.00    +0.025 A 
ATOM     24  C   UNL     1     -15.900   3.002  27.629  0.00  0.00    +0.025 A 
ATOM     25  C   UNL     1     -16.176   1.749  28.177  0.00  0.00    +0.033 A 
BRANCH  25   9
ATOM      7  O   UNL     1     -14.452  -0.401  29.390  0.00  0.00    -0.276 OA
ATOM      9  N   UNL     1     -15.861   1.485  29.510  0.00  0.00    -0.286 N 
ATOM     29  C   UNL     1     -15.051   0.464  30.022  0.00  0.00    +0.214 C 
ATOM     30  C   UNL     1     -14.961   0.521  31.526  0.00  0.00    +0.109 C 
ATOM     32  H   UNL     1     -16.279   2.120  30.188  0.00  0.00    +0.155 HD
ENDBRANCH  25   9
ENDBRANCH   1  17
ENDBRANCH   8   1
TORSDOF 7
ENDMDL
MODEL 2
REMARK VINA RESULT:      -7.4      7.018      8.713
REMARK  Name = 11886501
REMARK  8 active torsions:
REMARK  status: ('A' for Active; 'I' for Inactive)
REMARK    1  A    between atoms: S_1  and  N_8
REMARK    2  A    between atoms: S_1  and  C_17
REMARK    3  A    between atoms: O_4  and  C_13
REMARK    4  A    between atoms: O_4  and  C_16
REMARK    5  A    between atoms: N_8  and  C_12
REMARK    6  A    between atoms: N_9  and  C_25
REMARK    7  A    between atoms: C_16  and  C_18
REMARK    8  A    between atoms: C_29  and  C_30
REMARK                            x       y       z     vdW  Elec       q    Type
REMARK                         _______ _______ _______ _____ _____    ______ ____
ROOT
ATOM      8  N   UNL     1     -14.579   7.003  32.087  0.00  0.00    -0.182 NA
ATOM     31  H   UNL     1     -14.793   7.202  31.103  0.00  0.00    +0.148 HD
ENDROOT
BRANCH   8  12
ATOM      2  O   UNL     1     -12.215   8.912  31.346  0.00  0.00    -0.370 OA
ATOM      3  O   UNL     1     -13.923  10.368  33.449  0.00  0.00    -0.370 OA
ATOM     10  C   UNL     1     -14.268   9.409  32.428  0.00  0.00    +0.170 C 
ATOM     11  C   UNL     1     -13.399   9.716  31.224  0.00  0.00    +0.179 C 
ATOM     12  C   UNL     1     -13.828   8.028  32.850  0.00  0.00    +0.133 C 
ATOM     13  C   UNL     1     -13.099  11.185  31.403  0.00  0.00    +0.175 C 
ATOM     14  C   UNL     1     -12.368   8.001  32.446  0.00  0.00    +0.183 C 
ATOM     15  C   UNL     1     -12.982  11.305  32.905  0.00  0.00    +0.194 C 
BRANCH  13   4
ATOM      4  O   UNL     1     -11.925  11.604  30.745  0.00  0.00    -0.367 OA
BRANCH   4  16
ATOM     16  C   UNL     1     -12.207  12.489  29.663  0.00  0.00    +0.195 C 
BRANCH  16  18
ATOM     18  C   UNL     1     -11.849  11.813  28.372  0.00  0.00    -0.022 A 
ATOM     21  C   UNL     1     -12.288  12.353  27.168  0.00  0.00    +0.006 A 
ATOM     22  C   UNL     1     -11.081  10.655  28.389  0.00  0.00    +0.006 A 
ATOM     26  C   UNL     1     -11.957  11.727  25.967  0.00  0.00    +0.000 A 
ATOM     27  C   UNL     1     -10.748  10.028  27.188  0.00  0.00    +0.000 A 
ATOM     28  C   UNL     1     -11.186  10.564  25.977  0.00  0.00    +0.000 A 
ENDBRANCH  16  18
ENDBRANCH   4  16
ENDBRANCH  13   4
ENDBRANCH   8  12
BRANCH   8   1
ATOM      1  S   UNL     1     -15.391   5.762  32.914  0.00  0.00    +0.059 S 
ATOM      5  O   UNL     1     -16.814   5.853  32.643  0.00  0.00    -0.153 OA
ATOM      6  O   UNL     1     -14.910   5.718  34.281  0.00  0.00    -0.153 OA
BRANCH   1  17
ATOM     17  C   UNL     1     -14.774   4.318  32.102  0.00  0.00    +0.105 A 
ATOM     19  C   UNL     1     -15.075   4.112  30.767  0.00  0.00    +0.030 A 
ATOM     20  C   UNL     1     -14.000   3.419  32.817  0.00  0.00    +0.030 A 
ATOM     23  C   UNL     1     -14.587   2.973  30.126  0.00  0.00    +0.025 A 
ATOM     24  C   UNL     1     -13.514   2.281  32.176  0.00  0.00    +0.025 A 
ATOM     25  C   UNL     1     -13.806   2.057  30.831  0.00  0.00    +0.033 A 
BRANCH  25   9
ATOM      7  O   UNL     1     -15.164  -0.551  30.179  0.00  0.00    -0.276 OA
ATOM      9  N   UNL     1     -13.319   0.917  30.190  0.00  0.00    -0.286 N 
ATOM     29  C   UNL     1     -13.998  -0.276  29.913  0.00  0.00    +0.214 C 
ATOM     30  C   UNL     1     -13.115  -1.269  29.200  0.00  0.00    +0.109 C 
ATOM     32  H   UNL     1     -12.348   0.970  29.890  0.00  0.00    +0.155 HD
ENDBRANCH  25   9
ENDBRANCH   1  17
ENDBRANCH   8   1
TORSDOF 7
ENDMDL
MODEL 3
REMARK VINA RESULT:      -7.4     16.613     18.363
REMARK  Name = 11886501
REMARK  8 active torsions:
REMARK  status: ('A' for Active; 'I' for Inactive)
REMARK    1  A    between atoms: S_1  and  N_8
REMARK    2  A    between atoms: S_1  and  C_17
REMARK    3  A    between atoms: O_4  and  C_13
REMARK    4  A    between atoms: O_4  and  C_16
REMARK    5  A    between atoms: N_8  and  C_12
REMARK    6  A    between atoms: N_9  and  C_25
REMARK    7  A    between atoms: C_16  and  C_18
REMARK    8  A    between atoms: C_29  and  C_30
REMARK                            x       y       z     vdW  Elec       q    Type
REMARK                         _______ _______ _______ _____ _____    ______ ____
ROOT
ATOM      8  N   UNL     1      -9.979  -9.508  18.121  0.00  0.00    -0.182 NA
ATOM     31  H   UNL     1      -9.579  -8.812  18.762  0.00  0.00    +0.148 HD
ENDROOT
BRANCH   8  12
ATOM      2  O   UNL     1      -7.080  -9.904  17.015  0.00  0.00    -0.370 OA
ATOM      3  O   UNL     1      -7.670 -12.285  18.871  0.00  0.00    -0.370 OA
ATOM     10  C   UNL     1      -8.129 -10.917  18.888  0.00  0.00    +0.170 C 
ATOM     11  C   UNL     1      -6.963 -10.058  18.439  0.00  0.00    +0.179 C 
ATOM     12  C   UNL     1      -9.168 -10.710  17.814  0.00  0.00    +0.133 C 
ATOM     13  C   UNL     1      -5.769 -10.901  18.815  0.00  0.00    +0.175 C 
ATOM     14  C   UNL     1      -8.329 -10.461  16.577  0.00  0.00    +0.183 C 
ATOM     15  C   UNL     1      -6.273 -12.302  18.547  0.00  0.00    +0.194 C 
BRANCH  13   4
ATOM      4  O   UNL     1      -4.612 -10.603  18.068  0.00  0.00    -0.367 OA
BRANCH   4  16
ATOM     16  C   UNL     1      -4.224 -11.688  17.230  0.00  0.00    +0.195 C 
BRANCH  16  18
ATOM     18  C   UNL     1      -3.367 -11.164  16.114  0.00  0.00    -0.022 A 
ATOM     21  C   UNL     1      -2.060 -10.769  16.377  0.00  0.00    +0.006 A 
ATOM     22  C   UNL     1      -3.887 -11.079  14.828  0.00  0.00    +0.006 A 
ATOM     26  C   UNL     1      -1.264 -10.281  15.342  0.00  0.00    +0.000 A 
ATOM     27  C   UNL     1      -3.090 -10.592  13.791  0.00  0.00    +0.000 A 
ATOM     28  C   UNL     1      -1.779 -10.193  14.048  0.00  0.00    +0.000 A 
ENDBRANCH  16  18
ENDBRANCH   4  16
ENDBRANCH  13   4
ENDBRANCH   8  12
BRANCH   8   1
ATOM      1  S   UNL     1     -11.638  -9.493  17.756  0.00  0.00    +0.059 S 
ATOM      5  O   UNL     1     -12.393  -9.194  18.958  0.00  0.00    -0.153 OA
ATOM      6  O   UNL     1     -11.954 -10.669  16.969  0.00  0.00    -0.153 OA
BRANCH   1  17
ATOM     17  C   UNL     1     -11.761  -8.100  16.675  0.00  0.00    +0.105 A 
ATOM     19  C   UNL     1     -10.641  -7.319  16.448  0.00  0.00    +0.030 A 
ATOM     20  C   UNL     1     -12.976  -7.815  16.076  0.00  0.00    +0.030 A 
ATOM     23  C   UNL     1     -10.738  -6.220  15.594  0.00  0.00    +0.025 A 
ATOM     24  C   UNL     1     -13.073  -6.716  15.223  0.00  0.00    +0.025 A 
ATOM     25  C   UNL     1     -11.955  -5.919  14.982  0.00  0.00    +0.033 A 
BRANCH  25   9
ATOM      7  O   UNL     1     -12.377  -5.785  12.003  0.00  0.00    -0.276 OA
ATOM      9  N   UNL     1     -12.052  -4.819  14.128  0.00  0.00    -0.286 N 
ATOM     29  C   UNL     1     -12.248  -4.814  12.742  0.00  0.00    +0.214 C 
ATOM     30  C   UNL     1     -12.297  -3.412  12.189  0.00  0.00    +0.109 C 
ATOM     32  H   UNL     1     -11.968  -3.910  14.581  0.00  0.00    +0.155 HD
ENDBRANCH  25   9
ENDBRANCH   1  17
ENDBRANCH   8   1
TORSDOF 7
ENDMDL
MODEL 4
REMARK VINA RESULT:      -7.2     18.668     19.907
REMARK  Name = 11886501
REMARK  8 active torsions:
REMARK  status: ('A' for Active; 'I' for Inactive)
REMARK    1  A    between atoms: S_1  and  N_8
REMARK    2  A    between atoms: S_1  and  C_17
REMARK    3  A    between atoms: O_4  and  C_13
REMARK    4  A    between atoms: O_4  and  C_16
REMARK    5  A    between atoms: N_8  and  C_12
REMARK    6  A    between atoms: N_9  and  C_25
REMARK    7  A    between atoms: C_16  and  C_18
REMARK    8  A    between atoms: C_29  and  C_30
REMARK                            x       y       z     vdW  Elec       q    Type
REMARK                         _______ _______ _______ _____ _____    ______ ____
ROOT
ATOM      8  N   UNL     1      -6.090 -11.567  16.944  0.00  0.00    -0.182 NA
ATOM     31  H   UNL     1      -6.541 -11.258  16.074  0.00  0.00    +0.148 HD
ENDROOT
BRANCH   8  12
ATOM      2  O   UNL     1      -4.190 -12.450  14.622  0.00  0.00    -0.370 OA
ATOM      3  O   UNL     1      -2.481 -10.870  16.632  0.00  0.00    -0.370 OA
ATOM     10  C   UNL     1      -3.874 -10.771  16.269  0.00  0.00    +0.170 C 
ATOM     11  C   UNL     1      -3.960 -11.041  14.780  0.00  0.00    +0.179 C 
ATOM     12  C   UNL     1      -4.649 -11.907  16.890  0.00  0.00    +0.133 C 
ATOM     13  C   UNL     1      -2.587 -10.640  14.294  0.00  0.00    +0.175 C 
ATOM     14  C   UNL     1      -4.427 -13.042  15.909  0.00  0.00    +0.183 C 
ATOM     15  C   UNL     1      -1.705 -11.073  15.443  0.00  0.00    +0.194 C 
BRANCH  13   4
ATOM      4  O   UNL     1      -2.218 -11.256  13.081  0.00  0.00    -0.367 OA
BRANCH   4  16
ATOM     16  C   UNL     1      -1.827 -10.301  12.097  0.00  0.00    +0.195 C 
BRANCH  16  18
ATOM     18  C   UNL     1      -2.808 -10.339  10.962  0.00  0.00    -0.022 A 
ATOM     21  C   UNL     1      -3.414 -11.541  10.615  0.00  0.00    +0.006 A 
ATOM     22  C   UNL     1      -3.103  -9.171  10.267  0.00  0.00    +0.006 A 
ATOM     26  C   UNL     1      -4.325 -11.577   9.561  0.00  0.00    +0.000 A 
ATOM     27  C   UNL     1      -4.015  -9.206   9.212  0.00  0.00    +0.000 A 
ATOM     28  C   UNL     1      -4.627 -10.409   8.859  0.00  0.00    +0.000 A 
ENDBRANCH  16  18
ENDBRANCH   4  16
ENDBRANCH  13   4
ENDBRANCH   8  12
BRANCH   8   1
ATOM      1  S   UNL     1      -6.841 -11.307  18.445  0.00  0.00    +0.059 S 
ATOM      5  O   UNL     1      -5.943 -10.566  19.312  0.00  0.00    -0.153 OA
ATOM      6  O   UNL     1      -7.427 -12.554  18.897  0.00  0.00    -0.153 OA
BRANCH   1  17
ATOM     17  C   UNL     1      -8.178 -10.238  18.004  0.00  0.00    +0.105 A 
ATOM     19  C   UNL     1      -7.964  -9.237  17.072  0.00  0.00    +0.030 A 
ATOM     20  C   UNL     1      -9.414 -10.422  18.599  0.00  0.00    +0.030 A 
ATOM     23  C   UNL     1      -9.020  -8.394  16.724  0.00  0.00    +0.025 A 
ATOM     24  C   UNL     1     -10.469  -9.578  18.251  0.00  0.00    +0.025 A 
ATOM     25  C   UNL     1     -10.272  -8.565  17.314  0.00  0.00    +0.033 A 
BRANCH  25   9
ATOM      7  O   UNL     1     -12.431  -8.886  15.239  0.00  0.00    -0.276 OA
ATOM      9  N   UNL     1     -11.328  -7.720  16.966  0.00  0.00    -0.286 N 
ATOM     29  C   UNL     1     -12.307  -7.920  15.986  0.00  0.00    +0.214 C 
ATOM     30  C   UNL     1     -13.277  -6.766  15.921  0.00  0.00    +0.109 C 
ATOM     32  H   UNL     1     -11.382  -6.853  17.497  0.00  0.00    +0.155 HD
ENDBRANCH  25   9
ENDBRANCH   1  17
ENDBRANCH   8   1
TORSDOF 7
ENDMDL
MODEL 5
REMARK VINA RESULT:      -7.1     31.861     35.224
REMARK  Name = 11886501
REMARK  8 active torsions:
REMARK  status: ('A' for Active; 'I' for Inactive)
REMARK    1  A    between atoms: S_1  and  N_8
REMARK    2  A    between atoms: S_1  and  C_17
REMARK    3  A    between atoms: O_4  and  C_13
REMARK    4  A    between atoms: O_4  and  C_16
REMARK    5  A    between atoms: N_8  and  C_12
REMARK    6  A    between atoms: N_9  and  C_25
REMARK    7  A    between atoms: C_16  and  C_18
REMARK    8  A    between atoms: C_29  and  C_30
REMARK                            x       y       z     vdW  Elec       q    Type
REMARK                         _______ _______ _______ _____ _____    ______ ____
ROOT
ATOM      8  N   UNL     1      11.650   5.989   5.394  0.00  0.00    -0.182 NA
ATOM     31  H   UNL     1      12.366   5.296   5.146  0.00  0.00    +0.148 HD
ENDROOT
BRANCH   8  12
ATOM      2  O   UNL     1      14.320   6.775   6.822  0.00  0.00    -0.370 OA
ATOM      3  O   UNL     1      13.080   9.372   5.737  0.00  0.00    -0.370 OA
ATOM     10  C   UNL     1      13.027   8.011   5.262  0.00  0.00    +0.170 C 
ATOM     11  C   UNL     1      14.387   7.398   5.530  0.00  0.00    +0.179 C 
ATOM     12  C   UNL     1      12.088   7.201   6.124  0.00  0.00    +0.133 C 
ATOM     13  C   UNL     1      15.295   8.605   5.538  0.00  0.00    +0.175 C 
ATOM     14  C   UNL     1      12.964   6.806   7.296  0.00  0.00    +0.183 C 
ATOM     15  C   UNL     1      14.416   9.658   6.174  0.00  0.00    +0.194 C 
BRANCH  13   4
ATOM      4  O   UNL     1      16.489   8.407   6.258  0.00  0.00    -0.367 OA
BRANCH   4  16
ATOM     16  C   UNL     1      17.504   9.331   5.872  0.00  0.00    +0.195 C 
BRANCH  16  18
ATOM     18  C   UNL     1      18.794   8.589   5.678  0.00  0.00    -0.022 A 
ATOM     21  C   UNL     1      19.697   8.490   6.731  0.00  0.00    +0.006 A 
ATOM     22  C   UNL     1      19.076   8.006   4.448  0.00  0.00    +0.006 A 
ATOM     26  C   UNL     1      20.896   7.801   6.552  0.00  0.00    +0.000 A 
ATOM     27  C   UNL     1      20.275   7.316   4.268  0.00  0.00    +0.000 A 
ATOM     28  C   UNL     1      21.185   7.213   5.320  0.00  0.00    +0.000 A 
ENDBRANCH  16  18
ENDBRANCH   4  16
ENDBRANCH  13   4
ENDBRANCH   8  12
BRANCH   8   1
ATOM      1  S   UNL     1      10.122   5.954   4.655  0.00  0.00    +0.059 S 
ATOM      5  O   UNL     1       9.638   7.311   4.481  0.00  0.00    -0.153 OA
ATOM      6  O   UNL     1       9.300   4.967   5.328  0.00  0.00    -0.153 OA
BRANCH   1  17
ATOM     17  C   UNL     1      10.505   5.304   3.056  0.00  0.00    +0.105 A 
ATOM     19  C   UNL     1      10.144   6.023   1.930  0.00  0.00    +0.030 A 
ATOM     20  C   UNL     1      11.159   4.087   2.961  0.00  0.00    +0.030 A 
ATOM     23  C   UNL     1      10.448   5.510   0.668  0.00  0.00    +0.025 A 
ATOM     24  C   UNL     1      11.461   3.575   1.699  0.00  0.00    +0.025 A 
ATOM     25  C   UNL     1      11.106   4.286   0.553  0.00  0.00    +0.033 A 
BRANCH  25   9
ATOM      7  O   UNL     1      13.763   3.681  -0.728  0.00  0.00    -0.276 OA
ATOM      9  N   UNL     1      11.408   3.773  -0.709  0.00  0.00    -0.286 N 
ATOM     29  C   UNL     1      12.670   3.512  -1.257  0.00  0.00    +0.214 C 
ATOM     30  C   UNL     1      12.568   2.957  -2.656  0.00  0.00    +0.109 C 
ATOM     32  H   UNL     1      10.602   3.567  -1.297  0.00  0.00    +0.155 HD
ENDBRANCH  25   9
ENDBRANCH   1  17
ENDBRANCH   8   1
TORSDOF 7
ENDMDL
MODEL 6
REMARK VINA RESULT:      -7.0     16.814     18.469
REMARK  Name = 11886501
REMARK  8 active torsions:
REMARK  status: ('A' for Active; 'I' for Inactive)
REMARK    1  A    between atoms: S_1  and  N_8
REMARK    2  A    between atoms: S_1  and  C_17
REMARK    3  A    between atoms: O_4  and  C_13
REMARK    4  A    between atoms: O_4  and  C_16
REMARK    5  A    between atoms: N_8  and  C_12
REMARK    6  A    between atoms: N_9  and  C_25
REMARK    7  A    between atoms: C_16  and  C_18
REMARK    8  A    between atoms: C_29  and  C_30
REMARK                            x       y       z     vdW  Elec       q    Type
REMARK                         _______ _______ _______ _____ _____    ______ ____
ROOT
ATOM      8  N   UNL     1      -8.026 -10.385  18.998  0.00  0.00    -0.182 NA
ATOM     31  H   UNL     1      -7.958  -9.486  19.490  0.00  0.00    +0.148 HD
ENDROOT
BRANCH   8  12
ATOM      2  O   UNL     1     -10.606  -8.911  18.022  0.00  0.00    -0.370 OA
ATOM      3  O   UNL     1      -8.856  -9.404  15.541  0.00  0.00    -0.370 OA
ATOM     10  C   UNL     1      -8.518  -9.178  16.925  0.00  0.00    +0.170 C 
ATOM     11  C   UNL     1      -9.513  -8.166  17.461  0.00  0.00    +0.179 C 
ATOM     12  C   UNL     1      -8.795 -10.422  17.732  0.00  0.00    +0.133 C 
ATOM     13  C   UNL     1      -9.926  -7.420  16.215  0.00  0.00    +0.175 C 
ATOM     14  C   UNL     1     -10.277 -10.309  18.028  0.00  0.00    +0.183 C 
ATOM     15  C   UNL     1      -9.921  -8.516  15.172  0.00  0.00    +0.194 C 
BRANCH  13   4
ATOM      4  O   UNL     1     -11.185  -6.797  16.323  0.00  0.00    -0.367 OA
BRANCH   4  16
ATOM     16  C   UNL     1     -11.434  -5.907  15.238  0.00  0.00    +0.195 C 
BRANCH  16  18
ATOM     18  C   UNL     1     -12.889  -5.971  14.875  0.00  0.00    -0.022 A 
ATOM     21  C   UNL     1     -13.747  -6.781  15.611  0.00  0.00    +0.006 A 
ATOM     22  C   UNL     1     -13.368  -5.219  13.809  0.00  0.00    +0.006 A 
ATOM     26  C   UNL     1     -15.099  -6.842  15.276  0.00  0.00    +0.000 A 
ATOM     27  C   UNL     1     -14.721  -5.279  13.473  0.00  0.00    +0.000 A 
ATOM     28  C   UNL     1     -15.586  -6.089  14.206  0.00  0.00    +0.000 A 
ENDBRANCH  16  18
ENDBRANCH   4  16
ENDBRANCH  13   4
ENDBRANCH   8  12
BRANCH   8   1
ATOM      1  S   UNL     1      -6.978 -11.664  19.388  0.00  0.00    +0.059 S 
ATOM      5  O   UNL     1      -7.704 -12.919  19.328  0.00  0.00    -0.153 OA
ATOM      6  O   UNL     1      -6.232 -11.309  20.580  0.00  0.00    -0.153 OA
BRANCH   1  17
ATOM     17  C   UNL     1      -5.840 -11.628  18.036  0.00  0.00    +0.105 A 
ATOM     19  C   UNL     1      -4.998 -10.540  17.889  0.00  0.00    +0.030 A 
ATOM     20  C   UNL     1      -5.813 -12.691  17.148  0.00  0.00    +0.030 A 
ATOM     23  C   UNL     1      -4.100 -10.512  16.822  0.00  0.00    +0.025 A 
ATOM     24  C   UNL     1      -4.915 -12.662  16.082  0.00  0.00    +0.025 A 
ATOM     25  C   UNL     1      -4.058 -11.574  15.918  0.00  0.00    +0.033 A 
BRANCH  25   9
ATOM      7  O   UNL     1      -4.318 -10.359  13.176  0.00  0.00    -0.276 OA
ATOM      9  N   UNL     1      -3.160 -11.546  14.851  0.00  0.00    -0.286 N 
ATOM     29  C   UNL     1      -3.334 -10.964  13.589  0.00  0.00    +0.214 C 
ATOM     30  C   UNL     1      -2.120 -11.151  12.714  0.00  0.00    +0.109 C 
ATOM     32  H   UNL     1      -2.269 -12.009  15.022  0.00  0.00    +0.155 HD
ENDBRANCH  25   9
ENDBRANCH   1  17
ENDBRANCH   8   1
TORSDOF 7
ENDMDL
MODEL 7
REMARK VINA RESULT:      -6.9     19.122     21.624
REMARK  Name = 11886501
REMARK  8 active torsions:
REMARK  status: ('A' for Active; 'I' for Inactive)
REMARK    1  A    between atoms: S_1  and  N_8
REMARK    2  A    between atoms: S_1  and  C_17
REMARK    3  A    between atoms: O_4  and  C_13
REMARK    4  A    between atoms: O_4  and  C_16
REMARK    5  A    between atoms: N_8  and  C_12
REMARK    6  A    between atoms: N_9  and  C_25
REMARK    7  A    between atoms: C_16  and  C_18
REMARK    8  A    between atoms: C_29  and  C_30
REMARK                            x       y       z     vdW  Elec       q    Type
REMARK                         _______ _______ _______ _____ _____    ______ ____
ROOT
ATOM      8  N   UNL     1      -3.205 -11.865  15.797  0.00  0.00    -0.182 NA
ATOM     31  H   UNL     1      -3.404 -12.870  15.717  0.00  0.00    +0.148 HD
ENDROOT
BRANCH   8  12
ATOM      2  O   UNL     1      -6.147 -11.016  16.435  0.00  0.00    -0.370 OA
ATOM      3  O   UNL     1      -4.742 -11.491  19.129  0.00  0.00    -0.370 OA
ATOM     10  C   UNL     1      -4.554 -12.088  17.829  0.00  0.00    +0.170 C 
ATOM     11  C   UNL     1      -5.927 -12.212  17.200  0.00  0.00    +0.179 C 
ATOM     12  C   UNL     1      -3.824 -11.128  16.923  0.00  0.00    +0.133 C 
ATOM     13  C   UNL     1      -6.835 -12.281  18.404  0.00  0.00    +0.175 C 
ATOM     14  C   UNL     1      -4.938 -10.240  16.405  0.00  0.00    +0.183 C 
ATOM     15  C   UNL     1      -6.148 -11.347  19.374  0.00  0.00    +0.194 C 
BRANCH  13   4
ATOM      4  O   UNL     1      -8.160 -11.883  18.134  0.00  0.00    -0.367 OA
BRANCH   4  16
ATOM     16  C   UNL     1      -8.609 -10.877  19.038  0.00  0.00    +0.195 C 
BRANCH  16  18
ATOM     18  C   UNL     1      -9.446  -9.882  18.287  0.00  0.00    -0.022 A 
ATOM     21  C   UNL     1     -10.825  -9.873  18.460  0.00  0.00    +0.006 A 
ATOM     22  C   UNL     1      -8.834  -8.978  17.426  0.00  0.00    +0.006 A 
ATOM     26  C   UNL     1     -11.603  -8.949  17.763  0.00  0.00    +0.000 A 
ATOM     27  C   UNL     1      -9.612  -8.053  16.728  0.00  0.00    +0.000 A 
ATOM     28  C   UNL     1     -10.997  -8.038  16.897  0.00  0.00    +0.000 A 
ENDBRANCH  16  18
ENDBRANCH   4  16
ENDBRANCH  13   4
ENDBRANCH   8  12
BRANCH   8   1
ATOM      1  S   UNL     1      -1.915 -11.170  14.939  0.00  0.00    +0.059 S 
ATOM      5  O   UNL     1      -0.829 -12.127  14.840  0.00  0.00    -0.153 OA
ATOM      6  O   UNL     1      -1.670  -9.840  15.461  0.00  0.00    -0.153 OA
BRANCH   1  17
ATOM     17  C   UNL     1      -2.614 -10.972  13.327  0.00  0.00    +0.105 A 
ATOM     19  C   UNL     1      -1.909 -10.268  12.366  0.00  0.00    +0.030 A 
ATOM     20  C   UNL     1      -3.854 -11.524  13.056  0.00  0.00    +0.030 A 
ATOM     23  C   UNL     1      -2.460 -10.113  11.094  0.00  0.00    +0.025 A 
ATOM     24  C   UNL     1      -4.405 -11.368  11.785  0.00  0.00    +0.025 A 
ATOM     25  C   UNL     1      -3.709 -10.663  10.804  0.00  0.00    +0.033 A 
BRANCH  25   9
ATOM      7  O   UNL     1      -5.212  -8.351   9.595  0.00  0.00    -0.276 OA
ATOM      9  N   UNL     1      -4.260 -10.506   9.531  0.00  0.00    -0.286 N 
ATOM     29  C   UNL     1      -4.955  -9.403   9.019  0.00  0.00    +0.214 C 
ATOM     30  C   UNL     1      -5.389  -9.628   7.592  0.00  0.00    +0.109 C 
ATOM     32  H   UNL     1      -4.136 -11.299   8.904  0.00  0.00    +0.155 HD
ENDBRANCH  25   9
ENDBRANCH   1  17
ENDBRANCH   8   1
TORSDOF 7
ENDMDL
MODEL 8
REMARK VINA RESULT:      -6.9     19.084     21.721
REMARK  Name = 11886501
REMARK  8 active torsions:
REMARK  status: ('A' for Active; 'I' for Inactive)
REMARK    1  A    between atoms: S_1  and  N_8
REMARK    2  A    between atoms: S_1  and  C_17
REMARK    3  A    between atoms: O_4  and  C_13
REMARK    4  A    between atoms: O_4  and  C_16
REMARK    5  A    between atoms: N_8  and  C_12
REMARK    6  A    between atoms: N_9  and  C_25
REMARK    7  A    between atoms: C_16  and  C_18
REMARK    8  A    between atoms: C_29  and  C_30
REMARK                            x       y       z     vdW  Elec       q    Type
REMARK                         _______ _______ _______ _____ _____    ______ ____
ROOT
ATOM      8  N   UNL     1      -3.091 -10.333  13.850  0.00  0.00    -0.182 NA
ATOM     31  H   UNL     1      -3.495  -9.401  13.998  0.00  0.00    +0.148 HD
ENDROOT
BRANCH   8  12
ATOM      2  O   UNL     1      -4.174 -10.153  16.779  0.00  0.00    -0.370 OA
ATOM      3  O   UNL     1      -4.766 -12.998  15.772  0.00  0.00    -0.370 OA
ATOM     10  C   UNL     1      -4.678 -11.735  15.082  0.00  0.00    +0.170 C 
ATOM     11  C   UNL     1      -5.263 -10.686  16.007  0.00  0.00    +0.179 C 
ATOM     12  C   UNL     1      -3.232 -11.327  14.940  0.00  0.00    +0.133 C 
ATOM     13  C   UNL     1      -6.210 -11.495  16.862  0.00  0.00    +0.175 C 
ATOM     14  C   UNL     1      -2.933 -10.672  16.274  0.00  0.00    +0.183 C 
ATOM     15  C   UNL     1      -5.467 -12.803  17.009  0.00  0.00    +0.194 C 
BRANCH  13   4
ATOM      4  O   UNL     1      -6.490 -10.901  18.109  0.00  0.00    -0.367 OA
BRANCH   4  16
ATOM     16  C   UNL     1      -7.761 -11.300  18.616  0.00  0.00    +0.195 C 
BRANCH  16  18
ATOM     18  C   UNL     1      -8.791 -10.286  18.212  0.00  0.00    -0.022 A 
ATOM     21  C   UNL     1     -10.117 -10.464  18.589  0.00  0.00    +0.006 A 
ATOM     22  C   UNL     1      -8.410  -9.178  17.464  0.00  0.00    +0.006 A 
ATOM     26  C   UNL     1     -11.075  -9.523  18.214  0.00  0.00    +0.000 A 
ATOM     27  C   UNL     1      -9.368  -8.235  17.089  0.00  0.00    +0.000 A 
ATOM     28  C   UNL     1     -10.700  -8.407  17.464  0.00  0.00    +0.000 A 
ENDBRANCH  16  18
ENDBRANCH   4  16
ENDBRANCH  13   4
ENDBRANCH   8  12
BRANCH   8   1
ATOM      1  S   UNL     1      -2.651 -10.845  12.292  0.00  0.00    +0.059 S 
ATOM      5  O   UNL     1      -2.986 -12.247  12.131  0.00  0.00    -0.153 OA
ATOM      6  O   UNL     1      -1.307 -10.379  12.009  0.00  0.00    -0.153 OA
BRANCH   1  17
ATOM     17  C   UNL     1      -3.748  -9.903  11.275  0.00  0.00    +0.105 A 
ATOM     19  C   UNL     1      -3.345  -9.539  10.002  0.00  0.00    +0.030 A 
ATOM     20  C   UNL     1      -4.991  -9.547  11.772  0.00  0.00    +0.030 A 
ATOM     23  C   UNL     1      -4.212  -8.797   9.199  0.00  0.00    +0.025 A 
ATOM     24  C   UNL     1      -5.856  -8.804  10.969  0.00  0.00    +0.025 A 
ATOM     25  C   UNL     1      -5.468  -8.429   9.683  0.00  0.00    +0.033 A 
BRANCH  25   9
ATOM      7  O   UNL     1      -7.950  -9.258   8.194  0.00  0.00    -0.276 OA
ATOM      9  N   UNL     1      -6.334  -7.686   8.880  0.00  0.00    -0.286 N 
ATOM     29  C   UNL     1      -7.480  -8.125   8.206  0.00  0.00    +0.214 C 
ATOM     30  C   UNL     1      -8.143  -7.006   7.443  0.00  0.00    +0.109 C 
ATOM     32  H   UNL     1      -6.093  -6.701   8.779  0.00  0.00    +0.155 HD
ENDBRANCH  25   9
ENDBRANCH   1  17
ENDBRANCH   8   1
TORSDOF 7
ENDMDL
MODEL 9
REMARK VINA RESULT:      -6.9     26.952     30.534
REMARK  Name = 11886501
REMARK  8 active torsions:
REMARK  status: ('A' for Active; 'I' for Inactive)
REMARK    1  A    between atoms: S_1  and  N_8
REMARK    2  A    between atoms: S_1  and  C_17
REMARK    3  A    between atoms: O_4  and  C_13
REMARK    4  A    between atoms: O_4  and  C_16
REMARK    5  A    between atoms: N_8  and  C_12
REMARK    6  A    between atoms: N_9  and  C_25
REMARK    7  A    between atoms: C_16  and  C_18
REMARK    8  A    between atoms: C_29  and  C_30
REMARK                            x       y       z     vdW  Elec       q    Type
REMARK                         _______ _______ _______ _____ _____    ______ ____
ROOT
ATOM      8  N   UNL     1      13.180  11.923  14.837  0.00  0.00    -0.182 NA
ATOM     31  H   UNL     1      12.346  12.096  15.412  0.00  0.00    +0.148 HD
ENDROOT
BRANCH   8  12
ATOM      2  O   UNL     1      14.162  10.625  17.509  0.00  0.00    -0.370 OA
ATOM      3  O   UNL     1      13.751   8.338  15.494  0.00  0.00    -0.370 OA
ATOM     10  C   UNL     1      13.092   9.613  15.648  0.00  0.00    +0.170 C 
ATOM     11  C   UNL     1      12.992   9.879  17.137  0.00  0.00    +0.179 C 
ATOM     12  C   UNL     1      13.987  10.717  15.141  0.00  0.00    +0.133 C 
ATOM     13  C   UNL     1      13.007   8.487  17.721  0.00  0.00    +0.175 C 
ATOM     14  C   UNL     1      14.891  10.990  16.326  0.00  0.00    +0.183 C 
ATOM     15  C   UNL     1      13.957   7.763  16.793  0.00  0.00    +0.194 C 
BRANCH  13   4
ATOM      4  O   UNL     1      13.441   8.443  19.061  0.00  0.00    -0.367 OA
BRANCH   4  16
ATOM     16  C   UNL     1      13.935   7.155  19.420  0.00  0.00    +0.195 C 
BRANCH  16  18
ATOM     18  C   UNL     1      15.342   7.293  19.924  0.00  0.00    -0.022 A 
ATOM     21  C   UNL     1      15.689   8.390  20.705  0.00  0.00    +0.006 A 
ATOM     22  C   UNL     1      16.286   6.323  19.608  0.00  0.00    +0.006 A 
ATOM     26  C   UNL     1      16.995   8.520  21.174  0.00  0.00    +0.000 A 
ATOM     27  C   UNL     1      17.594   6.451  20.077  0.00  0.00    +0.000 A 
ATOM     28  C   UNL     1      17.948   7.549  20.861  0.00  0.00    +0.000 A 
ENDBRANCH  16  18
ENDBRANCH   4  16
ENDBRANCH  13   4
ENDBRANCH   8  12
BRANCH   8   1
ATOM      1  S   UNL     1      13.396  12.735  13.362  0.00  0.00    +0.059 S 
ATOM      5  O   UNL     1      14.037  11.846  12.411  0.00  0.00    -0.153 OA
ATOM      6  O   UNL     1      13.958  14.045  13.628  0.00  0.00    -0.153 OA
BRANCH   1  17
ATOM     17  C   UNL     1      11.728  12.985  12.835  0.00  0.00    +0.105 A 
ATOM     19  C   UNL     1      11.308  14.260  12.500  0.00  0.00    +0.030 A 
ATOM     20  C   UNL     1      10.871  11.899  12.767  0.00  0.00    +0.030 A 
ATOM     23  C   UNL     1       9.991  14.457  12.083  0.00  0.00    +0.025 A 
ATOM     24  C   UNL     1       9.555  12.096  12.351  0.00  0.00    +0.025 A 
ATOM     25  C   UNL     1       9.114  13.375  12.009  0.00  0.00    +0.033 A 
BRANCH  25   9
ATOM      7  O   UNL     1       7.841  13.008   9.305  0.00  0.00    -0.276 OA
ATOM      9  N   UNL     1       7.797  13.572  11.593  0.00  0.00    -0.286 N 
ATOM     29  C   UNL     1       7.257  13.387  10.315  0.00  0.00    +0.214 C 
ATOM     30  C   UNL     1       5.784  13.709  10.278  0.00  0.00    +0.109 C 
ATOM     32  H   UNL     1       7.157  13.892  12.318  0.00  0.00    +0.155 HD
ENDBRANCH  25   9
ENDBRANCH   1  17
ENDBRANCH   8   1
TORSDOF 7
ENDMDL
MODEL 10
REMARK VINA RESULT:      -6.9     16.300     17.577
REMARK  Name = 11886501
REMARK  8 active torsions:
REMARK  status: ('A' for Active; 'I' for Inactive)
REMARK    1  A    between atoms: S_1  and  N_8
REMARK    2  A    between atoms: S_1  and  C_17
REMARK    3  A    between atoms: O_4  and  C_13
REMARK    4  A    between atoms: O_4  and  C_16
REMARK    5  A    between atoms: N_8  and  C_12
REMARK    6  A    between atoms: N_9  and  C_25
REMARK    7  A    between atoms: C_16  and  C_18
REMARK    8  A    between atoms: C_29  and  C_30
REMARK                            x       y       z     vdW  Elec       q    Type
REMARK                         _______ _______ _______ _____ _____    ______ ____
ROOT
ATOM      8  N   UNL     1      -9.817 -11.008  17.473  0.00  0.00    -0.182 NA
ATOM     31  H   UNL     1     -10.693 -11.420  17.127  0.00  0.00    +0.148 HD
ENDROOT
BRANCH   8  12
ATOM      2  O   UNL     1     -10.728  -9.229  15.067  0.00  0.00    -0.370 OA
ATOM      3  O   UNL     1     -10.209  -7.341  17.438  0.00  0.00    -0.370 OA
ATOM     10  C   UNL     1     -10.660  -8.710  17.382  0.00  0.00    +0.170 C 
ATOM     11  C   UNL     1     -11.560  -8.827  16.167  0.00  0.00    +0.179 C 
ATOM     12  C   UNL     1      -9.499  -9.621  17.063  0.00  0.00    +0.133 C 
ATOM     13  C   UNL     1     -12.067  -7.415  15.998  0.00  0.00    +0.175 C 
ATOM     14  C   UNL     1      -9.412  -9.539  15.552  0.00  0.00    +0.183 C 
ATOM     15  C   UNL     1     -10.864  -6.594  16.403  0.00  0.00    +0.194 C 
BRANCH  13   4
ATOM      4  O   UNL     1     -12.491  -7.123  14.686  0.00  0.00    -0.367 OA
BRANCH   4  16
ATOM     16  C   UNL     1     -13.726  -6.411  14.671  0.00  0.00    +0.195 C 
BRANCH  16  18
ATOM     18  C   UNL     1     -13.635  -5.293  13.674  0.00  0.00    -0.022 A 
ATOM     21  C   UNL     1     -12.393  -4.915  13.175  0.00  0.00    +0.006 A 
ATOM     22  C   UNL     1     -14.792  -4.645  13.257  0.00  0.00    +0.006 A 
ATOM     26  C   UNL     1     -12.307  -3.877  12.249  0.00  0.00    +0.000 A 
ATOM     27  C   UNL     1     -14.707  -3.606  12.329  0.00  0.00    +0.000 A 
ATOM     28  C   UNL     1     -13.465  -3.222  11.825  0.00  0.00    +0.000 A 
ENDBRANCH  16  18
ENDBRANCH   4  16
ENDBRANCH  13   4
ENDBRANCH   8  12
BRANCH   8   1
ATOM      1  S   UNL     1      -8.983 -11.719  18.770  0.00  0.00    +0.059 S 
ATOM      5  O   UNL     1      -9.335 -13.124  18.859  0.00  0.00    -0.153 OA
ATOM      6  O   UNL     1      -9.109 -10.860  19.932  0.00  0.00    -0.153 OA
BRANCH   1  17
ATOM     17  C   UNL     1      -7.304 -11.611  18.227  0.00  0.00    +0.105 A 
ATOM     19  C   UNL     1      -6.429 -10.775  18.898  0.00  0.00    +0.030 A 
ATOM     20  C   UNL     1      -6.896 -12.367  17.141  0.00  0.00    +0.030 A 
ATOM     23  C   UNL     1      -5.104 -10.691  18.470  0.00  0.00    +0.025 A 
ATOM     24  C   UNL     1      -5.572 -12.282  16.713  0.00  0.00    +0.025 A 
ATOM     25  C   UNL     1      -4.676 -11.445  17.377  0.00  0.00    +0.033 A 
BRANCH  25   9
ATOM      7  O   UNL     1      -3.522 -10.496  14.762  0.00  0.00    -0.276 OA
ATOM      9  N   UNL     1      -3.350 -11.359  16.949  0.00  0.00    -0.286 N 
ATOM     29  C   UNL     1      -2.867 -10.909  15.714  0.00  0.00    +0.214 C 
ATOM     30  C   UNL     1      -1.362 -10.973  15.645  0.00  0.00    +0.109 C 
ATOM     32  H   UNL     1      -2.655 -11.665  17.628  0.00  0.00    +0.155 HD
ENDBRANCH  25   9
ENDBRANCH   1  17
ENDBRANCH   8   1
TORSDOF 7
ENDMDL
