REMARK  Name = 75536830
REMARK  8 active torsions:
REMARK  status: ('A' for Active; 'I' for Inactive)
REMARK    1  A    between atoms: S_1  and  N_8
REMARK    2  A    between atoms: S_1  and  C_20
REMARK    3  A    between atoms: O_3  and  C_11
REMARK    4  A    between atoms: N_6  and  C_9
REMARK    5  A    between atoms: N_6  and  C_10
REMARK    6  A    between atoms: N_7  and  C_19
REMARK    7  A    between atoms: N_8  and  C_18
REMARK    8  A    between atoms: C_12  and  C_18
REMARK                            x       y       z     vdW  Elec       q    Type
REMARK                         _______ _______ _______ _____ _____    ______ ____
ROOT
ATOM      2  O   UNL     1      -0.091   0.673  -1.345  0.00  0.00    -0.371 OA
ATOM      9  C   UNL     1      -1.950   0.211   0.060  0.00  0.00    +0.111 C 
ATOM     11  C   UNL     1      -0.671   0.051   0.862  0.00  0.00    +0.164 C 
ATOM     12  C   UNL     1       0.305   0.866   0.023  0.00  0.00    +0.164 C 
ATOM     15  C   UNL     1      -1.424   0.131  -1.364  0.00  0.00    +0.181 C 
ENDROOT
BRANCH  11   3
ATOM      3  O   UNL     1      -0.785   0.557   2.177  0.00  0.00    -0.388 OA
ATOM     27  H   UNL     1      -1.058   1.489   2.124  0.00  0.00    +0.210 HD
ENDBRANCH  11   3
BRANCH   9   6
ATOM      6  N   UNL     1      -2.951  -0.802   0.351  0.00  0.00    -0.306 NA
ATOM     26  H   UNL     1      -3.014  -0.956   1.356  0.00  0.00    +0.123 HD
BRANCH   6  10
ATOM      7  N   UNL     1      -7.163  -0.277   0.132  0.00  0.00    -0.305 NA
ATOM     10  C   UNL     1      -4.256  -0.408  -0.176  0.00  0.00    +0.056 C 
ATOM     13  C   UNL     1      -4.933   0.584   0.773  0.00  0.00    +0.034 C 
ATOM     14  C   UNL     1      -5.155  -1.630  -0.382  0.00  0.00    +0.034 C 
ATOM     16  C   UNL     1      -6.343   0.932   0.289  0.00  0.00    +0.085 C 
ATOM     17  C   UNL     1      -6.558  -1.210  -0.829  0.00  0.00    +0.085 C 
ATOM     19  C   UNL     1      -8.521   0.075  -0.282  0.00  0.00    +0.104 C 
ENDBRANCH   6  10
ENDBRANCH   9   6
BRANCH  12  18
ATOM     18  C   UNL     1       1.751   0.441   0.203  0.00  0.00    +0.140 C 
BRANCH  18   8
ATOM      8  N   UNL     1       2.623   1.279  -0.643  0.00  0.00    -0.187 NA
ATOM     28  H   UNL     1       2.417   1.262  -1.650  0.00  0.00    +0.148 HD
BRANCH   8   1
ATOM      1  S   UNL     1       4.213   1.626  -0.148  0.00  0.00    +0.058 S 
ATOM      4  O   UNL     1       4.186   2.198   1.185  0.00  0.00    -0.153 OA
ATOM      5  O   UNL     1       4.902   2.314  -1.223  0.00  0.00    -0.153 OA
BRANCH   1  20
ATOM     20  C   UNL     1       4.918   0.009  -0.033  0.00  0.00    +0.105 A 
ATOM     21  C   UNL     1       5.541  -0.560  -1.143  0.00  0.00    +0.028 A 
ATOM     22  C   UNL     1       4.847  -0.699   1.167  0.00  0.00    +0.028 A 
ATOM     23  C   UNL     1       6.093  -1.838  -1.054  0.00  0.00    +0.002 A 
ATOM     24  C   UNL     1       5.400  -1.976   1.256  0.00  0.00    +0.002 A 
ATOM     25  C   UNL     1       6.023  -2.546   0.145  0.00  0.00    +0.000 A 
ENDBRANCH   1  20
ENDBRANCH   8   1
ENDBRANCH  18   8
ENDBRANCH  12  18
TORSDOF 7
