REMARK  Name = 45784264
REMARK  4 active torsions:
REMARK  status: ('A' for Active; 'I' for Inactive)
REMARK    1  A    between atoms: N_5  and  C_13
REMARK    2  A    between atoms: C_8  and  C_12
REMARK    3  A    between atoms: C_13  and  C_14
REMARK    4  A    between atoms: C_21  and  C_25
REMARK                            x       y       z     vdW  Elec       q    Type
REMARK                         _______ _______ _______ _____ _____    ______ ____
ROOT
ATOM      6  N   UNL     1       1.861  -1.018   0.680  0.00  0.00    -0.342 N 
ATOM      7  N   UNL     1       1.277   0.977  -0.106  0.00  0.00    -0.232 NA
ATOM     12  C   UNL     1       0.841  -0.148   0.416  0.00  0.00    +0.113 A 
ATOM     15  C   UNL     1       3.034  -0.415   0.303  0.00  0.00    +0.067 A 
ATOM     16  C   UNL     1       2.643   0.829  -0.184  0.00  0.00    +0.089 A 
ATOM     17  C   UNL     1       4.363  -0.838   0.346  0.00  0.00    +0.040 A 
ATOM     18  C   UNL     1       3.622   1.716  -0.661  0.00  0.00    +0.030 A 
ATOM     21  C   UNL     1       5.324   0.058  -0.133  0.00  0.00    +0.057 A 
ATOM     22  C   UNL     1       4.963   1.313  -0.628  0.00  0.00    +0.014 A 
ATOM     27  H   UNL     1       1.772  -1.942   1.081  0.00  0.00    +0.167 HD
ENDROOT
BRANCH  12   8
ATOM      5  N   UNL     1      -2.800  -0.139   0.006  0.00  0.00    -0.297 NA
ATOM      8  C   UNL     1      -0.596  -0.508   0.716  0.00  0.00    +0.070 C 
ATOM      9  C   UNL     1      -1.305   0.433   1.706  0.00  0.00    +0.028 C 
ATOM     10  C   UNL     1      -1.488  -0.501  -0.533  0.00  0.00    +0.096 C 
ATOM     11  C   UNL     1      -2.532   0.938   0.959  0.00  0.00    +0.085 C 
BRANCH   5  13
ATOM     13  C   UNL     1      -3.736   0.262  -1.034  0.00  0.00    +0.122 C 
BRANCH  13  14
ATOM      1  F   UNL     1      -5.180  -2.158  -0.744  0.00  0.00    -0.205 F 
ATOM     14  C   UNL     1      -5.163   0.208  -0.555  0.00  0.00    +0.002 A 
ATOM     19  C   UNL     1      -5.815  -1.019  -0.435  0.00  0.00    +0.128 A 
ATOM     20  C   UNL     1      -5.832   1.388  -0.231  0.00  0.00    +0.008 A 
ATOM     23  C   UNL     1      -7.136  -1.066   0.008  0.00  0.00    +0.038 A 
ATOM     24  C   UNL     1      -7.154   1.341   0.212  0.00  0.00    +0.000 A 
ATOM     26  C   UNL     1      -7.806   0.114   0.332  0.00  0.00    +0.003 A 
ENDBRANCH  13  14
ENDBRANCH   5  13
ENDBRANCH  12   8
BRANCH  21  25
ATOM      2  F   UNL     1       7.580   0.636  -0.612  0.00  0.00    -0.166 F 
ATOM      3  F   UNL     1       7.239  -0.612   1.136  0.00  0.00    -0.166 F 
ATOM      4  F   UNL     1       7.033  -1.454  -0.852  0.00  0.00    -0.166 F 
ATOM     25  C   UNL     1       6.765  -0.337  -0.115  0.00  0.00    +0.417 C 
ENDBRANCH  21  25
TORSDOF 4
