REMARK  Name = 75537015
REMARK  2 active torsions:
REMARK  status: ('A' for Active; 'I' for Inactive)
REMARK    1  A    between atoms: N_4  and  C_8
REMARK    2  A    between atoms: C_19  and  C_20
REMARK                            x       y       z     vdW  Elec       q    Type
REMARK                         _______ _______ _______ _____ _____    ______ ____
ROOT
ATOM      1  O   UNL     1       2.658  -2.596   0.759  0.00  0.00    -0.252 OA
ATOM      3  O   UNL     1      -4.123  -1.409  -0.269  0.00  0.00    -0.275 OA
ATOM      4  N   UNL     1       2.608  -0.307   0.192  0.00  0.00    -0.281 N 
ATOM      5  N   UNL     1       0.661  -1.408   0.409  0.00  0.00    -0.278 N 
ATOM      6  N   UNL     1      -1.882  -0.904  -0.604  0.00  0.00    -0.298 N 
ATOM      7  C   UNL     1       0.276  -0.027   0.178  0.00  0.00    +0.112 C 
ATOM      9  C   UNL     1       1.591   0.662  -0.177  0.00  0.00    +0.133 C 
ATOM     10  C   UNL     1      -0.799   0.053  -0.902  0.00  0.00    +0.132 C 
ATOM     13  C   UNL     1      -0.362  -2.415   0.626  0.00  0.00    +0.128 C 
ATOM     14  C   UNL     1       2.051  -1.567   0.491  0.00  0.00    +0.305 C 
ATOM     15  C   UNL     1      -1.442  -2.299  -0.448  0.00  0.00    +0.127 C 
ATOM     19  C   UNL     1      -3.234  -0.585  -0.494  0.00  0.00    +0.219 C 
ENDROOT
BRANCH  19  20
ATOM      2  O   UNL     1      -5.918   1.619   0.878  0.00  0.00    -0.380 OA
ATOM     20  C   UNL     1      -3.597   0.861  -0.664  0.00  0.00    +0.079 C 
ATOM     21  C   UNL     1      -3.498   1.589   0.676  0.00  0.00    +0.041 C 
ATOM     22  C   UNL     1      -4.987   1.007  -1.284  0.00  0.00    +0.041 C 
ATOM     23  C   UNL     1      -4.706   1.317   1.566  0.00  0.00    +0.160 C 
ATOM     24  C   UNL     1      -6.103   0.789  -0.267  0.00  0.00    +0.160 C 
ENDBRANCH  19  20
BRANCH   4   8
ATOM      8  C   UNL     1       4.016  -0.005   0.113  0.00  0.00    +0.078 C 
ATOM     11  C   UNL     1       4.402   1.035   1.167  0.00  0.00    +0.022 C 
ATOM     12  C   UNL     1       4.392   0.463  -1.295  0.00  0.00    +0.022 C 
ATOM     16  C   UNL     1       5.878   1.413   1.071  0.00  0.00    +0.002 C 
ATOM     17  C   UNL     1       5.868   0.840  -1.388  0.00  0.00    +0.002 C 
ATOM     18  C   UNL     1       6.251   1.876  -0.335  0.00  0.00    +0.000 C 
ENDBRANCH   4   8
TORSDOF 2
