MODEL 1
REMARK VINA RESULT:      -6.6      0.000      0.000
REMARK  Name = 38027716
REMARK  14 active torsions:
REMARK  status: ('A' for Active; 'I' for Inactive)
REMARK    1  A    between atoms: O_3  and  C_22
REMARK    2  A    between atoms: O_3  and  C_29
REMARK    3  A    between atoms: N_4  and  C_13
REMARK    4  A    between atoms: N_5  and  C_20
REMARK    5  A    between atoms: C_6  and  C_10
REMARK    6  A    between atoms: C_7  and  C_13
REMARK    7  A    between atoms: C_9  and  C_14
REMARK    8  A    between atoms: C_10  and  C_15
REMARK    9  A    between atoms: C_10  and  C_16
REMARK   10  A    between atoms: C_11  and  C_17
REMARK   11  A    between atoms: C_14  and  C_18
REMARK   12  A    between atoms: C_19  and  C_21
REMARK   13  A    between atoms: C_20  and  C_22
REMARK   14  A    between atoms: C_27  and  C_28
REMARK                            x       y       z     vdW  Elec       q    Type
REMARK                         _______ _______ _______ _____ _____    ______ ____
ROOT
ATOM      6  C   UNL     1      13.176   9.187  20.046  0.00  0.00    +0.000 C 
ATOM      7  C   UNL     1      12.197   8.130  19.475  0.00  0.00    +0.032 C 
ATOM      8  C   UNL     1      12.946  10.549  19.372  0.00  0.00    +0.012 C 
ATOM      9  C   UNL     1      13.134  10.483  17.845  0.00  0.00    +0.023 C 
ATOM     11  C   UNL     1      12.410   9.298  17.239  0.00  0.00    -0.073 C 
ATOM     12  C   UNL     1      11.988   8.261  17.986  0.00  0.00    -0.022 C 
ATOM     17  C   UNL     1      12.143   9.351  15.761  0.00  0.00    +0.039 C 
ENDROOT
BRANCH   6  10
ATOM     10  C   UNL     1      13.038   9.329  21.565  0.00  0.00    -0.013 C 
ATOM     15  C   UNL     1      14.290   9.971  22.155  0.00  0.00    +0.007 C 
ATOM     16  C   UNL     1      11.796  10.145  21.911  0.00  0.00    +0.007 C 
ENDBRANCH   6  10
BRANCH   7  13
ATOM     13  C   UNL     1      12.669   6.707  19.801  0.00  0.00    +0.112 C 
BRANCH  13   4
ATOM      2  O   UNL     1      14.945   6.834  18.056  0.00  0.00    -0.270 OA
ATOM      4  N   UNL     1      14.044   6.705  20.191  0.00  0.00    -0.311 N 
ATOM     19  C   UNL     1      15.092   6.770  19.274  0.00  0.00    +0.244 C 
ATOM     30  H   UNL     1      14.243   6.747  21.185  0.00  0.00    +0.149 HD
BRANCH  19  21
ATOM     21  C   UNL     1      16.466   6.730  19.838  0.00  0.00    +0.037 A 
ATOM     23  C   UNL     1      16.819   7.591  20.877  0.00  0.00    +0.013 A 
ATOM     24  C   UNL     1      17.404   5.832  19.328  0.00  0.00    +0.013 A 
ATOM     25  C   UNL     1      18.109   7.554  21.406  0.00  0.00    +0.004 A 
ATOM     26  C   UNL     1      18.694   5.795  19.856  0.00  0.00    +0.004 A 
ATOM     27  C   UNL     1      19.047   6.656  20.895  0.00  0.00    -0.050 A 
ATOM     28  C   UNL     1      20.426   6.618  21.461  0.00  0.00    +0.044 C 
ENDBRANCH  19  21
ENDBRANCH  13   4
ENDBRANCH   7  13
BRANCH   9  14
ATOM     14  C   UNL     1      14.621  10.468  17.473  0.00  0.00    +0.103 C 
BRANCH  14  18
ATOM      1  O   UNL     1      16.168  12.167  16.715  0.00  0.00    -0.276 OA
ATOM      5  N   UNL     1      13.955  12.238  16.011  0.00  0.00    -0.313 N 
ATOM     18  C   UNL     1      15.029  11.706  16.708  0.00  0.00    +0.214 C 
ATOM     31  H   UNL     1      13.047  11.785  16.067  0.00  0.00    +0.149 HD
BRANCH   5  20
ATOM     20  C   UNL     1      14.054  13.426  15.194  0.00  0.00    +0.132 C 
BRANCH  20  22
ATOM     22  C   UNL     1      13.838  13.111  13.725  0.00  0.00    +0.178 C 
BRANCH  22   3
ATOM      3  O   UNL     1      13.074  11.918  13.605  0.00  0.00    -0.381 OA
ATOM     29  C   UNL     1      11.852  12.149  12.917  0.00  0.00    +0.194 C 
ENDBRANCH  22   3
ENDBRANCH  20  22
ENDBRANCH   5  20
ENDBRANCH  14  18
ENDBRANCH   9  14
TORSDOF 9
ENDMDL
MODEL 2
REMARK VINA RESULT:      -6.4     26.351     28.642
REMARK  Name = 38027716
REMARK  14 active torsions:
REMARK  status: ('A' for Active; 'I' for Inactive)
REMARK    1  A    between atoms: O_3  and  C_22
REMARK    2  A    between atoms: O_3  and  C_29
REMARK    3  A    between atoms: N_4  and  C_13
REMARK    4  A    between atoms: N_5  and  C_20
REMARK    5  A    between atoms: C_6  and  C_10
REMARK    6  A    between atoms: C_7  and  C_13
REMARK    7  A    between atoms: C_9  and  C_14
REMARK    8  A    between atoms: C_10  and  C_15
REMARK    9  A    between atoms: C_10  and  C_16
REMARK   10  A    between atoms: C_11  and  C_17
REMARK   11  A    between atoms: C_14  and  C_18
REMARK   12  A    between atoms: C_19  and  C_21
REMARK   13  A    between atoms: C_20  and  C_22
REMARK   14  A    between atoms: C_27  and  C_28
REMARK                            x       y       z     vdW  Elec       q    Type
REMARK                         _______ _______ _______ _____ _____    ______ ____
ROOT
ATOM      6  C   UNL     1      -3.462 -11.963  12.475  0.00  0.00    +0.000 C 
ATOM      7  C   UNL     1      -2.276 -10.997  12.229  0.00  0.00    +0.032 C 
ATOM      8  C   UNL     1      -4.147 -12.320  11.147  0.00  0.00    +0.012 C 
ATOM      9  C   UNL     1      -4.675 -11.075  10.410  0.00  0.00    +0.023 C 
ATOM     11  C   UNL     1      -3.641  -9.968  10.362  0.00  0.00    -0.073 C 
ATOM     12  C   UNL     1      -2.569  -9.957  11.174  0.00  0.00    -0.022 C 
ATOM     17  C   UNL     1      -3.845  -8.896   9.328  0.00  0.00    +0.039 C 
ENDROOT
BRANCH   6  10
ATOM     10  C   UNL     1      -3.016 -13.242  13.190  0.00  0.00    -0.013 C 
ATOM     15  C   UNL     1      -4.111 -13.735  14.131  0.00  0.00    +0.007 C 
ATOM     16  C   UNL     1      -2.651 -14.319  12.173  0.00  0.00    +0.007 C 
ENDBRANCH   6  10
BRANCH   7  13
ATOM     13  C   UNL     1      -1.852 -10.301  13.528  0.00  0.00    +0.112 C 
BRANCH  13   4
ATOM      2  O   UNL     1      -1.565 -10.894  16.323  0.00  0.00    -0.270 OA
ATOM      4  N   UNL     1      -2.898 -10.358  14.500  0.00  0.00    -0.311 N 
ATOM     19  C   UNL     1      -2.671 -10.654  15.843  0.00  0.00    +0.244 C 
ATOM     30  H   UNL     1      -3.826 -10.081  14.197  0.00  0.00    +0.149 HD
BRANCH  19  21
ATOM     21  C   UNL     1      -3.868 -10.700  16.722  0.00  0.00    +0.037 A 
ATOM     23  C   UNL     1      -5.053 -10.085  16.319  0.00  0.00    +0.013 A 
ATOM     24  C   UNL     1      -3.807 -11.360  17.949  0.00  0.00    +0.013 A 
ATOM     25  C   UNL     1      -6.177 -10.129  17.144  0.00  0.00    +0.004 A 
ATOM     26  C   UNL     1      -4.930 -11.403  18.775  0.00  0.00    +0.004 A 
ATOM     27  C   UNL     1      -6.115 -10.788  18.372  0.00  0.00    -0.050 A 
ATOM     28  C   UNL     1      -7.317 -10.834  19.254  0.00  0.00    +0.044 C 
ENDBRANCH  19  21
ENDBRANCH  13   4
ENDBRANCH   7  13
BRANCH   9  14
ATOM     14  C   UNL     1      -5.984 -10.578  11.035  0.00  0.00    +0.103 C 
BRANCH  14  18
ATOM      1  O   UNL     1      -7.403 -11.086   9.142  0.00  0.00    -0.276 OA
ATOM      5  N   UNL     1      -7.514  -8.983  10.125  0.00  0.00    -0.313 N 
ATOM     18  C   UNL     1      -7.035 -10.277   9.991  0.00  0.00    +0.214 C 
ATOM     31  H   UNL     1      -7.147  -8.386  10.860  0.00  0.00    +0.149 HD
BRANCH   5  20
ATOM     20  C   UNL     1      -8.526  -8.422   9.258  0.00  0.00    +0.132 C 
BRANCH  20  22
ATOM     22  C   UNL     1      -7.979  -7.267   8.440  0.00  0.00    +0.178 C 
BRANCH  22   3
ATOM      3  O   UNL     1      -9.056  -6.576   7.821  0.00  0.00    -0.381 OA
ATOM     29  C   UNL     1      -9.331  -5.345   8.475  0.00  0.00    +0.194 C 
ENDBRANCH  22   3
ENDBRANCH  20  22
ENDBRANCH   5  20
ENDBRANCH  14  18
ENDBRANCH   9  14
TORSDOF 9
ENDMDL
MODEL 3
REMARK VINA RESULT:      -6.3     26.263     28.832
REMARK  Name = 38027716
REMARK  14 active torsions:
REMARK  status: ('A' for Active; 'I' for Inactive)
REMARK    1  A    between atoms: O_3  and  C_22
REMARK    2  A    between atoms: O_3  and  C_29
REMARK    3  A    between atoms: N_4  and  C_13
REMARK    4  A    between atoms: N_5  and  C_20
REMARK    5  A    between atoms: C_6  and  C_10
REMARK    6  A    between atoms: C_7  and  C_13
REMARK    7  A    between atoms: C_9  and  C_14
REMARK    8  A    between atoms: C_10  and  C_15
REMARK    9  A    between atoms: C_10  and  C_16
REMARK   10  A    between atoms: C_11  and  C_17
REMARK   11  A    between atoms: C_14  and  C_18
REMARK   12  A    between atoms: C_19  and  C_21
REMARK   13  A    between atoms: C_20  and  C_22
REMARK   14  A    between atoms: C_27  and  C_28
REMARK                            x       y       z     vdW  Elec       q    Type
REMARK                         _______ _______ _______ _____ _____    ______ ____
ROOT
ATOM      6  C   UNL     1      -3.195 -12.061  12.600  0.00  0.00    +0.000 C 
ATOM      7  C   UNL     1      -2.077 -11.007  12.398  0.00  0.00    +0.032 C 
ATOM      8  C   UNL     1      -3.812 -12.454  11.249  0.00  0.00    +0.012 C 
ATOM      9  C   UNL     1      -4.410 -11.244  10.507  0.00  0.00    +0.023 C 
ATOM     11  C   UNL     1      -3.461 -10.063  10.500  0.00  0.00    -0.073 C 
ATOM     12  C   UNL     1      -2.417  -9.981  11.344  0.00  0.00    -0.022 C 
ATOM     17  C   UNL     1      -3.714  -8.998   9.469  0.00  0.00    +0.039 C 
ENDROOT
BRANCH   6  10
ATOM     10  C   UNL     1      -2.675 -13.311  13.317  0.00  0.00    -0.013 C 
ATOM     15  C   UNL     1      -3.683 -13.784  14.360  0.00  0.00    +0.007 C 
ATOM     16  C   UNL     1      -2.379 -14.417  12.309  0.00  0.00    +0.007 C 
ENDBRANCH   6  10
BRANCH   7  13
ATOM     13  C   UNL     1      -1.744 -10.295  13.715  0.00  0.00    +0.112 C 
BRANCH  13   4
ATOM      2  O   UNL     1      -1.654 -10.892  16.522  0.00  0.00    -0.270 OA
ATOM      4  N   UNL     1      -2.855 -10.342  14.613  0.00  0.00    -0.311 N 
ATOM     19  C   UNL     1      -2.722 -10.641  15.968  0.00  0.00    +0.244 C 
ATOM     30  H   UNL     1      -3.757 -10.056  14.247  0.00  0.00    +0.149 HD
BRANCH  19  21
ATOM     21  C   UNL     1      -3.977 -10.677  16.762  0.00  0.00    +0.037 A 
ATOM     23  C   UNL     1      -5.133 -10.071  16.269  0.00  0.00    +0.013 A 
ATOM     24  C   UNL     1      -4.000 -11.316  18.002  0.00  0.00    +0.013 A 
ATOM     25  C   UNL     1      -6.311 -10.105  17.016  0.00  0.00    +0.004 A 
ATOM     26  C   UNL     1      -5.177 -11.350  18.749  0.00  0.00    +0.004 A 
ATOM     27  C   UNL     1      -6.332 -10.744  18.256  0.00  0.00    -0.050 A 
ATOM     28  C   UNL     1      -7.592 -10.779  19.053  0.00  0.00    +0.044 C 
ENDBRANCH  19  21
ENDBRANCH  13   4
ENDBRANCH   7  13
BRANCH   9  14
ATOM     14  C   UNL     1      -5.770 -10.853  11.097  0.00  0.00    +0.103 C 
BRANCH  14  18
ATOM      1  O   UNL     1      -7.665  -9.657  10.185  0.00  0.00    -0.276 OA
ATOM      5  N   UNL     1      -6.539 -11.199   8.861  0.00  0.00    -0.313 N 
ATOM     18  C   UNL     1      -6.770 -10.484  10.025  0.00  0.00    +0.214 C 
ATOM     31  H   UNL     1      -5.772 -11.864   8.824  0.00  0.00    +0.149 HD
BRANCH   5  20
ATOM     20  C   UNL     1      -7.345 -11.051   7.670  0.00  0.00    +0.132 C 
BRANCH  20  22
ATOM     22  C   UNL     1      -6.583 -10.338   6.568  0.00  0.00    +0.178 C 
BRANCH  22   3
ATOM      3  O   UNL     1      -5.199 -10.640   6.678  0.00  0.00    -0.381 OA
ATOM     29  C   UNL     1      -4.769 -11.507   5.637  0.00  0.00    +0.194 C 
ENDBRANCH  22   3
ENDBRANCH  20  22
ENDBRANCH   5  20
ENDBRANCH  14  18
ENDBRANCH   9  14
TORSDOF 9
ENDMDL
MODEL 4
REMARK VINA RESULT:      -6.3      3.403      5.438
REMARK  Name = 38027716
REMARK  14 active torsions:
REMARK  status: ('A' for Active; 'I' for Inactive)
REMARK    1  A    between atoms: O_3  and  C_22
REMARK    2  A    between atoms: O_3  and  C_29
REMARK    3  A    between atoms: N_4  and  C_13
REMARK    4  A    between atoms: N_5  and  C_20
REMARK    5  A    between atoms: C_6  and  C_10
REMARK    6  A    between atoms: C_7  and  C_13
REMARK    7  A    between atoms: C_9  and  C_14
REMARK    8  A    between atoms: C_10  and  C_15
REMARK    9  A    between atoms: C_10  and  C_16
REMARK   10  A    between atoms: C_11  and  C_17
REMARK   11  A    between atoms: C_14  and  C_18
REMARK   12  A    between atoms: C_19  and  C_21
REMARK   13  A    between atoms: C_20  and  C_22
REMARK   14  A    between atoms: C_27  and  C_28
REMARK                            x       y       z     vdW  Elec       q    Type
REMARK                         _______ _______ _______ _____ _____    ______ ____
ROOT
ATOM      6  C   UNL     1      13.588   8.661  19.712  0.00  0.00    +0.000 C 
ATOM      7  C   UNL     1      15.032   8.213  19.375  0.00  0.00    +0.032 C 
ATOM      8  C   UNL     1      13.481  10.194  19.681  0.00  0.00    +0.012 C 
ATOM      9  C   UNL     1      14.446  10.865  20.677  0.00  0.00    +0.023 C 
ATOM     11  C   UNL     1      15.841  10.281  20.590  0.00  0.00    -0.073 C 
ATOM     12  C   UNL     1      16.086   9.101  19.993  0.00  0.00    -0.022 C 
ATOM     17  C   UNL     1      16.958  11.108  21.165  0.00  0.00    +0.039 C 
ENDROOT
BRANCH   6  10
ATOM     10  C   UNL     1      12.564   8.050  18.751  0.00  0.00    -0.013 C 
ATOM     15  C   UNL     1      11.186   8.663  18.981  0.00  0.00    +0.007 C 
ATOM     16  C   UNL     1      13.009   8.247  17.305  0.00  0.00    +0.007 C 
ENDBRANCH   6  10
BRANCH   7  13
ATOM     13  C   UNL     1      15.274   6.760  19.804  0.00  0.00    +0.112 C 
BRANCH  13   4
ATOM      2  O   UNL     1      17.572   5.607  18.528  0.00  0.00    -0.270 OA
ATOM      4  N   UNL     1      16.577   6.608  20.370  0.00  0.00    -0.311 N 
ATOM     19  C   UNL     1      17.643   6.034  19.678  0.00  0.00    +0.244 C 
ATOM     30  H   UNL     1      16.736   7.021  21.284  0.00  0.00    +0.149 HD
BRANCH  19  21
ATOM     21  C   UNL     1      18.927   5.924  20.416  0.00  0.00    +0.037 A 
ATOM     23  C   UNL     1      19.808   4.881  20.131  0.00  0.00    +0.013 A 
ATOM     24  C   UNL     1      19.253   6.864  21.393  0.00  0.00    +0.013 A 
ATOM     25  C   UNL     1      21.014   4.777  20.824  0.00  0.00    +0.004 A 
ATOM     26  C   UNL     1      20.458   6.761  22.087  0.00  0.00    +0.004 A 
ATOM     27  C   UNL     1      21.339   5.718  21.802  0.00  0.00    -0.050 A 
ATOM     28  C   UNL     1      22.629   5.606  22.543  0.00  0.00    +0.044 C 
ENDBRANCH  19  21
ENDBRANCH  13   4
ENDBRANCH   7  13
BRANCH   9  14
ATOM     14  C   UNL     1      13.905  10.783  22.110  0.00  0.00    +0.103 C 
BRANCH  14  18
ATOM      1  O   UNL     1      11.626  11.444  21.637  0.00  0.00    -0.276 OA
ATOM      5  N   UNL     1      12.028   9.480  22.813  0.00  0.00    -0.313 N 
ATOM     18  C   UNL     1      12.401  10.635  22.143  0.00  0.00    +0.214 C 
ATOM     31  H   UNL     1      12.744   8.871  23.199  0.00  0.00    +0.149 HD
BRANCH   5  20
ATOM     20  C   UNL     1      10.651   9.085  22.999  0.00  0.00    +0.132 C 
BRANCH  20  22
ATOM     22  C   UNL     1      10.334   7.801  22.254  0.00  0.00    +0.178 C 
BRANCH  22   3
ATOM      3  O   UNL     1      11.531   7.062  22.057  0.00  0.00    -0.381 OA
ATOM     29  C   UNL     1      11.269   5.784  21.492  0.00  0.00    +0.194 C 
ENDBRANCH  22   3
ENDBRANCH  20  22
ENDBRANCH   5  20
ENDBRANCH  14  18
ENDBRANCH   9  14
TORSDOF 9
ENDMDL
MODEL 5
REMARK VINA RESULT:      -6.0     28.306     30.685
REMARK  Name = 38027716
REMARK  14 active torsions:
REMARK  status: ('A' for Active; 'I' for Inactive)
REMARK    1  A    between atoms: O_3  and  C_22
REMARK    2  A    between atoms: O_3  and  C_29
REMARK    3  A    between atoms: N_4  and  C_13
REMARK    4  A    between atoms: N_5  and  C_20
REMARK    5  A    between atoms: C_6  and  C_10
REMARK    6  A    between atoms: C_7  and  C_13
REMARK    7  A    between atoms: C_9  and  C_14
REMARK    8  A    between atoms: C_10  and  C_15
REMARK    9  A    between atoms: C_10  and  C_16
REMARK   10  A    between atoms: C_11  and  C_17
REMARK   11  A    between atoms: C_14  and  C_18
REMARK   12  A    between atoms: C_19  and  C_21
REMARK   13  A    between atoms: C_20  and  C_22
REMARK   14  A    between atoms: C_27  and  C_28
REMARK                            x       y       z     vdW  Elec       q    Type
REMARK                         _______ _______ _______ _____ _____    ______ ____
ROOT
ATOM      6  C   UNL     1     -11.762  -9.721  19.023  0.00  0.00    +0.000 C 
ATOM      7  C   UNL     1     -10.636 -10.721  18.658  0.00  0.00    +0.032 C 
ATOM      8  C   UNL     1     -12.804  -9.652  17.896  0.00  0.00    +0.012 C 
ATOM      9  C   UNL     1     -12.183  -9.221  16.554  0.00  0.00    +0.023 C 
ATOM     11  C   UNL     1     -10.909  -9.984  16.252  0.00  0.00    -0.073 C 
ATOM     12  C   UNL     1     -10.239 -10.659  17.203  0.00  0.00    -0.022 C 
ATOM     17  C   UNL     1     -10.447  -9.990  14.821  0.00  0.00    +0.039 C 
ENDROOT
BRANCH   6  10
ATOM     10  C   UNL     1     -12.447 -10.091  20.342  0.00  0.00    -0.013 C 
ATOM     15  C   UNL     1     -13.723  -9.276  20.526  0.00  0.00    +0.007 C 
ATOM     16  C   UNL     1     -12.749 -11.586  20.382  0.00  0.00    +0.007 C 
ENDBRANCH   6  10
BRANCH   7  13
ATOM     13  C   UNL     1      -9.397 -10.504  19.535  0.00  0.00    +0.112 C 
BRANCH  13   4
ATOM      2  O   UNL     1      -6.761 -11.202  20.434  0.00  0.00    -0.270 OA
ATOM      4  N   UNL     1      -8.206 -10.529  18.747  0.00  0.00    -0.311 N 
ATOM     19  C   UNL     1      -6.960 -10.881  19.264  0.00  0.00    +0.244 C 
ATOM     30  H   UNL     1      -8.307 -10.364  17.750  0.00  0.00    +0.149 HD
BRANCH  19  21
ATOM     21  C   UNL     1      -5.814 -10.831  18.321  0.00  0.00    +0.037 A 
ATOM     23  C   UNL     1      -4.609 -11.448  18.654  0.00  0.00    +0.013 A 
ATOM     24  C   UNL     1      -5.944 -10.168  17.100  0.00  0.00    +0.013 A 
ATOM     25  C   UNL     1      -3.532 -11.401  17.768  0.00  0.00    +0.004 A 
ATOM     26  C   UNL     1      -4.868 -10.120  16.214  0.00  0.00    +0.004 A 
ATOM     27  C   UNL     1      -3.663 -10.737  16.548  0.00  0.00    -0.050 A 
ATOM     28  C   UNL     1      -2.511 -10.687  15.601  0.00  0.00    +0.044 C 
ENDBRANCH  19  21
ENDBRANCH  13   4
ENDBRANCH   7  13
BRANCH   9  14
ATOM     14  C   UNL     1     -11.939  -7.708  16.519  0.00  0.00    +0.103 C 
BRANCH  14  18
ATOM      1  O   UNL     1     -14.218  -7.182  15.898  0.00  0.00    -0.276 OA
ATOM      5  N   UNL     1     -12.462  -6.054  14.875  0.00  0.00    -0.313 N 
ATOM     18  C   UNL     1     -13.015  -6.975  15.751  0.00  0.00    +0.214 C 
ATOM     31  H   UNL     1     -11.453  -5.954  14.823  0.00  0.00    +0.149 HD
BRANCH   5  20
ATOM     20  C   UNL     1     -13.257  -5.212  14.010  0.00  0.00    +0.132 C 
BRANCH  20  22
ATOM     22  C   UNL     1     -12.385  -4.410  13.061  0.00  0.00    +0.178 C 
BRANCH  22   3
ATOM      3  O   UNL     1     -13.095  -3.258  12.627  0.00  0.00    -0.381 OA
ATOM     29  C   UNL     1     -14.500  -3.473  12.645  0.00  0.00    +0.194 C 
ENDBRANCH  22   3
ENDBRANCH  20  22
ENDBRANCH   5  20
ENDBRANCH  14  18
ENDBRANCH   9  14
TORSDOF 9
ENDMDL
MODEL 6
REMARK VINA RESULT:      -5.9      4.308      6.672
REMARK  Name = 38027716
REMARK  14 active torsions:
REMARK  status: ('A' for Active; 'I' for Inactive)
REMARK    1  A    between atoms: O_3  and  C_22
REMARK    2  A    between atoms: O_3  and  C_29
REMARK    3  A    between atoms: N_4  and  C_13
REMARK    4  A    between atoms: N_5  and  C_20
REMARK    5  A    between atoms: C_6  and  C_10
REMARK    6  A    between atoms: C_7  and  C_13
REMARK    7  A    between atoms: C_9  and  C_14
REMARK    8  A    between atoms: C_10  and  C_15
REMARK    9  A    between atoms: C_10  and  C_16
REMARK   10  A    between atoms: C_11  and  C_17
REMARK   11  A    between atoms: C_14  and  C_18
REMARK   12  A    between atoms: C_19  and  C_21
REMARK   13  A    between atoms: C_20  and  C_22
REMARK   14  A    between atoms: C_27  and  C_28
REMARK                            x       y       z     vdW  Elec       q    Type
REMARK                         _______ _______ _______ _____ _____    ______ ____
ROOT
ATOM      6  C   UNL     1      16.670   7.831  21.130  0.00  0.00    +0.000 C 
ATOM      7  C   UNL     1      18.217   7.914  21.102  0.00  0.00    +0.032 C 
ATOM      8  C   UNL     1      16.056   9.004  20.349  0.00  0.00    +0.012 C 
ATOM      9  C   UNL     1      16.483  10.369  20.919  0.00  0.00    +0.023 C 
ATOM     11  C   UNL     1      17.975  10.433  21.173  0.00  0.00    -0.073 C 
ATOM     12  C   UNL     1      18.736   9.325  21.239  0.00  0.00    -0.022 C 
ATOM     17  C   UNL     1      18.582  11.802  21.306  0.00  0.00    +0.039 C 
ENDROOT
BRANCH   6  10
ATOM     10  C   UNL     1      16.161   6.504  20.558  0.00  0.00    -0.013 C 
ATOM     15  C   UNL     1      14.652   6.562  20.340  0.00  0.00    +0.007 C 
ATOM     16  C   UNL     1      16.883   6.175  19.256  0.00  0.00    +0.007 C 
ENDBRANCH   6  10
BRANCH   7  13
ATOM     13  C   UNL     1      18.837   7.034  22.194  0.00  0.00    +0.112 C 
BRANCH  13   4
ATOM      2  O   UNL     1      21.015   5.910  23.689  0.00  0.00    -0.270 OA
ATOM      4  N   UNL     1      19.923   6.266  21.672  0.00  0.00    -0.311 N 
ATOM     19  C   UNL     1      20.944   5.755  22.472  0.00  0.00    +0.244 C 
ATOM     30  H   UNL     1      19.884   6.019  20.689  0.00  0.00    +0.149 HD
BRANCH  19  21
ATOM     21  C   UNL     1      22.016   5.000  21.773  0.00  0.00    +0.037 A 
ATOM     23  C   UNL     1      22.996   5.684  21.054  0.00  0.00    +0.013 A 
ATOM     24  C   UNL     1      22.043   3.607  21.837  0.00  0.00    +0.013 A 
ATOM     25  C   UNL     1      24.002   4.975  20.398  0.00  0.00    +0.004 A 
ATOM     26  C   UNL     1      23.048   2.898  21.181  0.00  0.00    +0.004 A 
ATOM     27  C   UNL     1      24.028   3.582  20.462  0.00  0.00    -0.050 A 
ATOM     28  C   UNL     1      25.104   2.824  19.759  0.00  0.00    +0.044 C 
ENDBRANCH  19  21
ENDBRANCH  13   4
ENDBRANCH   7  13
BRANCH   9  14
ATOM     14  C   UNL     1      15.694  10.707  22.190  0.00  0.00    +0.103 C 
BRANCH  14  18
ATOM      1  O   UNL     1      13.787  11.716  21.096  0.00  0.00    -0.276 OA
ATOM      5  N   UNL     1      13.448  10.060  22.691  0.00  0.00    -0.313 N 
ATOM     18  C   UNL     1      14.222  10.906  21.911  0.00  0.00    +0.214 C 
ATOM     31  H   UNL     1      13.901   9.422  23.339  0.00  0.00    +0.149 HD
BRANCH   5  20
ATOM     20  C   UNL     1      12.004  10.035  22.635  0.00  0.00    +0.132 C 
BRANCH  20  22
ATOM     22  C   UNL     1      11.505   9.026  21.617  0.00  0.00    +0.178 C 
BRANCH  22   3
ATOM      3  O   UNL     1      10.806   7.986  22.288  0.00  0.00    -0.381 OA
ATOM     29  C   UNL     1      11.002   6.730  21.650  0.00  0.00    +0.194 C 
ENDBRANCH  22   3
ENDBRANCH  20  22
ENDBRANCH   5  20
ENDBRANCH  14  18
ENDBRANCH   9  14
TORSDOF 9
ENDMDL
MODEL 7
REMARK VINA RESULT:      -5.8     26.842     30.081
REMARK  Name = 38027716
REMARK  14 active torsions:
REMARK  status: ('A' for Active; 'I' for Inactive)
REMARK    1  A    between atoms: O_3  and  C_22
REMARK    2  A    between atoms: O_3  and  C_29
REMARK    3  A    between atoms: N_4  and  C_13
REMARK    4  A    between atoms: N_5  and  C_20
REMARK    5  A    between atoms: C_6  and  C_10
REMARK    6  A    between atoms: C_7  and  C_13
REMARK    7  A    between atoms: C_9  and  C_14
REMARK    8  A    between atoms: C_10  and  C_15
REMARK    9  A    between atoms: C_10  and  C_16
REMARK   10  A    between atoms: C_11  and  C_17
REMARK   11  A    between atoms: C_14  and  C_18
REMARK   12  A    between atoms: C_19  and  C_21
REMARK   13  A    between atoms: C_20  and  C_22
REMARK   14  A    between atoms: C_27  and  C_28
REMARK                            x       y       z     vdW  Elec       q    Type
REMARK                         _______ _______ _______ _____ _____    ______ ____
ROOT
ATOM      6  C   UNL     1      -5.195 -10.730  10.361  0.00  0.00    +0.000 C 
ATOM      7  C   UNL     1      -4.668  -9.640   9.395  0.00  0.00    +0.032 C 
ATOM      8  C   UNL     1      -4.731 -10.444  11.797  0.00  0.00    +0.012 C 
ATOM      9  C   UNL     1      -3.196 -10.389  11.914  0.00  0.00    +0.023 C 
ATOM     11  C   UNL     1      -2.579  -9.540  10.821  0.00  0.00    -0.073 C 
ATOM     12  C   UNL     1      -3.257  -9.205   9.708  0.00  0.00    -0.022 C 
ATOM     17  C   UNL     1      -1.178  -9.048  11.057  0.00  0.00    +0.039 C 
ENDROOT
BRANCH   6  10
ATOM     10  C   UNL     1      -6.723 -10.836  10.320  0.00  0.00    -0.013 C 
ATOM     15  C   UNL     1      -7.216 -11.835  11.363  0.00  0.00    +0.007 C 
ATOM     16  C   UNL     1      -7.356  -9.466  10.542  0.00  0.00    +0.007 C 
ENDBRANCH   6  10
BRANCH   7  13
ATOM     13  C   UNL     1      -4.746 -10.108   7.937  0.00  0.00    +0.112 C 
BRANCH  13   4
ATOM      2  O   UNL     1      -5.990 -10.934   5.485  0.00  0.00    -0.270 OA
ATOM      4  N   UNL     1      -5.792  -9.429   7.240  0.00  0.00    -0.311 N 
ATOM     19  C   UNL     1      -6.342  -9.901   6.049  0.00  0.00    +0.244 C 
ATOM     30  H   UNL     1      -6.198  -8.616   7.693  0.00  0.00    +0.149 HD
BRANCH  19  21
ATOM     21  C   UNL     1      -7.405  -9.064   5.434  0.00  0.00    +0.037 A 
ATOM     23  C   UNL     1      -7.678  -9.175   4.071  0.00  0.00    +0.013 A 
ATOM     24  C   UNL     1      -8.129  -8.168   6.220  0.00  0.00    +0.013 A 
ATOM     25  C   UNL     1      -8.676  -8.389   3.494  0.00  0.00    +0.004 A 
ATOM     26  C   UNL     1      -9.127  -7.382   5.644  0.00  0.00    +0.004 A 
ATOM     27  C   UNL     1      -9.400  -7.492   4.281  0.00  0.00    -0.050 A 
ATOM     28  C   UNL     1     -10.466  -6.652   3.663  0.00  0.00    +0.044 C 
ENDBRANCH  19  21
ENDBRANCH  13   4
ENDBRANCH   7  13
BRANCH   9  14
ATOM     14  C   UNL     1      -2.593 -11.798  11.922  0.00  0.00    +0.103 C 
BRANCH  14  18
ATOM      1  O   UNL     1      -1.417 -13.213  13.494  0.00  0.00    -0.276 OA
ATOM      5  N   UNL     1      -1.930 -11.024  14.084  0.00  0.00    -0.313 N 
ATOM     18  C   UNL     1      -1.913 -12.119  13.233  0.00  0.00    +0.214 C 
ATOM     31  H   UNL     1      -2.366 -10.159  13.779  0.00  0.00    +0.149 HD
BRANCH   5  20
ATOM     20  C   UNL     1      -1.353 -11.045  15.409  0.00  0.00    +0.132 C 
BRANCH  20  22
ATOM     22  C   UNL     1      -2.388 -10.726  16.472  0.00  0.00    +0.178 C 
BRANCH  22   3
ATOM      3  O   UNL     1      -3.561 -11.492  16.234  0.00  0.00    -0.381 OA
ATOM     29  C   UNL     1      -4.673 -10.983  16.958  0.00  0.00    +0.194 C 
ENDBRANCH  22   3
ENDBRANCH  20  22
ENDBRANCH   5  20
ENDBRANCH  14  18
ENDBRANCH   9  14
TORSDOF 9
ENDMDL
MODEL 8
REMARK VINA RESULT:      -5.8     12.008     14.485
REMARK  Name = 38027716
REMARK  14 active torsions:
REMARK  status: ('A' for Active; 'I' for Inactive)
REMARK    1  A    between atoms: O_3  and  C_22
REMARK    2  A    between atoms: O_3  and  C_29
REMARK    3  A    between atoms: N_4  and  C_13
REMARK    4  A    between atoms: N_5  and  C_20
REMARK    5  A    between atoms: C_6  and  C_10
REMARK    6  A    between atoms: C_7  and  C_13
REMARK    7  A    between atoms: C_9  and  C_14
REMARK    8  A    between atoms: C_10  and  C_15
REMARK    9  A    between atoms: C_10  and  C_16
REMARK   10  A    between atoms: C_11  and  C_17
REMARK   11  A    between atoms: C_14  and  C_18
REMARK   12  A    between atoms: C_19  and  C_21
REMARK   13  A    between atoms: C_20  and  C_22
REMARK   14  A    between atoms: C_27  and  C_28
REMARK                            x       y       z     vdW  Elec       q    Type
REMARK                         _______ _______ _______ _____ _____    ______ ____
ROOT
ATOM      6  C   UNL     1       9.292   8.256   5.842  0.00  0.00    +0.000 C 
ATOM      7  C   UNL     1       8.989   8.312   7.360  0.00  0.00    +0.032 C 
ATOM      8  C   UNL     1       8.797   6.930   5.244  0.00  0.00    +0.012 C 
ATOM      9  C   UNL     1       9.450   5.709   5.918  0.00  0.00    +0.023 C 
ATOM     11  C   UNL     1       9.428   5.820   7.429  0.00  0.00    -0.073 C 
ATOM     12  C   UNL     1       9.208   6.990   8.055  0.00  0.00    -0.022 C 
ATOM     17  C   UNL     1       9.622   4.547   8.204  0.00  0.00    +0.039 C 
ENDROOT
BRANCH   6  10
ATOM     10  C   UNL     1       8.659   9.432   5.091  0.00  0.00    -0.013 C 
ATOM     15  C   UNL     1       9.709  10.159   4.257  0.00  0.00    +0.007 C 
ATOM     16  C   UNL     1       7.511   8.945   4.212  0.00  0.00    +0.007 C 
ENDBRANCH   6  10
BRANCH   7  13
ATOM     13  C   UNL     1       9.824   9.397   8.051  0.00  0.00    +0.112 C 
BRANCH  13   4
ATOM      2  O   UNL     1      11.518  11.463   7.000  0.00  0.00    -0.270 OA
ATOM      4  N   UNL     1      11.205   9.274   7.703  0.00  0.00    -0.311 N 
ATOM     19  C   UNL     1      11.957  10.332   7.197  0.00  0.00    +0.244 C 
ATOM     30  H   UNL     1      11.661   8.394   7.924  0.00  0.00    +0.149 HD
BRANCH  19  21
ATOM     21  C   UNL     1      13.373  10.035   6.859  0.00  0.00    +0.037 A 
ATOM     23  C   UNL     1      14.321  11.058   6.864  0.00  0.00    +0.013 A 
ATOM     24  C   UNL     1      13.754   8.733   6.536  0.00  0.00    +0.013 A 
ATOM     25  C   UNL     1      15.650  10.778   6.546  0.00  0.00    +0.004 A 
ATOM     26  C   UNL     1      15.082   8.452   6.218  0.00  0.00    +0.004 A 
ATOM     27  C   UNL     1      16.030   9.475   6.223  0.00  0.00    -0.050 A 
ATOM     28  C   UNL     1      17.452   9.177   5.883  0.00  0.00    +0.044 C 
ENDBRANCH  19  21
ENDBRANCH  13   4
ENDBRANCH   7  13
BRANCH   9  14
ATOM     14  C   UNL     1      10.878   5.492   5.403  0.00  0.00    +0.103 C 
BRANCH  14  18
ATOM      1  O   UNL     1      10.052   4.435   3.389  0.00  0.00    -0.276 OA
ATOM      5  N   UNL     1      12.009   5.686   3.306  0.00  0.00    -0.313 N 
ATOM     18  C   UNL     1      10.905   5.131   3.935  0.00  0.00    +0.214 C 
ATOM     31  H   UNL     1      12.662   6.249   3.844  0.00  0.00    +0.149 HD
BRANCH   5  20
ATOM     20  C   UNL     1      12.291   5.504   1.901  0.00  0.00    +0.132 C 
BRANCH  20  22
ATOM     22  C   UNL     1      13.038   4.208   1.646  0.00  0.00    +0.178 C 
BRANCH  22   3
ATOM      3  O   UNL     1      13.617   4.243   0.349  0.00  0.00    -0.381 OA
ATOM     29  C   UNL     1      12.972   3.337  -0.535  0.00  0.00    +0.194 C 
ENDBRANCH  22   3
ENDBRANCH  20  22
ENDBRANCH   5  20
ENDBRANCH  14  18
ENDBRANCH   9  14
TORSDOF 9
ENDMDL
MODEL 9
REMARK VINA RESULT:      -5.7      9.229     12.769
REMARK  Name = 38027716
REMARK  14 active torsions:
REMARK  status: ('A' for Active; 'I' for Inactive)
REMARK    1  A    between atoms: O_3  and  C_22
REMARK    2  A    between atoms: O_3  and  C_29
REMARK    3  A    between atoms: N_4  and  C_13
REMARK    4  A    between atoms: N_5  and  C_20
REMARK    5  A    between atoms: C_6  and  C_10
REMARK    6  A    between atoms: C_7  and  C_13
REMARK    7  A    between atoms: C_9  and  C_14
REMARK    8  A    between atoms: C_10  and  C_15
REMARK    9  A    between atoms: C_10  and  C_16
REMARK   10  A    between atoms: C_11  and  C_17
REMARK   11  A    between atoms: C_14  and  C_18
REMARK   12  A    between atoms: C_19  and  C_21
REMARK   13  A    between atoms: C_20  and  C_22
REMARK   14  A    between atoms: C_27  and  C_28
REMARK                            x       y       z     vdW  Elec       q    Type
REMARK                         _______ _______ _______ _____ _____    ______ ____
ROOT
ATOM      6  C   UNL     1      10.047   6.250   7.552  0.00  0.00    +0.000 C 
ATOM      7  C   UNL     1       9.531   6.106   6.098  0.00  0.00    +0.032 C 
ATOM      8  C   UNL     1       9.161   7.225   8.341  0.00  0.00    +0.012 C 
ATOM      9  C   UNL     1       9.118   8.624   7.698  0.00  0.00    +0.023 C 
ATOM     11  C   UNL     1       8.878   8.550   6.204  0.00  0.00    -0.073 C 
ATOM     12  C   UNL     1       9.056   7.412   5.508  0.00  0.00    -0.022 C 
ATOM     17  C   UNL     1       8.385   9.802   5.534  0.00  0.00    +0.039 C 
ENDROOT
BRANCH   6  10
ATOM     10  C   UNL     1      10.102   4.899   8.272  0.00  0.00    -0.013 C 
ATOM     15  C   UNL     1       9.340   4.968   9.592  0.00  0.00    +0.007 C 
ATOM     16  C   UNL     1       9.538   3.798   7.379  0.00  0.00    +0.007 C 
ENDBRANCH   6  10
BRANCH   7  13
ATOM     13  C   UNL     1      10.605   5.496   5.188  0.00  0.00    +0.112 C 
BRANCH  13   4
ATOM      2  O   UNL     1      12.037   7.157   3.335  0.00  0.00    -0.270 OA
ATOM      4  N   UNL     1      11.871   6.122   5.406  0.00  0.00    -0.311 N 
ATOM     19  C   UNL     1      12.499   6.917   4.448  0.00  0.00    +0.244 C 
ATOM     30  H   UNL     1      12.272   6.045   6.335  0.00  0.00    +0.149 HD
BRANCH  19  21
ATOM     21  C   UNL     1      13.825   7.475   4.818  0.00  0.00    +0.037 A 
ATOM     23  C   UNL     1      13.967   8.219   5.989  0.00  0.00    +0.013 A 
ATOM     24  C   UNL     1      14.929   7.254   3.994  0.00  0.00    +0.013 A 
ATOM     25  C   UNL     1      15.212   8.742   6.337  0.00  0.00    +0.004 A 
ATOM     26  C   UNL     1      16.174   7.777   4.341  0.00  0.00    +0.004 A 
ATOM     27  C   UNL     1      16.316   8.521   5.512  0.00  0.00    -0.050 A 
ATOM     28  C   UNL     1      17.647   9.082   5.884  0.00  0.00    +0.044 C 
ENDBRANCH  19  21
ENDBRANCH  13   4
ENDBRANCH   7  13
BRANCH   9  14
ATOM     14  C   UNL     1      10.393   9.415   8.011  0.00  0.00    +0.103 C 
BRANCH  14  18
ATOM      1  O   UNL     1       8.997  10.927   9.284  0.00  0.00    -0.276 OA
ATOM      5  N   UNL     1      11.291  11.291   9.190  0.00  0.00    -0.313 N 
ATOM     18  C   UNL     1      10.119  10.612   8.893  0.00  0.00    +0.214 C 
ATOM     31  H   UNL     1      12.174  10.953   8.818  0.00  0.00    +0.149 HD
BRANCH   5  20
ATOM     20  C   UNL     1      11.328  12.478  10.014  0.00  0.00    +0.132 C 
BRANCH  20  22
ATOM     22  C   UNL     1      12.014  12.212  11.342  0.00  0.00    +0.178 C 
BRANCH  22   3
ATOM      3  O   UNL     1      11.040  11.852  12.312  0.00  0.00    -0.381 OA
ATOM     29  C   UNL     1       9.919  12.725  12.274  0.00  0.00    +0.194 C 
ENDBRANCH  22   3
ENDBRANCH  20  22
ENDBRANCH   5  20
ENDBRANCH  14  18
ENDBRANCH   9  14
TORSDOF 9
ENDMDL
MODEL 10
REMARK VINA RESULT:      -5.6     27.985     31.169
REMARK  Name = 38027716
REMARK  14 active torsions:
REMARK  status: ('A' for Active; 'I' for Inactive)
REMARK    1  A    between atoms: O_3  and  C_22
REMARK    2  A    between atoms: O_3  and  C_29
REMARK    3  A    between atoms: N_4  and  C_13
REMARK    4  A    between atoms: N_5  and  C_20
REMARK    5  A    between atoms: C_6  and  C_10
REMARK    6  A    between atoms: C_7  and  C_13
REMARK    7  A    between atoms: C_9  and  C_14
REMARK    8  A    between atoms: C_10  and  C_15
REMARK    9  A    between atoms: C_10  and  C_16
REMARK   10  A    between atoms: C_11  and  C_17
REMARK   11  A    between atoms: C_14  and  C_18
REMARK   12  A    between atoms: C_19  and  C_21
REMARK   13  A    between atoms: C_20  and  C_22
REMARK   14  A    between atoms: C_27  and  C_28
REMARK                            x       y       z     vdW  Elec       q    Type
REMARK                         _______ _______ _______ _____ _____    ______ ____
ROOT
ATOM      6  C   UNL     1      -6.930 -11.270  16.923  0.00  0.00    +0.000 C 
ATOM      7  C   UNL     1      -7.155 -11.449  18.446  0.00  0.00    +0.032 C 
ATOM      8  C   UNL     1      -5.867 -12.258  16.418  0.00  0.00    +0.012 C 
ATOM      9  C   UNL     1      -4.516 -12.076  17.136  0.00  0.00    +0.023 C 
ATOM     11  C   UNL     1      -4.686 -11.974  18.638  0.00  0.00    -0.073 C 
ATOM     12  C   UNL     1      -5.875 -11.705  19.206  0.00  0.00    -0.022 C 
ATOM     17  C   UNL     1      -3.464 -12.231  19.476  0.00  0.00    +0.039 C 
ENDROOT
BRANCH   6  10
ATOM     10  C   UNL     1      -8.229 -11.455  16.131  0.00  0.00    -0.013 C 
ATOM     15  C   UNL     1      -7.939 -11.489  14.634  0.00  0.00    +0.007 C 
ATOM     16  C   UNL     1      -8.943 -12.729  16.573  0.00  0.00    +0.007 C 
ENDBRANCH   6  10
BRANCH   7  13
ATOM     13  C   UNL     1      -7.870 -10.232  19.046  0.00  0.00    +0.112 C 
BRANCH  13   4
ATOM      2  O   UNL     1     -10.497  -9.435  18.207  0.00  0.00    -0.270 OA
ATOM      4  N   UNL     1      -9.109 -10.615  19.645  0.00  0.00    -0.311 N 
ATOM     19  C   UNL     1     -10.347 -10.181  19.172  0.00  0.00    +0.244 C 
ATOM     30  H   UNL     1      -9.069 -11.303  20.390  0.00  0.00    +0.149 HD
BRANCH  19  21
ATOM     21  C   UNL     1     -11.541 -10.648  19.922  0.00  0.00    +0.037 A 
ATOM     23  C   UNL     1     -11.596 -11.955  20.403  0.00  0.00    +0.013 A 
ATOM     24  C   UNL     1     -12.608  -9.777  20.145  0.00  0.00    +0.013 A 
ATOM     25  C   UNL     1     -12.718 -12.393  21.107  0.00  0.00    +0.004 A 
ATOM     26  C   UNL     1     -13.730 -10.214  20.848  0.00  0.00    +0.004 A 
ATOM     27  C   UNL     1     -13.785 -11.522  21.329  0.00  0.00    -0.050 A 
ATOM     28  C   UNL     1     -14.985 -11.991  22.082  0.00  0.00    +0.044 C 
ENDBRANCH  19  21
ENDBRANCH  13   4
ENDBRANCH   7  13
BRANCH   9  14
ATOM     14  C   UNL     1      -3.757 -10.864  16.584  0.00  0.00    +0.103 C 
BRANCH  14  18
ATOM      1  O   UNL     1      -3.497 -10.478  14.210  0.00  0.00    -0.276 OA
ATOM      5  N   UNL     1      -2.291 -12.181  15.232  0.00  0.00    -0.313 N 
ATOM     18  C   UNL     1      -3.189 -11.126  15.208  0.00  0.00    +0.214 C 
ATOM     31  H   UNL     1      -2.101 -12.658  16.109  0.00  0.00    +0.149 HD
BRANCH   5  20
ATOM     20  C   UNL     1      -1.596 -12.654  14.056  0.00  0.00    +0.132 C 
BRANCH  20  22
ATOM     22  C   UNL     1      -2.243 -13.906  13.493  0.00  0.00    +0.178 C 
BRANCH  22   3
ATOM      3  O   UNL     1      -2.895 -14.612  14.539  0.00  0.00    -0.381 OA
ATOM     29  C   UNL     1      -3.878 -15.505  14.033  0.00  0.00    +0.194 C 
ENDBRANCH  22   3
ENDBRANCH  20  22
ENDBRANCH   5  20
ENDBRANCH  14  18
ENDBRANCH   9  14
TORSDOF 9
ENDMDL
