MODEL 1
REMARK VINA RESULT:      -6.7      0.000      0.000
REMARK  Name = 75537073
REMARK  4 active torsions:
REMARK  status: ('A' for Active; 'I' for Inactive)
REMARK    1  A    between atoms: N_3  and  C_13
REMARK    2  A    between atoms: N_4  and  C_14
REMARK    3  A    between atoms: C_13  and  C_15
REMARK    4  A    between atoms: C_14  and  C_16
REMARK                            x       y       z     vdW  Elec       q    Type
REMARK                         _______ _______ _______ _____ _____    ______ ____
ROOT
ATOM      1  O   UNL     1      15.472   9.568  20.377  0.00  0.00    -0.252 OA
ATOM      2  N   UNL     1      17.116   7.947  20.812  0.00  0.00    -0.278 N 
ATOM      3  N   UNL     1      19.675   6.820  21.121  0.00  0.00    -0.295 NA
ATOM      4  N   UNL     1      15.363   7.369  19.534  0.00  0.00    -0.278 N 
ATOM      7  C   UNL     1      17.293   6.530  20.574  0.00  0.00    +0.109 C 
ATOM      8  C   UNL     1      18.730   6.237  20.146  0.00  0.00    +0.109 C 
ATOM      9  C   UNL     1      16.232   6.203  19.525  0.00  0.00    +0.133 C 
ATOM     10  C   UNL     1      18.076   8.653  21.637  0.00  0.00    +0.125 C 
ATOM     11  C   UNL     1      19.500   8.284  21.213  0.00  0.00    +0.104 C 
ATOM     12  C   UNL     1      15.925   8.437  20.260  0.00  0.00    +0.306 C 
ENDROOT
BRANCH   3  13
ATOM     13  C   UNL     1      21.053   6.495  20.754  0.00  0.00    +0.121 C 
BRANCH  13  15
ATOM      6  N   UNL     1      22.227   4.416  23.691  0.00  0.00    -0.263 NA
ATOM     15  C   UNL     1      21.584   5.332  21.548  0.00  0.00    -0.015 A 
ATOM     17  C   UNL     1      21.919   4.133  20.928  0.00  0.00    +0.008 A 
ATOM     18  C   UNL     1      21.755   5.421  22.921  0.00  0.00    +0.115 A 
ATOM     20  C   UNL     1      22.408   3.076  21.687  0.00  0.00    +0.020 A 
ATOM     23  C   UNL     1      22.542   3.266  23.053  0.00  0.00    +0.111 A 
ENDBRANCH  13  15
ENDBRANCH   3  13
BRANCH   4  14
ATOM     14  C   UNL     1      14.150   7.425  18.749  0.00  0.00    +0.164 C 
BRANCH  14  16
ATOM      5  N   UNL     1      12.763   6.578  20.559  0.00  0.00    -0.258 NA
ATOM     16  C   UNL     1      12.924   7.534  19.616  0.00  0.00    +0.059 A 
ATOM     19  C   UNL     1      12.040   8.581  19.414  0.00  0.00    +0.025 A 
ATOM     21  C   UNL     1      10.918   8.652  20.232  0.00  0.00    +0.003 A 
ATOM     22  C   UNL     1      11.661   6.681  21.335  0.00  0.00    +0.111 A 
ATOM     24  C   UNL     1      10.718   7.688  21.214  0.00  0.00    +0.020 A 
ENDBRANCH  14  16
ENDBRANCH   4  14
TORSDOF 4
ENDMDL
MODEL 2
REMARK VINA RESULT:      -6.3      4.764      9.566
REMARK  Name = 75537073
REMARK  4 active torsions:
REMARK  status: ('A' for Active; 'I' for Inactive)
REMARK    1  A    between atoms: N_3  and  C_13
REMARK    2  A    between atoms: N_4  and  C_14
REMARK    3  A    between atoms: C_13  and  C_15
REMARK    4  A    between atoms: C_14  and  C_16
REMARK                            x       y       z     vdW  Elec       q    Type
REMARK                         _______ _______ _______ _____ _____    ______ ____
ROOT
ATOM      1  O   UNL     1      12.104   6.768  18.584  0.00  0.00    -0.252 OA
ATOM      2  N   UNL     1      12.880   8.824  17.755  0.00  0.00    -0.278 N 
ATOM      3  N   UNL     1      13.612  10.792  15.883  0.00  0.00    -0.295 NA
ATOM      4  N   UNL     1      14.004   7.866  19.446  0.00  0.00    -0.278 N 
ATOM      7  C   UNL     1      13.889   9.798  18.117  0.00  0.00    +0.109 C 
ATOM      8  C   UNL     1      14.604  10.314  16.869  0.00  0.00    +0.109 C 
ATOM      9  C   UNL     1      14.782   9.045  19.102  0.00  0.00    +0.133 C 
ATOM     10  C   UNL     1      11.947   9.133  16.692  0.00  0.00    +0.125 C 
ATOM     11  C   UNL     1      12.697   9.703  15.485  0.00  0.00    +0.104 C 
ATOM     12  C   UNL     1      12.893   7.704  18.595  0.00  0.00    +0.306 C 
ENDROOT
BRANCH   3  13
ATOM     13  C   UNL     1      14.287  11.344  14.708  0.00  0.00    +0.121 C 
BRANCH  13  15
ATOM      6  N   UNL     1      13.201  14.956  14.391  0.00  0.00    -0.263 NA
ATOM     15  C   UNL     1      13.597  12.580  14.195  0.00  0.00    -0.015 A 
ATOM     17  C   UNL     1      12.746  12.521  13.097  0.00  0.00    +0.008 A 
ATOM     18  C   UNL     1      13.790  13.812  14.801  0.00  0.00    +0.115 A 
ATOM     20  C   UNL     1      12.121  13.679  12.645  0.00  0.00    +0.020 A 
ATOM     23  C   UNL     1      12.380  14.861  13.320  0.00  0.00    +0.111 A 
ENDBRANCH  13  15
ENDBRANCH   3  13
BRANCH   4  14
ATOM     14  C   UNL     1      14.446   6.925  20.451  0.00  0.00    +0.164 C 
BRANCH  14  16
ATOM      5  N   UNL     1      16.254   5.978  19.125  0.00  0.00    -0.258 NA
ATOM     16  C   UNL     1      15.901   6.572  20.288  0.00  0.00    +0.059 A 
ATOM     19  C   UNL     1      16.788   6.864  21.310  0.00  0.00    +0.025 A 
ATOM     21  C   UNL     1      18.125   6.524  21.128  0.00  0.00    +0.003 A 
ATOM     22  C   UNL     1      17.560   5.664  18.984  0.00  0.00    +0.111 A 
ATOM     24  C   UNL     1      18.526   5.913  19.946  0.00  0.00    +0.020 A 
ENDBRANCH  14  16
ENDBRANCH   4  14
TORSDOF 4
ENDMDL
MODEL 3
REMARK VINA RESULT:      -6.1      2.016      2.948
REMARK  Name = 75537073
REMARK  4 active torsions:
REMARK  status: ('A' for Active; 'I' for Inactive)
REMARK    1  A    between atoms: N_3  and  C_13
REMARK    2  A    between atoms: N_4  and  C_14
REMARK    3  A    between atoms: C_13  and  C_15
REMARK    4  A    between atoms: C_14  and  C_16
REMARK                            x       y       z     vdW  Elec       q    Type
REMARK                         _______ _______ _______ _____ _____    ______ ____
ROOT
ATOM      1  O   UNL     1      13.070   6.624  20.000  0.00  0.00    -0.252 OA
ATOM      2  N   UNL     1      15.261   7.469  20.051  0.00  0.00    -0.278 N 
ATOM      3  N   UNL     1      17.917   7.829  20.906  0.00  0.00    -0.295 NA
ATOM      4  N   UNL     1      13.570   8.915  19.748  0.00  0.00    -0.278 N 
ATOM      7  C   UNL     1      15.910   8.741  19.810  0.00  0.00    +0.109 C 
ATOM      8  C   UNL     1      17.001   8.988  20.852  0.00  0.00    +0.109 C 
ATOM      9  C   UNL     1      14.759   9.746  19.836  0.00  0.00    +0.133 C 
ATOM     10  C   UNL     1      16.073   6.289  20.267  0.00  0.00    +0.125 C 
ATOM     11  C   UNL     1      17.188   6.598  21.270  0.00  0.00    +0.104 C 
ATOM     12  C   UNL     1      13.867   7.550  19.937  0.00  0.00    +0.306 C 
ENDROOT
BRANCH   3  13
ATOM     13  C   UNL     1      19.000   8.080  21.856  0.00  0.00    +0.121 C 
BRANCH  13  15
ATOM      6  N   UNL     1      21.390   5.332  22.888  0.00  0.00    -0.263 NA
ATOM     15  C   UNL     1      20.071   7.025  21.776  0.00  0.00    -0.015 A 
ATOM     17  C   UNL     1      20.724   6.757  20.578  0.00  0.00    +0.008 A 
ATOM     18  C   UNL     1      20.437   6.290  22.893  0.00  0.00    +0.115 A 
ATOM     20  C   UNL     1      21.710   5.777  20.534  0.00  0.00    +0.020 A 
ATOM     23  C   UNL     1      22.003   5.099  21.706  0.00  0.00    +0.111 A 
ENDBRANCH  13  15
ENDBRANCH   3  13
BRANCH   4  14
ATOM     14  C   UNL     1      12.245   9.484  19.633  0.00  0.00    +0.164 C 
BRANCH  14  16
ATOM      5  N   UNL     1      11.225   9.091  21.806  0.00  0.00    -0.258 NA
ATOM     16  C   UNL     1      11.741  10.004  20.953  0.00  0.00    +0.059 A 
ATOM     19  C   UNL     1      11.826  11.359  21.226  0.00  0.00    +0.025 A 
ATOM     21  C   UNL     1      11.351  11.806  22.454  0.00  0.00    +0.003 A 
ATOM     22  C   UNL     1      10.773   9.562  22.989  0.00  0.00    +0.111 A 
ATOM     24  C   UNL     1      10.813  10.897  23.358  0.00  0.00    +0.020 A 
ENDBRANCH  14  16
ENDBRANCH   4  14
TORSDOF 4
ENDMDL
MODEL 4
REMARK VINA RESULT:      -5.9     28.519     31.544
REMARK  Name = 75537073
REMARK  4 active torsions:
REMARK  status: ('A' for Active; 'I' for Inactive)
REMARK    1  A    between atoms: N_3  and  C_13
REMARK    2  A    between atoms: N_4  and  C_14
REMARK    3  A    between atoms: C_13  and  C_15
REMARK    4  A    between atoms: C_14  and  C_16
REMARK                            x       y       z     vdW  Elec       q    Type
REMARK                         _______ _______ _______ _____ _____    ______ ____
ROOT
ATOM      1  O   UNL     1     -12.712  -8.282  13.311  0.00  0.00    -0.252 OA
ATOM      2  N   UNL     1     -10.825  -8.140  14.702  0.00  0.00    -0.278 N 
ATOM      3  N   UNL     1      -8.828  -8.954  16.508  0.00  0.00    -0.295 NA
ATOM      4  N   UNL     1     -12.326  -6.472  14.772  0.00  0.00    -0.278 N 
ATOM      7  C   UNL     1     -10.233  -7.157  15.584  0.00  0.00    +0.109 C 
ATOM      8  C   UNL     1      -9.716  -7.826  16.858  0.00  0.00    +0.109 C 
ATOM      9  C   UNL     1     -11.356  -6.143  15.803  0.00  0.00    +0.133 C 
ATOM     10  C   UNL     1     -10.098  -9.359  14.410  0.00  0.00    +0.125 C 
ATOM     11  C   UNL     1      -9.548  -9.963  15.705  0.00  0.00    +0.104 C 
ATOM     12  C   UNL     1     -12.037  -7.704  14.152  0.00  0.00    +0.306 C 
ENDROOT
BRANCH   3  13
ATOM     13  C   UNL     1      -8.279  -9.564  17.719  0.00  0.00    +0.121 C 
BRANCH  13  15
ATOM      6  N   UNL     1      -4.860 -10.003  16.156  0.00  0.00    -0.263 NA
ATOM     15  C   UNL     1      -6.846  -9.985  17.534  0.00  0.00    -0.015 A 
ATOM     17  C   UNL     1      -6.182 -10.717  18.512  0.00  0.00    +0.008 A 
ATOM     18  C   UNL     1      -6.145  -9.656  16.384  0.00  0.00    +0.115 A 
ATOM     20  C   UNL     1      -4.858 -11.093  18.314  0.00  0.00    +0.020 A 
ATOM     23  C   UNL     1      -4.247 -10.715  17.129  0.00  0.00    +0.111 A 
ENDBRANCH  13  15
ENDBRANCH   3  13
BRANCH   4  14
ATOM     14  C   UNL     1     -13.512  -5.673  14.555  0.00  0.00    +0.164 C 
BRANCH  14  16
ATOM      5  N   UNL     1     -14.517  -4.972  12.453  0.00  0.00    -0.258 NA
ATOM     16  C   UNL     1     -13.438  -4.899  13.265  0.00  0.00    +0.059 A 
ATOM     19  C   UNL     1     -12.298  -4.168  12.976  0.00  0.00    +0.025 A 
ATOM     21  C   UNL     1     -12.262  -3.465  11.777  0.00  0.00    +0.003 A 
ATOM     22  C   UNL     1     -14.446  -4.276  11.297  0.00  0.00    +0.111 A 
ATOM     24  C   UNL     1     -13.353  -3.514  10.916  0.00  0.00    +0.020 A 
ENDBRANCH  14  16
ENDBRANCH   4  14
TORSDOF 4
ENDMDL
MODEL 5
REMARK VINA RESULT:      -5.7     27.628     30.861
REMARK  Name = 75537073
REMARK  4 active torsions:
REMARK  status: ('A' for Active; 'I' for Inactive)
REMARK    1  A    between atoms: N_3  and  C_13
REMARK    2  A    between atoms: N_4  and  C_14
REMARK    3  A    between atoms: C_13  and  C_15
REMARK    4  A    between atoms: C_14  and  C_16
REMARK                            x       y       z     vdW  Elec       q    Type
REMARK                         _______ _______ _______ _____ _____    ______ ____
ROOT
ATOM      1  O   UNL     1      -4.969 -12.021  18.811  0.00  0.00    -0.252 OA
ATOM      2  N   UNL     1      -6.609 -10.593  17.925  0.00  0.00    -0.278 N 
ATOM      3  N   UNL     1      -9.125  -9.737  17.003  0.00  0.00    -0.295 NA
ATOM      4  N   UNL     1      -4.582 -10.615  16.959  0.00  0.00    -0.278 N 
ATOM      7  C   UNL     1      -6.673  -9.547  16.924  0.00  0.00    +0.109 C 
ATOM      8  C   UNL     1      -7.955  -9.674  16.103  0.00  0.00    +0.109 C 
ATOM      9  C   UNL     1      -5.381  -9.728  16.129  0.00  0.00    +0.133 C 
ATOM     10  C   UNL     1      -7.763 -10.840  18.765  0.00  0.00    +0.125 C 
ATOM     11  C   UNL     1      -9.031 -10.899  17.909  0.00  0.00    +0.104 C 
ATOM     12  C   UNL     1      -5.340 -11.180  18.004  0.00  0.00    +0.306 C 
ENDROOT
BRANCH   3  13
ATOM     13  C   UNL     1     -10.363  -9.797  16.226  0.00  0.00    +0.121 C 
BRANCH  13  15
ATOM      6  N   UNL     1     -11.943  -6.977  14.256  0.00  0.00    -0.263 NA
ATOM     15  C   UNL     1     -10.865  -8.425  15.864  0.00  0.00    -0.015 A 
ATOM     17  C   UNL     1     -10.733  -7.358  16.747  0.00  0.00    +0.008 A 
ATOM     18  C   UNL     1     -11.473  -8.183  14.642  0.00  0.00    +0.115 A 
ATOM     20  C   UNL     1     -11.206  -6.101  16.385  0.00  0.00    +0.020 A 
ATOM     23  C   UNL     1     -11.798  -5.964  15.140  0.00  0.00    +0.111 A 
ENDBRANCH  13  15
ENDBRANCH   3  13
BRANCH   4  14
ATOM     14  C   UNL     1      -3.220 -10.960  16.619  0.00  0.00    +0.164 C 
BRANCH  14  16
ATOM      5  N   UNL     1      -2.422 -10.466  14.374  0.00  0.00    -0.258 NA
ATOM     16  C   UNL     1      -3.083 -11.339  15.168  0.00  0.00    +0.059 A 
ATOM     19  C   UNL     1      -3.626 -12.533  14.724  0.00  0.00    +0.025 A 
ATOM     21  C   UNL     1      -3.482 -12.852  13.378  0.00  0.00    +0.003 A 
ATOM     22  C   UNL     1      -2.301 -10.810  13.073  0.00  0.00    +0.111 A 
ATOM     24  C   UNL     1      -2.808 -11.981  12.530  0.00  0.00    +0.020 A 
ENDBRANCH  14  16
ENDBRANCH   4  14
TORSDOF 4
ENDMDL
MODEL 6
REMARK VINA RESULT:      -5.6      1.922      8.541
REMARK  Name = 75537073
REMARK  4 active torsions:
REMARK  status: ('A' for Active; 'I' for Inactive)
REMARK    1  A    between atoms: N_3  and  C_13
REMARK    2  A    between atoms: N_4  and  C_14
REMARK    3  A    between atoms: C_13  and  C_15
REMARK    4  A    between atoms: C_14  and  C_16
REMARK                            x       y       z     vdW  Elec       q    Type
REMARK                         _______ _______ _______ _____ _____    ______ ____
ROOT
ATOM      1  O   UNL     1      20.401   9.182  22.924  0.00  0.00    -0.252 OA
ATOM      2  N   UNL     1      18.846   8.122  21.518  0.00  0.00    -0.278 N 
ATOM      3  N   UNL     1      16.360   7.205  20.573  0.00  0.00    -0.295 NA
ATOM      4  N   UNL     1      20.767   7.054  21.976  0.00  0.00    -0.278 N 
ATOM      7  C   UNL     1      18.803   6.930  20.697  0.00  0.00    +0.109 C 
ATOM      8  C   UNL     1      17.447   6.238  20.833  0.00  0.00    +0.109 C 
ATOM      9  C   UNL     1      19.994   6.109  21.187  0.00  0.00    +0.133 C 
ATOM     10  C   UNL     1      17.751   9.068  21.452  0.00  0.00    +0.125 C 
ATOM     11  C   UNL     1      16.414   8.327  21.531  0.00  0.00    +0.104 C 
ATOM     12  C   UNL     1      20.050   8.241  22.225  0.00  0.00    +0.306 C 
ENDROOT
BRANCH   3  13
ATOM     13  C   UNL     1      15.059   6.539  20.641  0.00  0.00    +0.121 C 
BRANCH  13  15
ATOM      6  N   UNL     1      11.862   7.307  18.767  0.00  0.00    -0.263 NA
ATOM     15  C   UNL     1      14.126   7.021  19.563  0.00  0.00    -0.015 A 
ATOM     17  C   UNL     1      14.617   7.605  18.400  0.00  0.00    +0.008 A 
ATOM     18  C   UNL     1      12.752   6.896  19.696  0.00  0.00    +0.115 A 
ATOM     20  C   UNL     1      13.731   8.041  17.420  0.00  0.00    +0.020 A 
ATOM     23  C   UNL     1      12.375   7.870  17.649  0.00  0.00    +0.111 A 
ENDBRANCH  13  15
ENDBRANCH   3  13
BRANCH   4  14
ATOM     14  C   UNL     1      22.052   6.707  22.543  0.00  0.00    +0.164 C 
BRANCH  14  16
ATOM      5  N   UNL     1      23.311   5.459  20.877  0.00  0.00    -0.258 NA
ATOM     16  C   UNL     1      22.568   5.398  22.005  0.00  0.00    +0.059 A 
ATOM     19  C   UNL     1      22.264   4.223  22.671  0.00  0.00    +0.025 A 
ATOM     21  C   UNL     1      22.755   3.032  22.147  0.00  0.00    +0.003 A 
ATOM     22  C   UNL     1      23.772   4.283  20.398  0.00  0.00    +0.111 A 
ATOM     24  C   UNL     1      23.525   3.054  20.990  0.00  0.00    +0.020 A 
ENDBRANCH  14  16
ENDBRANCH   4  14
TORSDOF 4
ENDMDL
MODEL 7
REMARK VINA RESULT:      -5.5     14.650     17.716
REMARK  Name = 75537073
REMARK  4 active torsions:
REMARK  status: ('A' for Active; 'I' for Inactive)
REMARK    1  A    between atoms: N_3  and  C_13
REMARK    2  A    between atoms: N_4  and  C_14
REMARK    3  A    between atoms: C_13  and  C_15
REMARK    4  A    between atoms: C_14  and  C_16
REMARK                            x       y       z     vdW  Elec       q    Type
REMARK                         _______ _______ _______ _____ _____    ______ ____
ROOT
ATOM      1  O   UNL     1      16.673   8.118   2.130  0.00  0.00    -0.252 OA
ATOM      2  N   UNL     1      15.132   7.418   3.758  0.00  0.00    -0.278 N 
ATOM      3  N   UNL     1      12.648   6.940   4.989  0.00  0.00    -0.295 NA
ATOM      4  N   UNL     1      16.948   8.555   4.430  0.00  0.00    -0.278 N 
ATOM      7  C   UNL     1      15.056   7.402   5.204  0.00  0.00    +0.109 C 
ATOM      8  C   UNL     1      13.651   7.786   5.669  0.00  0.00    +0.109 C 
ATOM      9  C   UNL     1      16.160   8.365   5.637  0.00  0.00    +0.133 C 
ATOM     10  C   UNL     1      14.108   6.743   2.987  0.00  0.00    +0.125 C 
ATOM     11  C   UNL     1      12.722   7.109   3.524  0.00  0.00    +0.104 C 
ATOM     12  C   UNL     1      16.299   8.037   3.292  0.00  0.00    +0.306 C 
ENDROOT
BRANCH   3  13
ATOM     13  C   UNL     1      11.304   7.258   5.471  0.00  0.00    +0.121 C 
BRANCH  13  15
ATOM      6  N   UNL     1      10.577   5.394   8.684  0.00  0.00    -0.263 NA
ATOM     15  C   UNL     1      10.785   6.209   6.418  0.00  0.00    -0.015 A 
ATOM     17  C   UNL     1      10.062   5.116   5.951  0.00  0.00    +0.008 A 
ATOM     18  C   UNL     1      11.013   6.300   7.782  0.00  0.00    +0.115 A 
ATOM     20  C   UNL     1       9.596   4.162   6.849  0.00  0.00    +0.020 A 
ATOM     23  C   UNL     1       9.877   4.345   8.194  0.00  0.00    +0.111 A 
ENDBRANCH  13  15
ENDBRANCH   3  13
BRANCH   4  14
ATOM     14  C   UNL     1      18.172   9.325   4.429  0.00  0.00    +0.164 C 
BRANCH  14  16
ATOM      5  N   UNL     1      19.863   7.785   3.599  0.00  0.00    -0.258 NA
ATOM     16  C   UNL     1      19.380   8.458   4.668  0.00  0.00    +0.059 A 
ATOM     19  C   UNL     1      19.927   8.392   5.938  0.00  0.00    +0.025 A 
ATOM     21  C   UNL     1      21.043   7.582   6.125  0.00  0.00    +0.003 A 
ATOM     22  C   UNL     1      20.947   7.009   3.818  0.00  0.00    +0.111 A 
ATOM     24  C   UNL     1      21.569   6.874   5.049  0.00  0.00    +0.020 A 
ENDBRANCH  14  16
ENDBRANCH   4  14
TORSDOF 4
ENDMDL
MODEL 8
REMARK VINA RESULT:      -5.5     29.082     30.636
REMARK  Name = 75537073
REMARK  4 active torsions:
REMARK  status: ('A' for Active; 'I' for Inactive)
REMARK    1  A    between atoms: N_3  and  C_13
REMARK    2  A    between atoms: N_4  and  C_14
REMARK    3  A    between atoms: C_13  and  C_15
REMARK    4  A    between atoms: C_14  and  C_16
REMARK                            x       y       z     vdW  Elec       q    Type
REMARK                         _______ _______ _______ _____ _____    ______ ____
ROOT
ATOM      1  O   UNL     1     -14.799   9.952  24.935  0.00  0.00    -0.252 OA
ATOM      2  N   UNL     1     -14.037   9.610  22.740  0.00  0.00    -0.278 N 
ATOM      3  N   UNL     1     -13.177   8.230  20.444  0.00  0.00    -0.295 NA
ATOM      4  N   UNL     1     -13.092  11.247  23.951  0.00  0.00    -0.278 N 
ATOM      7  C   UNL     1     -13.140  10.273  21.816  0.00  0.00    +0.109 C 
ATOM      8  C   UNL     1     -12.298   9.245  21.061  0.00  0.00    +0.109 C 
ATOM      9  C   UNL     1     -12.343  11.226  22.706  0.00  0.00    +0.133 C 
ATOM     10  C   UNL     1     -14.839   8.498  22.273  0.00  0.00    +0.125 C 
ATOM     11  C   UNL     1     -13.970   7.525  21.472  0.00  0.00    +0.104 C 
ATOM     12  C   UNL     1     -14.072  10.235  23.993  0.00  0.00    +0.306 C 
ENDROOT
BRANCH   3  13
ATOM     13  C   UNL     1     -12.386   7.275  19.668  0.00  0.00    +0.121 C 
BRANCH  13  15
ATOM      6  N   UNL     1     -12.908   8.667  16.187  0.00  0.00    -0.263 NA
ATOM     15  C   UNL     1     -12.088   7.788  18.284  0.00  0.00    -0.015 A 
ATOM     17  C   UNL     1     -10.782   7.866  17.815  0.00  0.00    +0.008 A 
ATOM     18  C   UNL     1     -13.107   8.198  17.438  0.00  0.00    +0.115 A 
ATOM     20  C   UNL     1     -10.537   8.344  16.532  0.00  0.00    +0.020 A 
ATOM     23  C   UNL     1     -11.625   8.729  15.764  0.00  0.00    +0.111 A 
ENDBRANCH  13  15
ENDBRANCH   3  13
BRANCH   4  14
ATOM     14  C   UNL     1     -12.734  12.123  25.045  0.00  0.00    +0.164 C 
BRANCH  14  16
ATOM      5  N   UNL     1     -12.914  11.428  27.369  0.00  0.00    -0.258 NA
ATOM     16  C   UNL     1     -12.197  11.357  26.225  0.00  0.00    +0.059 A 
ATOM     19  C   UNL     1     -11.024  10.635  26.088  0.00  0.00    +0.025 A 
ATOM     21  C   UNL     1     -10.555   9.939  27.197  0.00  0.00    +0.003 A 
ATOM     22  C   UNL     1     -12.428  10.739  28.425  0.00  0.00    +0.111 A 
ATOM     24  C   UNL     1     -11.265   9.986  28.391  0.00  0.00    +0.020 A 
ENDBRANCH  14  16
ENDBRANCH   4  14
TORSDOF 4
ENDMDL
MODEL 9
REMARK VINA RESULT:      -5.5     14.208     15.275
REMARK  Name = 75537073
REMARK  4 active torsions:
REMARK  status: ('A' for Active; 'I' for Inactive)
REMARK    1  A    between atoms: N_3  and  C_13
REMARK    2  A    between atoms: N_4  and  C_14
REMARK    3  A    between atoms: C_13  and  C_15
REMARK    4  A    between atoms: C_14  and  C_16
REMARK                            x       y       z     vdW  Elec       q    Type
REMARK                         _______ _______ _______ _____ _____    ______ ____
ROOT
ATOM      1  O   UNL     1      11.695  10.198   6.563  0.00  0.00    -0.252 OA
ATOM      2  N   UNL     1      13.774   9.150   6.250  0.00  0.00    -0.278 N 
ATOM      3  N   UNL     1      16.410   8.764   5.347  0.00  0.00    -0.295 NA
ATOM      4  N   UNL     1      11.914   7.910   6.034  0.00  0.00    -0.278 N 
ATOM      7  C   UNL     1      14.259   7.800   6.055  0.00  0.00    +0.109 C 
ATOM      8  C   UNL     1      15.365   7.778   5.001  0.00  0.00    +0.109 C 
ATOM      9  C   UNL     1      13.003   7.013   5.682  0.00  0.00    +0.133 C 
ATOM     10  C   UNL     1      14.726  10.223   6.450  0.00  0.00    +0.125 C 
ATOM     11  C   UNL     1      15.847  10.128   5.411  0.00  0.00    +0.104 C 
ATOM     12  C   UNL     1      12.376   9.211   6.318  0.00  0.00    +0.306 C 
ENDROOT
BRANCH   3  13
ATOM     13  C   UNL     1      17.503   8.710   4.377  0.00  0.00    +0.121 C 
BRANCH  13  15
ATOM      6  N   UNL     1      20.951   7.219   4.848  0.00  0.00    -0.263 NA
ATOM     15  C   UNL     1      18.807   8.321   5.023  0.00  0.00    -0.015 A 
ATOM     17  C   UNL     1      19.088   8.676   6.338  0.00  0.00    +0.008 A 
ATOM     18  C   UNL     1      19.764   7.599   4.327  0.00  0.00    +0.115 A 
ATOM     20  C   UNL     1      20.301   8.303   6.909  0.00  0.00    +0.020 A 
ATOM     23  C   UNL     1      21.190   7.582   6.129  0.00  0.00    +0.111 A 
ENDBRANCH  13  15
ENDBRANCH   3  13
BRANCH   4  14
ATOM     14  C   UNL     1      10.529   7.506   5.940  0.00  0.00    +0.164 C 
BRANCH  14  16
ATOM      5  N   UNL     1      10.069   5.131   6.193  0.00  0.00    -0.258 NA
ATOM     16  C   UNL     1      10.230   6.319   6.817  0.00  0.00    +0.059 A 
ATOM     19  C   UNL     1      10.134   6.496   8.187  0.00  0.00    +0.025 A 
ATOM     21  C   UNL     1       9.856   5.380   8.969  0.00  0.00    +0.003 A 
ATOM     22  C   UNL     1       9.800   4.069   6.985  0.00  0.00    +0.111 A 
ATOM     24  C   UNL     1       9.685   4.139   8.364  0.00  0.00    +0.020 A 
ENDBRANCH  14  16
ENDBRANCH   4  14
TORSDOF 4
ENDMDL
MODEL 10
REMARK VINA RESULT:      -5.5      6.414      7.685
REMARK  Name = 75537073
REMARK  4 active torsions:
REMARK  status: ('A' for Active; 'I' for Inactive)
REMARK    1  A    between atoms: N_3  and  C_13
REMARK    2  A    between atoms: N_4  and  C_14
REMARK    3  A    between atoms: C_13  and  C_15
REMARK    4  A    between atoms: C_14  and  C_16
REMARK                            x       y       z     vdW  Elec       q    Type
REMARK                         _______ _______ _______ _____ _____    ______ ____
ROOT
ATOM      1  O   UNL     1      12.971  11.049  18.998  0.00  0.00    -0.252 OA
ATOM      2  N   UNL     1      14.538  10.942  17.252  0.00  0.00    -0.278 N 
ATOM      3  N   UNL     1      16.278  11.831  15.228  0.00  0.00    -0.295 NA
ATOM      4  N   UNL     1      12.819   9.497  17.229  0.00  0.00    -0.278 N 
ATOM      7  C   UNL     1      14.811  10.071  16.128  0.00  0.00    +0.109 C 
ATOM      8  C   UNL     1      15.185  10.893  14.895  0.00  0.00    +0.109 C 
ATOM      9  C   UNL     1      13.531   9.249  15.986  0.00  0.00    +0.133 C 
ATOM     10  C   UNL     1      15.476  11.997  17.575  0.00  0.00    +0.125 C 
ATOM     11  C   UNL     1      15.869  12.756  16.305  0.00  0.00    +0.104 C 
ATOM     12  C   UNL     1      13.392  10.557  17.960  0.00  0.00    +0.306 C 
ENDROOT
BRANCH   3  13
ATOM     13  C   UNL     1      16.685  12.581  14.040  0.00  0.00    +0.121 C 
BRANCH  13  15
ATOM      6  N   UNL     1      19.788  12.272  11.894  0.00  0.00    -0.263 NA
ATOM     15  C   UNL     1      18.083  12.229  13.608  0.00  0.00    -0.015 A 
ATOM     17  C   UNL     1      18.952  11.563  14.465  0.00  0.00    +0.008 A 
ATOM     18  C   UNL     1      18.546  12.559  12.344  0.00  0.00    +0.115 A 
ATOM     20  C   UNL     1      20.239  11.251  14.038  0.00  0.00    +0.020 A 
ATOM     23  C   UNL     1      20.605  11.624  12.755  0.00  0.00    +0.111 A 
ENDBRANCH  13  15
ENDBRANCH   3  13
BRANCH   4  14
ATOM     14  C   UNL     1      11.587   8.814  17.554  0.00  0.00    +0.164 C 
BRANCH  14  16
ATOM      5  N   UNL     1      10.689   8.492  19.792  0.00  0.00    -0.258 NA
ATOM     16  C   UNL     1      11.651   8.153  18.906  0.00  0.00    +0.059 A 
ATOM     19  C   UNL     1      12.669   7.252  19.172  0.00  0.00    +0.025 A 
ATOM     21  C   UNL     1      12.700   6.659  20.430  0.00  0.00    +0.003 A 
ATOM     22  C   UNL     1      10.751   7.896  21.003  0.00  0.00    +0.111 A 
ATOM     24  C   UNL     1      11.727   6.982  21.369  0.00  0.00    +0.020 A 
ENDBRANCH  14  16
ENDBRANCH   4  14
TORSDOF 4
ENDMDL
