MODEL 1
REMARK VINA RESULT:      -7.0      0.000      0.000
REMARK  Name = 75536595
REMARK  6 active torsions:
REMARK  status: ('A' for Active; 'I' for Inactive)
REMARK    1  A    between atoms: O_5  and  C_11
REMARK    2  A    between atoms: N_7  and  C_9
REMARK    3  A    between atoms: N_7  and  C_10
REMARK    4  A    between atoms: N_8  and  C_19
REMARK    5  A    between atoms: C_14  and  C_19
REMARK    6  A    between atoms: C_20  and  C_21
REMARK                            x       y       z     vdW  Elec       q    Type
REMARK                         _______ _______ _______ _____ _____    ______ ____
ROOT
ATOM      4  O   UNL     1      10.623   7.355  20.939  0.00  0.00    -0.371 OA
ATOM     10  C   UNL     1      11.383   9.387  21.904  0.00  0.00    +0.111 C 
ATOM     11  C   UNL     1      12.473   8.826  21.010  0.00  0.00    +0.164 C 
ATOM     14  C   UNL     1      11.667   7.897  20.113  0.00  0.00    +0.165 C 
ATOM     15  C   UNL     1      10.514   8.160  22.126  0.00  0.00    +0.181 C 
ENDROOT
BRANCH  11   5
ATOM      5  O   UNL     1      13.140   9.829  20.267  0.00  0.00    -0.388 OA
ATOM     26  H   UNL     1      13.826  10.223  20.833  0.00  0.00    +0.210 HD
ENDBRANCH  11   5
BRANCH  10   7
ATOM      7  N   UNL     1      11.882   9.960  23.143  0.00  0.00    -0.306 NA
ATOM     25  H   UNL     1      12.849  10.261  23.029  0.00  0.00    +0.123 HD
BRANCH   7   9
ATOM      2  F   UNL     1       9.976  14.917  24.800  0.00  0.00    -0.206 F 
ATOM      3  F   UNL     1      12.043  14.366  24.411  0.00  0.00    -0.206 F 
ATOM      9  C   UNL     1      11.054  11.088  23.563  0.00  0.00    +0.054 C 
ATOM     12  C   UNL     1      11.458  11.533  24.975  0.00  0.00    +0.024 C 
ATOM     13  C   UNL     1      11.193  12.239  22.558  0.00  0.00    +0.024 C 
ATOM     16  C   UNL     1      10.661  12.758  25.421  0.00  0.00    +0.077 C 
ATOM     17  C   UNL     1      10.396  13.463  23.002  0.00  0.00    +0.077 C 
ATOM     18  C   UNL     1      10.771  13.890  24.412  0.00  0.00    +0.249 C 
ENDBRANCH   7   9
ENDBRANCH  10   7
BRANCH  14  19
ATOM     19  C   UNL     1      12.492   6.767  19.523  0.00  0.00    +0.138 C 
BRANCH  19   8
ATOM      6  O   UNL     1      14.883   7.188  17.988  0.00  0.00    -0.270 OA
ATOM      8  N   UNL     1      13.838   6.788  20.020  0.00  0.00    -0.308 N 
ATOM     20  C   UNL     1      14.942   7.000  19.200  0.00  0.00    +0.251 C 
ATOM     27  H   UNL     1      13.964   6.623  21.013  0.00  0.00    +0.149 HD
BRANCH  20  21
ATOM      1  S   UNL     1      16.539   7.947  21.240  0.00  0.00    -0.092 S 
ATOM     21  C   UNL     1      16.270   6.965  19.865  0.00  0.00    +0.074 A 
ATOM     22  C   UNL     1      17.384   6.226  19.531  0.00  0.00    +0.021 A 
ATOM     23  C   UNL     1      18.472   6.470  20.417  0.00  0.00    +0.008 A 
ATOM     24  C   UNL     1      18.149   7.386  21.394  0.00  0.00    +0.046 A 
ENDBRANCH  20  21
ENDBRANCH  19   8
ENDBRANCH  14  19
TORSDOF 6
ENDMDL
MODEL 2
REMARK VINA RESULT:      -6.6      2.683      3.457
REMARK  Name = 75536595
REMARK  6 active torsions:
REMARK  status: ('A' for Active; 'I' for Inactive)
REMARK    1  A    between atoms: O_5  and  C_11
REMARK    2  A    between atoms: N_7  and  C_9
REMARK    3  A    between atoms: N_7  and  C_10
REMARK    4  A    between atoms: N_8  and  C_19
REMARK    5  A    between atoms: C_14  and  C_19
REMARK    6  A    between atoms: C_20  and  C_21
REMARK                            x       y       z     vdW  Elec       q    Type
REMARK                         _______ _______ _______ _____ _____    ______ ____
ROOT
ATOM      4  O   UNL     1      13.368   8.177  21.659  0.00  0.00    -0.371 OA
ATOM     10  C   UNL     1      11.353   8.981  22.624  0.00  0.00    +0.111 C 
ATOM     11  C   UNL     1      11.014   8.066  21.463  0.00  0.00    +0.164 C 
ATOM     14  C   UNL     1      12.304   7.268  21.332  0.00  0.00    +0.165 C 
ATOM     15  C   UNL     1      12.804   9.319  22.328  0.00  0.00    +0.181 C 
ENDROOT
BRANCH  11   5
ATOM      5  O   UNL     1       9.903   7.232  21.731  0.00  0.00    -0.388 OA
ATOM     26  H   UNL     1       9.101   7.783  21.736  0.00  0.00    +0.210 HD
ENDBRANCH  11   5
BRANCH  10   7
ATOM      7  N   UNL     1      10.503  10.158  22.707  0.00  0.00    -0.306 NA
ATOM     25  H   UNL     1       9.695   9.968  23.299  0.00  0.00    +0.123 HD
BRANCH   7   9
ATOM      2  F   UNL     1      12.047  14.985  25.003  0.00  0.00    -0.206 F 
ATOM      3  F   UNL     1      10.020  14.246  24.733  0.00  0.00    -0.206 F 
ATOM      9  C   UNL     1      11.248  11.300  23.233  0.00  0.00    +0.054 C 
ATOM     12  C   UNL     1      10.867  12.570  22.462  0.00  0.00    +0.024 C 
ATOM     13  C   UNL     1      10.970  11.457  24.733  0.00  0.00    +0.024 C 
ATOM     16  C   UNL     1      11.574  13.799  23.031  0.00  0.00    +0.077 C 
ATOM     17  C   UNL     1      11.678  12.684  25.303  0.00  0.00    +0.077 C 
ATOM     18  C   UNL     1      11.327  13.941  24.523  0.00  0.00    +0.249 C 
ENDBRANCH   7   9
ENDBRANCH  10   7
BRANCH  14  19
ATOM     19  C   UNL     1      12.522   6.702  19.940  0.00  0.00    +0.138 C 
BRANCH  19   8
ATOM      6  O   UNL     1      11.696   7.373  17.273  0.00  0.00    -0.270 OA
ATOM      8  N   UNL     1      13.130   7.668  19.073  0.00  0.00    -0.308 N 
ATOM     20  C   UNL     1      12.661   7.930  17.788  0.00  0.00    +0.251 C 
ATOM     27  H   UNL     1      13.944   8.158  19.428  0.00  0.00    +0.149 HD
BRANCH  20  21
ATOM      1  S   UNL     1      13.630  10.510  17.657  0.00  0.00    -0.092 S 
ATOM     21  C   UNL     1      13.418   8.941  17.006  0.00  0.00    +0.074 A 
ATOM     22  C   UNL     1      14.009   8.810  15.769  0.00  0.00    +0.021 A 
ATOM     23  C   UNL     1      14.646  10.014  15.351  0.00  0.00    +0.008 A 
ATOM     24  C   UNL     1      14.516  11.019  16.283  0.00  0.00    +0.046 A 
ENDBRANCH  20  21
ENDBRANCH  19   8
ENDBRANCH  14  19
TORSDOF 6
ENDMDL
MODEL 3
REMARK VINA RESULT:      -6.5     26.562     28.122
REMARK  Name = 75536595
REMARK  6 active torsions:
REMARK  status: ('A' for Active; 'I' for Inactive)
REMARK    1  A    between atoms: O_5  and  C_11
REMARK    2  A    between atoms: N_7  and  C_9
REMARK    3  A    between atoms: N_7  and  C_10
REMARK    4  A    between atoms: N_8  and  C_19
REMARK    5  A    between atoms: C_14  and  C_19
REMARK    6  A    between atoms: C_20  and  C_21
REMARK                            x       y       z     vdW  Elec       q    Type
REMARK                         _______ _______ _______ _____ _____    ______ ____
ROOT
ATOM      4  O   UNL     1      -1.135 -11.506  15.071  0.00  0.00    -0.371 OA
ATOM     10  C   UNL     1      -3.200 -11.023  16.139  0.00  0.00    +0.111 C 
ATOM     11  C   UNL     1      -3.478 -11.692  14.806  0.00  0.00    +0.164 C 
ATOM     14  C   UNL     1      -2.145 -12.380  14.540  0.00  0.00    +0.165 C 
ATOM     15  C   UNL     1      -1.766 -10.558  15.950  0.00  0.00    +0.181 C 
ENDROOT
BRANCH  11   5
ATOM      5  O   UNL     1      -4.545 -12.618  14.871  0.00  0.00    -0.388 OA
ATOM     26  H   UNL     1      -5.370 -12.149  14.659  0.00  0.00    +0.210 HD
ENDBRANCH  11   5
BRANCH  10   7
ATOM      7  N   UNL     1      -4.112  -9.934  16.446  0.00  0.00    -0.306 NA
ATOM     25  H   UNL     1      -4.705  -9.733  15.642  0.00  0.00    +0.123 HD
BRANCH   7   9
ATOM      2  F   UNL     1      -7.411 -12.413  20.179  0.00  0.00    -0.206 F 
ATOM      3  F   UNL     1      -6.680 -13.249  18.309  0.00  0.00    -0.206 F 
ATOM      9  C   UNL     1      -4.940 -10.263  17.605  0.00  0.00    +0.054 C 
ATOM     12  C   UNL     1      -6.377 -10.555  17.152  0.00  0.00    +0.024 C 
ATOM     13  C   UNL     1      -4.339 -11.460  18.352  0.00  0.00    +0.024 C 
ATOM     16  C   UNL     1      -7.256 -10.972  18.330  0.00  0.00    +0.077 C 
ATOM     17  C   UNL     1      -5.217 -11.877  19.530  0.00  0.00    +0.077 C 
ATOM     18  C   UNL     1      -6.649 -12.138  19.092  0.00  0.00    +0.249 C 
ENDBRANCH   7   9
ENDBRANCH  10   7
BRANCH  14  19
ATOM     19  C   UNL     1      -1.883 -12.631  13.066  0.00  0.00    +0.138 C 
BRANCH  19   8
ATOM      6  O   UNL     1      -1.406 -10.049  11.905  0.00  0.00    -0.270 OA
ATOM      8  N   UNL     1      -2.786 -11.884  12.239  0.00  0.00    -0.308 N 
ATOM     20  C   UNL     1      -2.470 -10.632  11.717  0.00  0.00    +0.251 C 
ATOM     27  H   UNL     1      -3.693 -12.299  12.055  0.00  0.00    +0.149 HD
BRANCH  20  21
ATOM      1  S   UNL     1      -5.168 -10.219  11.312  0.00  0.00    -0.092 S 
ATOM     21  C   UNL     1      -3.524  -9.976  10.902  0.00  0.00    +0.074 A 
ATOM     22  C   UNL     1      -3.381  -9.157   9.803  0.00  0.00    +0.021 A 
ATOM     23  C   UNL     1      -4.639  -8.723   9.294  0.00  0.00    +0.008 A 
ATOM     24  C   UNL     1      -5.694  -9.227  10.020  0.00  0.00    +0.046 A 
ENDBRANCH  20  21
ENDBRANCH  19   8
ENDBRANCH  14  19
TORSDOF 6
ENDMDL
MODEL 4
REMARK VINA RESULT:      -6.5      4.666      7.016
REMARK  Name = 75536595
REMARK  6 active torsions:
REMARK  status: ('A' for Active; 'I' for Inactive)
REMARK    1  A    between atoms: O_5  and  C_11
REMARK    2  A    between atoms: N_7  and  C_9
REMARK    3  A    between atoms: N_7  and  C_10
REMARK    4  A    between atoms: N_8  and  C_19
REMARK    5  A    between atoms: C_14  and  C_19
REMARK    6  A    between atoms: C_20  and  C_21
REMARK                            x       y       z     vdW  Elec       q    Type
REMARK                         _______ _______ _______ _____ _____    ______ ____
ROOT
ATOM      4  O   UNL     1      17.763   6.610  21.624  0.00  0.00    -0.371 OA
ATOM     10  C   UNL     1      16.217   6.237  19.860  0.00  0.00    +0.111 C 
ATOM     11  C   UNL     1      17.622   6.264  19.289  0.00  0.00    +0.164 C 
ATOM     14  C   UNL     1      18.451   5.974  20.533  0.00  0.00    +0.165 C 
ATOM     15  C   UNL     1      16.424   6.922  21.201  0.00  0.00    +0.181 C 
ENDROOT
BRANCH  11   5
ATOM      5  O   UNL     1      17.822   5.289  18.284  0.00  0.00    -0.388 OA
ATOM     26  H   UNL     1      16.997   4.786  18.176  0.00  0.00    +0.210 HD
ENDBRANCH  11   5
BRANCH  10   7
ATOM      7  N   UNL     1      15.236   6.911  19.026  0.00  0.00    -0.306 NA
ATOM     25  H   UNL     1      14.818   6.252  18.370  0.00  0.00    +0.123 HD
BRANCH   7   9
ATOM      2  F   UNL     1      10.548   9.223  20.932  0.00  0.00    -0.206 F 
ATOM      3  F   UNL     1      10.953   8.551  18.904  0.00  0.00    -0.206 F 
ATOM      9  C   UNL     1      14.193   7.525  19.846  0.00  0.00    +0.054 C 
ATOM     12  C   UNL     1      13.850   8.916  19.295  0.00  0.00    +0.024 C 
ATOM     13  C   UNL     1      12.955   6.621  19.877  0.00  0.00    +0.024 C 
ATOM     16  C   UNL     1      12.713   9.561  20.086  0.00  0.00    +0.077 C 
ATOM     17  C   UNL     1      11.817   7.264  20.668  0.00  0.00    +0.077 C 
ATOM     18  C   UNL     1      11.495   8.655  20.146  0.00  0.00    +0.249 C 
ENDBRANCH   7   9
ENDBRANCH  10   7
BRANCH  14  19
ATOM     19  C   UNL     1      19.872   6.502  20.445  0.00  0.00    +0.138 C 
BRANCH  19   8
ATOM      6  O   UNL     1      22.125   6.019  22.158  0.00  0.00    -0.270 OA
ATOM      8  N   UNL     1      20.820   5.432  20.331  0.00  0.00    -0.308 N 
ATOM     20  C   UNL     1      21.888   5.274  21.211  0.00  0.00    +0.251 C 
ATOM     27  H   UNL     1      20.694   4.785  19.560  0.00  0.00    +0.149 HD
BRANCH  20  21
ATOM      1  S   UNL     1      24.276   4.414  20.129  0.00  0.00    -0.092 S 
ATOM     21  C   UNL     1      22.796   4.130  20.941  0.00  0.00    +0.074 A 
ATOM     22  C   UNL     1      22.627   2.800  21.257  0.00  0.00    +0.021 A 
ATOM     23  C   UNL     1      23.728   2.004  20.828  0.00  0.00    +0.008 A 
ATOM     24  C   UNL     1      24.696   2.756  20.199  0.00  0.00    +0.046 A 
ENDBRANCH  20  21
ENDBRANCH  19   8
ENDBRANCH  14  19
TORSDOF 6
ENDMDL
MODEL 5
REMARK VINA RESULT:      -6.4      4.357      8.125
REMARK  Name = 75536595
REMARK  6 active torsions:
REMARK  status: ('A' for Active; 'I' for Inactive)
REMARK    1  A    between atoms: O_5  and  C_11
REMARK    2  A    between atoms: N_7  and  C_9
REMARK    3  A    between atoms: N_7  and  C_10
REMARK    4  A    between atoms: N_8  and  C_19
REMARK    5  A    between atoms: C_14  and  C_19
REMARK    6  A    between atoms: C_20  and  C_21
REMARK                            x       y       z     vdW  Elec       q    Type
REMARK                         _______ _______ _______ _____ _____    ______ ____
ROOT
ATOM      4  O   UNL     1      13.326   8.378  18.401  0.00  0.00    -0.371 OA
ATOM     10  C   UNL     1      15.273   7.757  19.610  0.00  0.00    +0.111 C 
ATOM     11  C   UNL     1      14.051   7.475  20.464  0.00  0.00    +0.164 C 
ATOM     14  C   UNL     1      12.961   7.413  19.402  0.00  0.00    +0.165 C 
ATOM     15  C   UNL     1      14.709   8.728  18.586  0.00  0.00    +0.181 C 
ENDROOT
BRANCH  11   5
ATOM      5  O   UNL     1      14.154   6.262  21.184  0.00  0.00    -0.388 OA
ATOM     26  H   UNL     1      15.011   6.252  21.644  0.00  0.00    +0.210 HD
ENDBRANCH  11   5
BRANCH  10   7
ATOM      7  N   UNL     1      16.392   8.308  20.358  0.00  0.00    -0.306 NA
ATOM     25  H   UNL     1      16.053   8.843  21.157  0.00  0.00    +0.123 HD
BRANCH   7   9
ATOM      2  F   UNL     1      20.741   4.976  21.326  0.00  0.00    -0.206 F 
ATOM      3  F   UNL     1      20.712   6.782  20.115  0.00  0.00    -0.206 F 
ATOM      9  C   UNL     1      17.285   7.245  20.813  0.00  0.00    +0.054 C 
ATOM     12  C   UNL     1      17.826   6.468  19.605  0.00  0.00    +0.024 C 
ATOM     13  C   UNL     1      18.427   7.844  21.643  0.00  0.00    +0.024 C 
ATOM     16  C   UNL     1      18.821   5.392  20.038  0.00  0.00    +0.077 C 
ATOM     17  C   UNL     1      19.422   6.769  22.077  0.00  0.00    +0.077 C 
ATOM     18  C   UNL     1      19.937   5.976  20.887  0.00  0.00    +0.249 C 
ENDBRANCH   7   9
ENDBRANCH  10   7
BRANCH  14  19
ATOM     19  C   UNL     1      11.578   7.733  19.942  0.00  0.00    +0.138 C 
BRANCH  19   8
ATOM      6  O   UNL     1      11.164   8.400  22.704  0.00  0.00    -0.270 OA
ATOM      8  N   UNL     1      11.530   9.051  20.507  0.00  0.00    -0.308 N 
ATOM     20  C   UNL     1      11.323   9.282  21.864  0.00  0.00    +0.251 C 
ATOM     27  H   UNL     1      11.639   9.830  19.868  0.00  0.00    +0.149 HD
BRANCH  20  21
ATOM      1  S   UNL     1      10.942  11.076  23.926  0.00  0.00    -0.092 S 
ATOM     21  C   UNL     1      11.273  10.705  22.288  0.00  0.00    +0.074 A 
ATOM     22  C   UNL     1      11.461  11.839  21.528  0.00  0.00    +0.021 A 
ATOM     23  C   UNL     1      11.332  13.028  22.302  0.00  0.00    +0.008 A 
ATOM     24  C   UNL     1      11.049  12.758  23.622  0.00  0.00    +0.046 A 
ENDBRANCH  20  21
ENDBRANCH  19   8
ENDBRANCH  14  19
TORSDOF 6
ENDMDL
MODEL 6
REMARK VINA RESULT:      -6.3      1.648      2.249
REMARK  Name = 75536595
REMARK  6 active torsions:
REMARK  status: ('A' for Active; 'I' for Inactive)
REMARK    1  A    between atoms: O_5  and  C_11
REMARK    2  A    between atoms: N_7  and  C_9
REMARK    3  A    between atoms: N_7  and  C_10
REMARK    4  A    between atoms: N_8  and  C_19
REMARK    5  A    between atoms: C_14  and  C_19
REMARK    6  A    between atoms: C_20  and  C_21
REMARK                            x       y       z     vdW  Elec       q    Type
REMARK                         _______ _______ _______ _____ _____    ______ ____
ROOT
ATOM      4  O   UNL     1      12.911   7.068  20.999  0.00  0.00    -0.371 OA
ATOM     10  C   UNL     1      10.871   8.254  21.261  0.00  0.00    +0.111 C 
ATOM     11  C   UNL     1      11.407   8.497  19.863  0.00  0.00    +0.164 C 
ATOM     14  C   UNL     1      12.347   7.310  19.699  0.00  0.00    +0.165 C 
ATOM     15  C   UNL     1      12.114   7.756  21.979  0.00  0.00    +0.181 C 
ENDROOT
BRANCH  11   5
ATOM      5  O   UNL     1      10.390   8.503  18.880  0.00  0.00    -0.388 OA
ATOM     26  H   UNL     1      10.500   9.297  18.330  0.00  0.00    +0.210 HD
ENDBRANCH  11   5
BRANCH  10   7
ATOM      7  N   UNL     1      10.296   9.438  21.879  0.00  0.00    -0.306 NA
ATOM     25  H   UNL     1       9.646   9.170  22.617  0.00  0.00    +0.123 HD
BRANCH   7   9
ATOM      2  F   UNL     1      13.222  13.634  24.067  0.00  0.00    -0.206 F 
ATOM      3  F   UNL     1      11.098  13.614  23.600  0.00  0.00    -0.206 F 
ATOM      9  C   UNL     1      11.344  10.298  22.425  0.00  0.00    +0.054 C 
ATOM     12  C   UNL     1      11.506  11.544  21.543  0.00  0.00    +0.024 C 
ATOM     13  C   UNL     1      11.002  10.682  23.870  0.00  0.00    +0.024 C 
ATOM     16  C   UNL     1      12.545  12.502  22.123  0.00  0.00    +0.077 C 
ATOM     17  C   UNL     1      12.041  11.639  24.450  0.00  0.00    +0.077 C 
ATOM     18  C   UNL     1      12.228  12.861  23.565  0.00  0.00    +0.249 C 
ENDBRANCH   7   9
ENDBRANCH  10   7
BRANCH  14  19
ATOM     19  C   UNL     1      13.458   7.557  18.695  0.00  0.00    +0.138 C 
BRANCH  19   8
ATOM      6  O   UNL     1      15.545   9.170  19.830  0.00  0.00    -0.270 OA
ATOM      8  N   UNL     1      14.723   7.096  19.191  0.00  0.00    -0.308 N 
ATOM     20  C   UNL     1      15.680   7.954  19.727  0.00  0.00    +0.251 C 
ATOM     27  H   UNL     1      14.909   6.102  19.124  0.00  0.00    +0.149 HD
BRANCH  20  21
ATOM      1  S   UNL     1      17.551   5.967  19.320  0.00  0.00    -0.092 S 
ATOM     21  C   UNL     1      16.949   7.324  20.173  0.00  0.00    +0.074 A 
ATOM     22  C   UNL     1      17.765   7.676  21.226  0.00  0.00    +0.021 A 
ATOM     23  C   UNL     1      18.899   6.822  21.332  0.00  0.00    +0.008 A 
ATOM     24  C   UNL     1      18.907   5.848  20.358  0.00  0.00    +0.046 A 
ENDBRANCH  20  21
ENDBRANCH  19   8
ENDBRANCH  14  19
TORSDOF 6
ENDMDL
MODEL 7
REMARK VINA RESULT:      -6.2     27.032     29.348
REMARK  Name = 75536595
REMARK  6 active torsions:
REMARK  status: ('A' for Active; 'I' for Inactive)
REMARK    1  A    between atoms: O_5  and  C_11
REMARK    2  A    between atoms: N_7  and  C_9
REMARK    3  A    between atoms: N_7  and  C_10
REMARK    4  A    between atoms: N_8  and  C_19
REMARK    5  A    between atoms: C_14  and  C_19
REMARK    6  A    between atoms: C_20  and  C_21
REMARK                            x       y       z     vdW  Elec       q    Type
REMARK                         _______ _______ _______ _____ _____    ______ ____
ROOT
ATOM      4  O   UNL     1     -17.854   5.432  24.993  0.00  0.00    -0.371 OA
ATOM     10  C   UNL     1     -16.604   3.754  26.116  0.00  0.00    +0.111 C 
ATOM     11  C   UNL     1     -16.081   3.894  24.699  0.00  0.00    +0.164 C 
ATOM     14  C   UNL     1     -16.583   5.286  24.338  0.00  0.00    +0.165 C 
ATOM     15  C   UNL     1     -17.969   4.412  26.000  0.00  0.00    +0.181 C 
ENDROOT
BRANCH  11   5
ATOM      5  O   UNL     1     -14.671   3.806  24.625  0.00  0.00    -0.388 OA
ATOM     26  H   UNL     1     -14.292   4.554  25.117  0.00  0.00    +0.210 HD
ENDBRANCH  11   5
BRANCH  10   7
ATOM      7  N   UNL     1     -16.676   2.377  26.578  0.00  0.00    -0.306 NA
ATOM     25  H   UNL     1     -15.961   1.813  26.119  0.00  0.00    +0.123 HD
BRANCH   7   9
ATOM      2  F   UNL     1     -14.726   1.754  31.751  0.00  0.00    -0.206 F 
ATOM      3  F   UNL     1     -13.631   1.485  29.892  0.00  0.00    -0.206 F 
ATOM      9  C   UNL     1     -16.510   2.308  28.028  0.00  0.00    +0.054 C 
ATOM     12  C   UNL     1     -16.123   0.881  28.440  0.00  0.00    +0.024 C 
ATOM     13  C   UNL     1     -15.452   3.322  28.481  0.00  0.00    +0.024 C 
ATOM     16  C   UNL     1     -15.872   0.786  29.944  0.00  0.00    +0.077 C 
ATOM     17  C   UNL     1     -15.201   3.228  29.985  0.00  0.00    +0.077 C 
ATOM     18  C   UNL     1     -14.848   1.810  30.402  0.00  0.00    +0.249 C 
ENDBRANCH   7   9
ENDBRANCH  10   7
BRANCH  14  19
ATOM     19  C   UNL     1     -16.749   5.495  22.843  0.00  0.00    +0.138 C 
BRANCH  19   8
ATOM      6  O   UNL     1     -14.278   4.491  21.779  0.00  0.00    -0.270 OA
ATOM      8  N   UNL     1     -15.671   6.272  22.301  0.00  0.00    -0.308 N 
ATOM     20  C   UNL     1     -14.504   5.698  21.805  0.00  0.00    +0.251 C 
ATOM     27  H   UNL     1     -15.783   7.280  22.305  0.00  0.00    +0.149 HD
BRANCH  20  21
ATOM      1  S   UNL     1     -13.904   8.270  21.006  0.00  0.00    -0.092 S 
ATOM     21  C   UNL     1     -13.472   6.640  21.303  0.00  0.00    +0.074 A 
ATOM     22  C   UNL     1     -12.145   6.398  21.020  0.00  0.00    +0.021 A 
ATOM     23  C   UNL     1     -11.476   7.566  20.555  0.00  0.00    +0.008 A 
ATOM     24  C   UNL     1     -12.315   8.656  20.499  0.00  0.00    +0.046 A 
ENDBRANCH  20  21
ENDBRANCH  19   8
ENDBRANCH  14  19
TORSDOF 6
ENDMDL
MODEL 8
REMARK VINA RESULT:      -6.2      5.189      9.402
REMARK  Name = 75536595
REMARK  6 active torsions:
REMARK  status: ('A' for Active; 'I' for Inactive)
REMARK    1  A    between atoms: O_5  and  C_11
REMARK    2  A    between atoms: N_7  and  C_9
REMARK    3  A    between atoms: N_7  and  C_10
REMARK    4  A    between atoms: N_8  and  C_19
REMARK    5  A    between atoms: C_14  and  C_19
REMARK    6  A    between atoms: C_20  and  C_21
REMARK                            x       y       z     vdW  Elec       q    Type
REMARK                         _______ _______ _______ _____ _____    ______ ____
ROOT
ATOM      4  O   UNL     1      16.552   5.636  18.630  0.00  0.00    -0.371 OA
ATOM     10  C   UNL     1      18.071   6.182  20.372  0.00  0.00    +0.111 C 
ATOM     11  C   UNL     1      16.968   7.223  20.333  0.00  0.00    +0.164 C 
ATOM     14  C   UNL     1      15.876   6.466  19.589  0.00  0.00    +0.165 C 
ATOM     15  C   UNL     1      17.942   5.554  18.994  0.00  0.00    +0.181 C 
ENDROOT
BRANCH  11   5
ATOM      5  O   UNL     1      16.547   7.622  21.623  0.00  0.00    -0.388 OA
ATOM     26  H   UNL     1      16.021   8.435  21.536  0.00  0.00    +0.210 HD
ENDBRANCH  11   5
BRANCH  10   7
ATOM      7  N   UNL     1      19.390   6.739  20.619  0.00  0.00    -0.306 NA
ATOM     25  H   UNL     1      19.310   7.673  21.019  0.00  0.00    +0.123 HD
BRANCH   7   9
ATOM      2  F   UNL     1      23.405   4.018  23.345  0.00  0.00    -0.206 F 
ATOM      3  F   UNL     1      23.653   5.464  21.739  0.00  0.00    -0.206 F 
ATOM      9  C   UNL     1      20.157   5.877  21.516  0.00  0.00    +0.054 C 
ATOM     12  C   UNL     1      20.963   4.860  20.698  0.00  0.00    +0.024 C 
ATOM     13  C   UNL     1      21.076   6.731  22.400  0.00  0.00    +0.024 C 
ATOM     16  C   UNL     1      21.833   3.986  21.600  0.00  0.00    +0.077 C 
ATOM     17  C   UNL     1      21.946   5.858  23.302  0.00  0.00    +0.077 C 
ATOM     18  C   UNL     1      22.723   4.828  22.499  0.00  0.00    +0.249 C 
ENDBRANCH   7   9
ENDBRANCH  10   7
BRANCH  14  19
ATOM     19  C   UNL     1      14.893   7.377  18.876  0.00  0.00    +0.138 C 
BRANCH  19   8
ATOM      6  O   UNL     1      12.031   7.324  19.110  0.00  0.00    -0.270 OA
ATOM      8  N   UNL     1      14.096   8.119  19.810  0.00  0.00    -0.308 N 
ATOM     20  C   UNL     1      12.707   8.031  19.852  0.00  0.00    +0.251 C 
ATOM     27  H   UNL     1      14.588   8.737  20.446  0.00  0.00    +0.149 HD
BRANCH  20  21
ATOM      1  S   UNL     1      11.084   8.140  22.082  0.00  0.00    -0.092 S 
ATOM     21  C   UNL     1      12.027   8.883  20.861  0.00  0.00    +0.074 A 
ATOM     22  C   UNL     1      12.032  10.256  20.976  0.00  0.00    +0.021 A 
ATOM     23  C   UNL     1      11.253  10.702  22.082  0.00  0.00    +0.008 A 
ATOM     24  C   UNL     1      10.681   9.655  22.769  0.00  0.00    +0.046 A 
ENDBRANCH  20  21
ENDBRANCH  19   8
ENDBRANCH  14  19
TORSDOF 6
ENDMDL
MODEL 9
REMARK VINA RESULT:      -6.1      4.521      8.517
REMARK  Name = 75536595
REMARK  6 active torsions:
REMARK  status: ('A' for Active; 'I' for Inactive)
REMARK    1  A    between atoms: O_5  and  C_11
REMARK    2  A    between atoms: N_7  and  C_9
REMARK    3  A    between atoms: N_7  and  C_10
REMARK    4  A    between atoms: N_8  and  C_19
REMARK    5  A    between atoms: C_14  and  C_19
REMARK    6  A    between atoms: C_20  and  C_21
REMARK                            x       y       z     vdW  Elec       q    Type
REMARK                         _______ _______ _______ _____ _____    ______ ____
ROOT
ATOM      4  O   UNL     1      15.989   6.179  19.136  0.00  0.00    -0.371 OA
ATOM     10  C   UNL     1      16.992   6.705  21.223  0.00  0.00    +0.111 C 
ATOM     11  C   UNL     1      15.580   7.259  21.200  0.00  0.00    +0.164 C 
ATOM     14  C   UNL     1      14.951   6.411  20.102  0.00  0.00    +0.165 C 
ATOM     15  C   UNL     1      17.256   6.490  19.742  0.00  0.00    +0.181 C 
ENDROOT
BRANCH  11   5
ATOM      5  O   UNL     1      14.911   7.101  22.436  0.00  0.00    -0.388 OA
ATOM     26  H   UNL     1      15.096   6.208  22.773  0.00  0.00    +0.210 HD
ENDBRANCH  11   5
BRANCH  10   7
ATOM      7  N   UNL     1      17.958   7.594  21.847  0.00  0.00    -0.306 NA
ATOM     25  H   UNL     1      17.896   7.525  22.862  0.00  0.00    +0.123 HD
BRANCH   7   9
ATOM      2  F   UNL     1      23.470   6.986  21.402  0.00  0.00    -0.206 F 
ATOM      3  F   UNL     1      22.375   7.891  23.048  0.00  0.00    -0.206 F 
ATOM      9  C   UNL     1      19.315   7.278  21.407  0.00  0.00    +0.054 C 
ATOM     12  C   UNL     1      20.130   8.569  21.264  0.00  0.00    +0.024 C 
ATOM     13  C   UNL     1      19.973   6.313  22.401  0.00  0.00    +0.024 C 
ATOM     16  C   UNL     1      21.577   8.272  20.873  0.00  0.00    +0.077 C 
ATOM     17  C   UNL     1      21.419   6.014  22.010  0.00  0.00    +0.077 C 
ATOM     18  C   UNL     1      22.224   7.293  21.838  0.00  0.00    +0.249 C 
ENDBRANCH   7   9
ENDBRANCH  10   7
BRANCH  14  19
ATOM     19  C   UNL     1      13.766   7.082  19.431  0.00  0.00    +0.138 C 
BRANCH  19   8
ATOM      6  O   UNL     1      11.092   7.661  20.303  0.00  0.00    -0.270 OA
ATOM      8  N   UNL     1      13.335   8.238  20.164  0.00  0.00    -0.308 N 
ATOM     20  C   UNL     1      12.011   8.437  20.547  0.00  0.00    +0.251 C 
ATOM     27  H   UNL     1      14.041   8.930  20.387  0.00  0.00    +0.149 HD
BRANCH  20  21
ATOM      1  S   UNL     1      10.937   9.619  22.797  0.00  0.00    -0.092 S 
ATOM     21  C   UNL     1      11.723   9.697  21.278  0.00  0.00    +0.074 A 
ATOM     22  C   UNL     1      12.001  10.994  20.906  0.00  0.00    +0.021 A 
ATOM     23  C   UNL     1      11.565  11.935  21.882  0.00  0.00    +0.008 A 
ATOM     24  C   UNL     1      10.968  11.323  22.962  0.00  0.00    +0.046 A 
ENDBRANCH  20  21
ENDBRANCH  19   8
ENDBRANCH  14  19
TORSDOF 6
ENDMDL
MODEL 10
REMARK VINA RESULT:      -6.1     26.786     28.671
REMARK  Name = 75536595
REMARK  6 active torsions:
REMARK  status: ('A' for Active; 'I' for Inactive)
REMARK    1  A    between atoms: O_5  and  C_11
REMARK    2  A    between atoms: N_7  and  C_9
REMARK    3  A    between atoms: N_7  and  C_10
REMARK    4  A    between atoms: N_8  and  C_19
REMARK    5  A    between atoms: C_14  and  C_19
REMARK    6  A    between atoms: C_20  and  C_21
REMARK                            x       y       z     vdW  Elec       q    Type
REMARK                         _______ _______ _______ _____ _____    ______ ____
ROOT
ATOM      4  O   UNL     1      -1.932 -10.831  16.530  0.00  0.00    -0.371 OA
ATOM     10  C   UNL     1      -2.455 -11.187  14.241  0.00  0.00    +0.111 C 
ATOM     11  C   UNL     1      -3.689 -11.462  15.079  0.00  0.00    +0.164 C 
ATOM     14  C   UNL     1      -3.353 -10.702  16.355  0.00  0.00    +0.165 C 
ATOM     15  C   UNL     1      -1.356 -11.271  15.288  0.00  0.00    +0.181 C 
ENDROOT
BRANCH  11   5
ATOM      5  O   UNL     1      -4.876 -10.981  14.477  0.00  0.00    -0.388 OA
ATOM     26  H   UNL     1      -4.866 -10.010  14.513  0.00  0.00    +0.210 HD
ENDBRANCH  11   5
BRANCH  10   7
ATOM      7  N   UNL     1      -2.269 -12.128  13.149  0.00  0.00    -0.306 NA
ATOM     25  H   UNL     1      -2.961 -12.875  13.206  0.00  0.00    +0.123 HD
BRANCH   7   9
ATOM      2  F   UNL     1      -3.618  -8.775   8.919  0.00  0.00    -0.206 F 
ATOM      3  F   UNL     1      -4.430  -8.740  10.936  0.00  0.00    -0.206 F 
ATOM      9  C   UNL     1      -2.372 -11.451  11.858  0.00  0.00    +0.054 C 
ATOM     12  C   UNL     1      -3.797 -11.594  11.307  0.00  0.00    +0.024 C 
ATOM     13  C   UNL     1      -1.981  -9.976  12.011  0.00  0.00    +0.024 C 
ATOM     16  C   UNL     1      -3.961 -10.837   9.990  0.00  0.00    +0.077 C 
ATOM     17  C   UNL     1      -2.145  -9.219  10.695  0.00  0.00    +0.077 C 
ATOM     18  C   UNL     1      -3.546  -9.382  10.129  0.00  0.00    +0.249 C 
ENDBRANCH   7   9
ENDBRANCH  10   7
BRANCH  14  19
ATOM     19  C   UNL     1      -4.072 -11.238  17.580  0.00  0.00    +0.138 C 
BRANCH  19   8
ATOM      6  O   UNL     1      -5.842 -11.176  19.840  0.00  0.00    -0.270 OA
ATOM      8  N   UNL     1      -5.460 -10.877  17.571  0.00  0.00    -0.308 N 
ATOM     20  C   UNL     1      -6.246 -10.875  18.721  0.00  0.00    +0.251 C 
ATOM     27  H   UNL     1      -5.866 -10.631  16.675  0.00  0.00    +0.149 HD
BRANCH  20  21
ATOM      1  S   UNL     1      -8.091  -9.374  17.322  0.00  0.00    -0.092 S 
ATOM     21  C   UNL     1      -7.672 -10.502  18.540  0.00  0.00    +0.074 A 
ATOM     22  C   UNL     1      -8.775 -10.943  19.238  0.00  0.00    +0.021 A 
ATOM     23  C   UNL     1      -9.980 -10.347  18.764  0.00  0.00    +0.008 A 
ATOM     24  C   UNL     1      -9.751  -9.474  17.724  0.00  0.00    +0.046 A 
ENDBRANCH  20  21
ENDBRANCH  19   8
ENDBRANCH  14  19
TORSDOF 6
ENDMDL
