REMARK  Name = 75536910
REMARK  5 active torsions:
REMARK  status: ('A' for Active; 'I' for Inactive)
REMARK    1  A    between atoms: O_2  and  C_5
REMARK    2  A    between atoms: O_2  and  C_13
REMARK    3  A    between atoms: N_3  and  C_7
REMARK    4  A    between atoms: C_7  and  C_10
REMARK    5  A    between atoms: C_14  and  C_17
REMARK                            x       y       z     vdW  Elec       q    Type
REMARK                         _______ _______ _______ _____ _____    ______ ____
ROOT
ATOM      1  O   UNL     1       4.734  -1.024  -1.332  0.00  0.00    -0.375 OA
ATOM      3  N   UNL     1       2.405  -2.135  -0.058  0.00  0.00    -0.292 NA
ATOM      4  C   UNL     1       2.644  -0.997   0.829  0.00  0.00    +0.131 C 
ATOM      5  C   UNL     1       3.108   0.231   0.034  0.00  0.00    +0.213 C 
ATOM      6  C   UNL     1       3.594  -2.944  -0.344  0.00  0.00    +0.113 C 
ATOM      8  C   UNL     1       4.517   0.143  -0.548  0.00  0.00    +0.205 C 
ATOM      9  C   UNL     1       4.907  -2.187  -0.531  0.00  0.00    +0.175 C 
ENDROOT
BRANCH   5   2
ATOM      2  O   UNL     1       3.046   1.365   0.900  0.00  0.00    -0.485 OA
BRANCH   2  13
ATOM     13  C   UNL     1       2.174   2.357   0.547  0.00  0.00    +0.121 A 
ATOM     18  C   UNL     1       0.812   2.081   0.434  0.00  0.00    +0.045 A 
ATOM     19  C   UNL     1       2.648   3.646   0.299  0.00  0.00    +0.045 A 
ATOM     20  C   UNL     1      -0.078   3.093   0.073  0.00  0.00    +0.004 A 
ATOM     21  C   UNL     1       1.759   4.658  -0.062  0.00  0.00    +0.004 A 
ATOM     24  C   UNL     1       0.396   4.382  -0.175  0.00  0.00    +0.000 A 
ENDBRANCH   2  13
ENDBRANCH   5   2
BRANCH   3   7
ATOM      7  C   UNL     1       1.327  -2.988   0.445  0.00  0.00    +0.119 C 
BRANCH   7  10
ATOM     10  C   UNL     1      -0.021  -2.334   0.299  0.00  0.00    -0.033 A 
ATOM     11  C   UNL     1      -0.475  -1.948  -0.962  0.00  0.00    +0.005 A 
ATOM     12  C   UNL     1      -0.815  -2.114   1.424  0.00  0.00    +0.005 A 
ATOM     14  C   UNL     1      -2.518  -1.121   0.028  0.00  0.00    -0.018 A 
ATOM     15  C   UNL     1      -1.724  -1.341  -1.098  0.00  0.00    +0.009 A 
ATOM     16  C   UNL     1      -2.064  -1.507   1.289  0.00  0.00    +0.009 A 
BRANCH  14  17
ATOM     17  C   UNL     1      -3.814  -0.492  -0.113  0.00  0.00    -0.018 A 
ATOM     22  C   UNL     1      -4.036   0.425  -1.140  0.00  0.00    +0.008 A 
ATOM     23  C   UNL     1      -4.841  -0.804   0.778  0.00  0.00    +0.008 A 
ATOM     25  C   UNL     1      -5.285   1.031  -1.276  0.00  0.00    +0.001 A 
ATOM     26  C   UNL     1      -6.090  -0.198   0.642  0.00  0.00    +0.001 A 
ATOM     27  C   UNL     1      -6.312   0.719  -0.385  0.00  0.00    +0.000 A 
ENDBRANCH  14  17
ENDBRANCH   7  10
ENDBRANCH   3   7
TORSDOF 5
