REMARK  Name = 11879614
REMARK  8 active torsions:
REMARK  status: ('A' for Active; 'I' for Inactive)
REMARK    1  A    between atoms: S_1  and  N_8
REMARK    2  A    between atoms: S_1  and  C_21
REMARK    3  A    between atoms: O_4  and  C_20
REMARK    4  A    between atoms: O_4  and  C_24
REMARK    5  A    between atoms: N_8  and  C_16
REMARK    6  A    between atoms: N_9  and  C_17
REMARK    7  A    between atoms: N_13  and  C_29
REMARK    8  A    between atoms: C_28  and  C_37
REMARK                            x       y       z     vdW  Elec       q    Type
REMARK                         _______ _______ _______ _____ _____    ______ ____
ROOT
ATOM      2  O   UNL     1      -4.539   1.065   0.656  0.00  0.00    -0.370 OA
ATOM      3  O   UNL     1      -3.066   0.071  -1.894  0.00  0.00    -0.370 OA
ATOM     14  C   UNL     1      -2.881  -0.190  -0.497  0.00  0.00    +0.170 C 
ATOM     15  C   UNL     1      -3.168   1.115   0.218  0.00  0.00    +0.175 C 
ATOM     16  C   UNL     1      -3.949  -1.133  -0.005  0.00  0.00    +0.133 C 
ATOM     17  C   UNL     1      -2.999   2.197  -0.843  0.00  0.00    +0.171 C 
ATOM     18  C   UNL     1      -5.107  -0.198   0.281  0.00  0.00    +0.183 C 
ATOM     19  C   UNL     1      -2.691   1.432  -2.128  0.00  0.00    +0.190 C 
ENDROOT
BRANCH  17   9
ATOM      9  N   UNL     1      -1.995   3.207  -0.514  0.00  0.00    -0.187 N 
ATOM     10  N   UNL     1      -2.325   4.499  -0.428  0.00  0.00    -0.041 NA
ATOM     11  N   UNL     1      -0.153   4.218  -0.012  0.00  0.00    -0.071 NA
ATOM     12  N   UNL     1      -1.191   5.116  -0.119  0.00  0.00    -0.020 NA
ATOM     20  C   UNL     1      -0.676   3.040  -0.261  0.00  0.00    +0.342 A 
BRANCH  20   4
ATOM      4  O   UNL     1      -0.044   1.881  -0.269  0.00  0.00    -0.423 OA
BRANCH   4  24
ATOM     24  C   UNL     1       1.063   1.628   0.530  0.00  0.00    +0.134 A 
ATOM     27  C   UNL     1       2.162   1.001  -0.025  0.00  0.00    +0.069 A 
ATOM     29  C   UNL     1       3.274   0.748   0.777  0.00  0.00    +0.033 A 
ATOM     32  C   UNL     1       1.033   2.011   1.857  0.00  0.00    +0.046 A 
ATOM     35  C   UNL     1       3.266   1.127   2.120  0.00  0.00    +0.023 A 
ATOM     36  C   UNL     1       2.146   1.758   2.660  0.00  0.00    +0.005 A 
BRANCH  29  13
ATOM      7  O   UNL     1       6.804  -0.943  -0.759  0.00  0.00    -0.377 OA
ATOM     13  N   UNL     1       4.398   0.115   0.236  0.00  0.00    -0.325 N 
ATOM     30  C   UNL     1       5.248  -0.723   1.089  0.00  0.00    +0.133 C 
ATOM     31  C   UNL     1       5.088   0.766  -0.886  0.00  0.00    +0.133 C 
ATOM     33  C   UNL     1       6.070  -1.671   0.225  0.00  0.00    +0.178 C 
ATOM     34  C   UNL     1       5.917  -0.263  -1.646  0.00  0.00    +0.178 C 
ENDBRANCH  29  13
ENDBRANCH   4  24
ENDBRANCH  20   4
ENDBRANCH  17   9
BRANCH  16   8
ATOM      8  N   UNL     1      -3.510  -1.786   1.251  0.00  0.00    -0.182 NA
ATOM     38  H   UNL     1      -3.300  -1.162   2.041  0.00  0.00    +0.148 HD
BRANCH   8   1
ATOM      1  S   UNL     1      -2.779  -3.317   1.196  0.00  0.00    +0.059 S 
ATOM      5  O   UNL     1      -3.642  -4.239   0.482  0.00  0.00    -0.153 OA
ATOM      6  O   UNL     1      -2.293  -3.650   2.521  0.00  0.00    -0.153 OA
BRANCH   1  21
ATOM     21  C   UNL     1      -1.360  -3.009   0.189  0.00  0.00    +0.105 A 
ATOM     22  C   UNL     1      -1.459  -3.162  -1.183  0.00  0.00    +0.029 A 
ATOM     23  C   UNL     1      -0.175  -2.620   0.790  0.00  0.00    +0.029 A 
ATOM     25  C   UNL     1      -0.339  -2.919  -1.978  0.00  0.00    +0.005 A 
ATOM     26  C   UNL     1       0.945  -2.377  -0.005  0.00  0.00    +0.005 A 
ATOM     28  C   UNL     1       0.863  -2.527  -1.389  0.00  0.00    -0.050 A 
ATOM     37  C   UNL     1       2.061  -2.268  -2.239  0.00  0.00    +0.044 C 
ENDBRANCH   1  21
ENDBRANCH   8   1
ENDBRANCH  16   8
TORSDOF 7
