MODEL 1
REMARK VINA RESULT:      -7.1      0.000      0.000
REMARK  Name = 45360601
REMARK  13 active torsions:
REMARK  status: ('A' for Active; 'I' for Inactive)
REMARK    1  A    between atoms: O_2  and  C_12
REMARK    2  A    between atoms: O_3  and  C_13
REMARK    3  A    between atoms: O_5  and  C_24
REMARK    4  A    between atoms: O_5  and  C_35
REMARK    5  A    between atoms: N_8  and  C_22
REMARK    6  A    between atoms: N_9  and  C_16
REMARK    7  A    between atoms: N_10  and  C_34
REMARK    8  A    between atoms: N_10  and  C_36
REMARK    9  A    between atoms: N_10  and  C_37
REMARK   10  A    between atoms: C_11  and  C_15
REMARK   11  A    between atoms: C_14  and  C_16
REMARK   12  A    between atoms: C_15  and  C_17
REMARK   13  A    between atoms: C_23  and  C_26
REMARK                            x       y       z     vdW  Elec       q    Type
REMARK                         _______ _______ _______ _____ _____    ______ ____
ROOT
ATOM      1  O   UNL     1      -3.961 -11.531  18.410  0.00  0.00    -0.366 OA
ATOM     11  C   UNL     1      -5.271 -11.945  18.860  0.00  0.00    +0.159 C 
ATOM     12  C   UNL     1      -5.924 -12.659  17.682  0.00  0.00    +0.175 C 
ATOM     13  C   UNL     1      -5.265 -11.981  16.498  0.00  0.00    +0.176 C 
ATOM     14  C   UNL     1      -3.842 -11.803  17.003  0.00  0.00    +0.167 C 
ENDROOT
BRANCH  12   2
ATOM      2  O   UNL     1      -5.551 -14.036  17.735  0.00  0.00    -0.387 OA
ATOM     38  H   UNL     1      -6.327 -14.535  18.041  0.00  0.00    +0.210 HD
ENDBRANCH  12   2
BRANCH  13   3
ATOM      3  O   UNL     1      -5.314 -12.750  15.315  0.00  0.00    -0.387 OA
ATOM     39  H   UNL     1      -4.498 -13.277  15.276  0.00  0.00    +0.210 HD
ENDBRANCH  13   3
BRANCH  11  15
ATOM     15  C   UNL     1      -6.030 -10.699  19.297  0.00  0.00    +0.130 C 
BRANCH  15  17
ATOM      4  O   UNL     1      -7.998 -11.776  20.076  0.00  0.00    -0.276 OA
ATOM      7  N   UNL     1      -8.257 -10.267  18.328  0.00  0.00    -0.298 N 
ATOM      8  N   UNL     1      -9.920  -8.707  16.544  0.00  0.00    -0.324 N 
ATOM     17  C   UNL     1      -7.515 -10.968  19.278  0.00  0.00    +0.218 C 
ATOM     18  C   UNL     1      -7.682  -9.308  17.382  0.00  0.00    +0.126 C 
ATOM     19  C   UNL     1      -9.701 -10.469  18.250  0.00  0.00    +0.126 C 
ATOM     20  C   UNL     1      -8.562  -9.090  16.151  0.00  0.00    +0.124 C 
ATOM     21  C   UNL     1     -10.434  -9.197  17.827  0.00  0.00    +0.124 C 
BRANCH   8  22
ATOM     22  C   UNL     1     -10.718  -7.927  15.710  0.00  0.00    +0.072 A 
ATOM     24  C   UNL     1     -11.426  -8.509  14.659  0.00  0.00    +0.141 A 
ATOM     25  C   UNL     1     -10.806  -6.554  15.935  0.00  0.00    +0.027 A 
ATOM     27  C   UNL     1     -12.223  -7.716  13.832  0.00  0.00    +0.047 A 
ATOM     28  C   UNL     1     -11.602  -5.761  15.109  0.00  0.00    +0.002 A 
ATOM     29  C   UNL     1     -12.310  -6.342  14.057  0.00  0.00    +0.004 A 
BRANCH  24   5
ATOM      5  O   UNL     1     -11.354  -9.849  14.422  0.00  0.00    -0.493 OA
ATOM     35  C   UNL     1     -10.663 -10.262  13.245  0.00  0.00    +0.277 C 
ENDBRANCH  24   5
ENDBRANCH   8  22
ENDBRANCH  15  17
ENDBRANCH  11  15
BRANCH  14  16
ATOM     16  C   UNL     1      -3.100 -10.666  16.323  0.00  0.00    +0.138 C 
BRANCH  16   9
ATOM      6  O   UNL     1      -1.828 -11.184  13.801  0.00  0.00    -0.270 OA
ATOM      9  N   UNL     1      -3.640 -10.402  15.021  0.00  0.00    -0.309 N 
ATOM     23  C   UNL     1      -2.950 -10.687  13.846  0.00  0.00    +0.244 C 
ATOM     40  H   UNL     1      -4.588 -10.041  14.984  0.00  0.00    +0.149 HD
BRANCH  23  26
ATOM     26  C   UNL     1      -3.637 -10.330  12.578  0.00  0.00    +0.037 A 
ATOM     30  C   UNL     1      -2.894 -10.136  11.413  0.00  0.00    +0.015 A 
ATOM     31  C   UNL     1      -5.024 -10.187  12.552  0.00  0.00    +0.015 A 
ATOM     32  C   UNL     1      -3.538  -9.799  10.223  0.00  0.00    +0.024 A 
ATOM     33  C   UNL     1      -5.669  -9.851  11.361  0.00  0.00    +0.024 A 
ATOM     34  C   UNL     1      -4.926  -9.656  10.196  0.00  0.00    +0.029 A 
BRANCH  34  10
ATOM     10  N   UNL     1      -5.579  -9.317   8.994  0.00  0.00    -0.336 N 
ATOM     36  C   UNL     1      -5.153  -9.900   7.737  0.00  0.00    +0.129 C 
ATOM     37  C   UNL     1      -6.680  -8.374   8.998  0.00  0.00    +0.129 C 
ENDBRANCH  34  10
ENDBRANCH  23  26
ENDBRANCH  16   9
ENDBRANCH  14  16
TORSDOF 10
ENDMDL
MODEL 2
REMARK VINA RESULT:      -6.7      1.598      1.850
REMARK  Name = 45360601
REMARK  13 active torsions:
REMARK  status: ('A' for Active; 'I' for Inactive)
REMARK    1  A    between atoms: O_2  and  C_12
REMARK    2  A    between atoms: O_3  and  C_13
REMARK    3  A    between atoms: O_5  and  C_24
REMARK    4  A    between atoms: O_5  and  C_35
REMARK    5  A    between atoms: N_8  and  C_22
REMARK    6  A    between atoms: N_9  and  C_16
REMARK    7  A    between atoms: N_10  and  C_34
REMARK    8  A    between atoms: N_10  and  C_36
REMARK    9  A    between atoms: N_10  and  C_37
REMARK   10  A    between atoms: C_11  and  C_15
REMARK   11  A    between atoms: C_14  and  C_16
REMARK   12  A    between atoms: C_15  and  C_17
REMARK   13  A    between atoms: C_23  and  C_26
REMARK                            x       y       z     vdW  Elec       q    Type
REMARK                         _______ _______ _______ _____ _____    ______ ____
ROOT
ATOM      1  O   UNL     1      -2.966 -11.149  16.664  0.00  0.00    -0.366 OA
ATOM     11  C   UNL     1      -4.192 -11.610  17.275  0.00  0.00    +0.159 C 
ATOM     12  C   UNL     1      -4.821 -12.588  16.289  0.00  0.00    +0.175 C 
ATOM     13  C   UNL     1      -4.312 -12.068  14.960  0.00  0.00    +0.176 C 
ATOM     14  C   UNL     1      -2.894 -11.655  15.320  0.00  0.00    +0.167 C 
ENDROOT
BRANCH  12   2
ATOM      2  O   UNL     1      -4.288 -13.886  16.550  0.00  0.00    -0.387 OA
ATOM     38  H   UNL     1      -4.743 -14.233  17.336  0.00  0.00    +0.210 HD
ENDBRANCH  12   2
BRANCH  13   3
ATOM      3  O   UNL     1      -4.337 -13.037  13.934  0.00  0.00    -0.387 OA
ATOM     39  H   UNL     1      -4.805 -13.816  14.280  0.00  0.00    +0.210 HD
ENDBRANCH  13   3
BRANCH  11  15
ATOM     15  C   UNL     1      -5.065 -10.392  17.546  0.00  0.00    +0.130 C 
BRANCH  15  17
ATOM      4  O   UNL     1      -6.353 -11.634  19.107  0.00  0.00    -0.276 OA
ATOM      7  N   UNL     1      -7.526 -10.260  17.646  0.00  0.00    -0.298 N 
ATOM      8  N   UNL     1      -9.974  -8.990  16.765  0.00  0.00    -0.324 N 
ATOM     17  C   UNL     1      -6.366 -10.823  18.178  0.00  0.00    +0.218 C 
ATOM     18  C   UNL     1      -7.539  -9.297  16.542  0.00  0.00    +0.126 C 
ATOM     19  C   UNL     1      -8.825 -10.622  18.207  0.00  0.00    +0.126 C 
ATOM     20  C   UNL     1      -8.885  -9.244  15.819  0.00  0.00    +0.124 C 
ATOM     21  C   UNL     1      -9.818  -9.463  18.144  0.00  0.00    +0.124 C 
BRANCH   8  22
ATOM     22  C   UNL     1     -11.143  -8.349  16.361  0.00  0.00    +0.072 A 
ATOM     24  C   UNL     1     -12.258  -9.089  15.968  0.00  0.00    +0.141 A 
ATOM     25  C   UNL     1     -11.192  -6.956  16.355  0.00  0.00    +0.027 A 
ATOM     27  C   UNL     1     -13.424  -8.433  15.568  0.00  0.00    +0.047 A 
ATOM     28  C   UNL     1     -12.357  -6.301  15.954  0.00  0.00    +0.002 A 
ATOM     29  C   UNL     1     -13.472  -7.040  15.561  0.00  0.00    +0.004 A 
BRANCH  24   5
ATOM      5  O   UNL     1     -12.232 -10.452  15.967  0.00  0.00    -0.493 OA
ATOM     35  C   UNL     1     -12.789 -11.109  14.832  0.00  0.00    +0.277 C 
ENDBRANCH  24   5
ENDBRANCH   8  22
ENDBRANCH  15  17
ENDBRANCH  11  15
BRANCH  14  16
ATOM     16  C   UNL     1      -2.328 -10.586  14.400  0.00  0.00    +0.138 C 
BRANCH  16   9
ATOM      6  O   UNL     1      -1.198  -9.854  11.864  0.00  0.00    -0.270 OA
ATOM      9  N   UNL     1      -2.997 -10.587  13.132  0.00  0.00    -0.309 N 
ATOM     23  C   UNL     1      -2.368 -10.215  11.947  0.00  0.00    +0.244 C 
ATOM     40  H   UNL     1      -3.952 -10.928  13.121  0.00  0.00    +0.149 HD
BRANCH  23  26
ATOM     26  C   UNL     1      -3.207 -10.246  10.721  0.00  0.00    +0.037 A 
ATOM     30  C   UNL     1      -3.514  -9.058  10.056  0.00  0.00    +0.015 A 
ATOM     31  C   UNL     1      -3.688 -11.461  10.235  0.00  0.00    +0.015 A 
ATOM     32  C   UNL     1      -4.302  -9.086   8.906  0.00  0.00    +0.024 A 
ATOM     33  C   UNL     1      -4.476 -11.490   9.084  0.00  0.00    +0.024 A 
ATOM     34  C   UNL     1      -4.784 -10.302   8.420  0.00  0.00    +0.029 A 
BRANCH  34  10
ATOM     10  N   UNL     1      -5.580 -10.333   7.257  0.00  0.00    -0.336 N 
ATOM     36  C   UNL     1      -5.180 -11.127   6.113  0.00  0.00    +0.129 C 
ATOM     37  C   UNL     1      -6.807  -9.563   7.187  0.00  0.00    +0.129 C 
ENDBRANCH  34  10
ENDBRANCH  23  26
ENDBRANCH  16   9
ENDBRANCH  14  16
TORSDOF 10
ENDMDL
MODEL 3
REMARK VINA RESULT:      -6.7     18.429     21.584
REMARK  Name = 45360601
REMARK  13 active torsions:
REMARK  status: ('A' for Active; 'I' for Inactive)
REMARK    1  A    between atoms: O_2  and  C_12
REMARK    2  A    between atoms: O_3  and  C_13
REMARK    3  A    between atoms: O_5  and  C_24
REMARK    4  A    between atoms: O_5  and  C_35
REMARK    5  A    between atoms: N_8  and  C_22
REMARK    6  A    between atoms: N_9  and  C_16
REMARK    7  A    between atoms: N_10  and  C_34
REMARK    8  A    between atoms: N_10  and  C_36
REMARK    9  A    between atoms: N_10  and  C_37
REMARK   10  A    between atoms: C_11  and  C_15
REMARK   11  A    between atoms: C_14  and  C_16
REMARK   12  A    between atoms: C_15  and  C_17
REMARK   13  A    between atoms: C_23  and  C_26
REMARK                            x       y       z     vdW  Elec       q    Type
REMARK                         _______ _______ _______ _____ _____    ______ ____
ROOT
ATOM      1  O   UNL     1     -16.553   4.335  21.853  0.00  0.00    -0.366 OA
ATOM     11  C   UNL     1     -15.637   5.405  21.528  0.00  0.00    +0.159 C 
ATOM     12  C   UNL     1     -14.486   5.302  22.522  0.00  0.00    +0.175 C 
ATOM     13  C   UNL     1     -15.164   4.681  23.727  0.00  0.00    +0.176 C 
ATOM     14  C   UNL     1     -16.116   3.698  23.066  0.00  0.00    +0.167 C 
ENDROOT
BRANCH  12   2
ATOM      2  O   UNL     1     -13.514   4.404  21.985  0.00  0.00    -0.387 OA
ATOM     38  H   UNL     1     -13.764   3.506  22.262  0.00  0.00    +0.210 HD
ENDBRANCH  12   2
BRANCH  13   3
ATOM      3  O   UNL     1     -14.265   4.039  24.605  0.00  0.00    -0.387 OA
ATOM     39  H   UNL     1     -14.684   3.212  24.898  0.00  0.00    +0.210 HD
ENDBRANCH  13   3
BRANCH  11  15
ATOM     15  C   UNL     1     -16.398   6.720  21.633  0.00  0.00    +0.130 C 
BRANCH  15  17
ATOM      4  O   UNL     1     -15.612   7.884  23.547  0.00  0.00    -0.276 OA
ATOM      7  N   UNL     1     -14.718   8.520  21.499  0.00  0.00    -0.298 N 
ATOM      8  N   UNL     1     -12.809  10.011  19.913  0.00  0.00    -0.324 N 
ATOM     17  C   UNL     1     -15.544   7.756  22.322  0.00  0.00    +0.218 C 
ATOM     18  C   UNL     1     -14.639   8.366  20.044  0.00  0.00    +0.126 C 
ATOM     19  C   UNL     1     -13.856   9.540  22.091  0.00  0.00    +0.126 C 
ATOM     20  C   UNL     1     -14.099   9.613  19.345  0.00  0.00    +0.124 C 
ATOM     21  C   UNL     1     -12.547   9.700  21.321  0.00  0.00    +0.124 C 
BRANCH   8  22
ATOM     22  C   UNL     1     -11.868  10.699  19.150  0.00  0.00    +0.072 A 
ATOM     24  C   UNL     1     -10.896  10.006  18.429  0.00  0.00    +0.141 A 
ATOM     25  C   UNL     1     -11.906  12.092  19.110  0.00  0.00    +0.027 A 
ATOM     27  C   UNL     1      -9.961  10.708  17.667  0.00  0.00    +0.047 A 
ATOM     28  C   UNL     1     -10.971  12.794  18.350  0.00  0.00    +0.002 A 
ATOM     29  C   UNL     1      -9.998  12.102  17.628  0.00  0.00    +0.004 A 
BRANCH  24   5
ATOM      5  O   UNL     1     -10.842   8.645  18.454  0.00  0.00    -0.493 OA
ATOM     35  C   UNL     1     -10.776   7.976  17.196  0.00  0.00    +0.277 C 
ENDBRANCH  24   5
ENDBRANCH   8  22
ENDBRANCH  15  17
ENDBRANCH  11  15
BRANCH  14  16
ATOM     16  C   UNL     1     -17.320   3.356  23.927  0.00  0.00    +0.138 C 
BRANCH  16   9
ATOM      6  O   UNL     1     -16.512   0.972  25.310  0.00  0.00    -0.270 OA
ATOM      9  N   UNL     1     -16.954   3.250  25.309  0.00  0.00    -0.309 N 
ATOM     23  C   UNL     1     -16.573   2.048  25.899  0.00  0.00    +0.244 C 
ATOM     40  H   UNL     1     -16.930   4.113  25.842  0.00  0.00    +0.149 HD
BRANCH  23  26
ATOM     26  C   UNL     1     -16.249   2.101  27.348  0.00  0.00    +0.037 A 
ATOM     30  C   UNL     1     -16.433   0.972  28.146  0.00  0.00    +0.015 A 
ATOM     31  C   UNL     1     -15.761   3.280  27.911  0.00  0.00    +0.015 A 
ATOM     32  C   UNL     1     -16.131   1.022  29.506  0.00  0.00    +0.024 A 
ATOM     33  C   UNL     1     -15.458   3.331  29.272  0.00  0.00    +0.024 A 
ATOM     34  C   UNL     1     -15.643   2.201  30.070  0.00  0.00    +0.029 A 
BRANCH  34  10
ATOM     10  N   UNL     1     -15.335   2.253  31.445  0.00  0.00    -0.336 N 
ATOM     36  C   UNL     1     -15.443   3.500  32.175  0.00  0.00    +0.129 C 
ATOM     37  C   UNL     1     -14.900   1.061  32.145  0.00  0.00    +0.129 C 
ENDBRANCH  34  10
ENDBRANCH  23  26
ENDBRANCH  16   9
ENDBRANCH  14  16
TORSDOF 10
ENDMDL
MODEL 4
REMARK VINA RESULT:      -6.6      1.968      3.316
REMARK  Name = 45360601
REMARK  13 active torsions:
REMARK  status: ('A' for Active; 'I' for Inactive)
REMARK    1  A    between atoms: O_2  and  C_12
REMARK    2  A    between atoms: O_3  and  C_13
REMARK    3  A    between atoms: O_5  and  C_24
REMARK    4  A    between atoms: O_5  and  C_35
REMARK    5  A    between atoms: N_8  and  C_22
REMARK    6  A    between atoms: N_9  and  C_16
REMARK    7  A    between atoms: N_10  and  C_34
REMARK    8  A    between atoms: N_10  and  C_36
REMARK    9  A    between atoms: N_10  and  C_37
REMARK   10  A    between atoms: C_11  and  C_15
REMARK   11  A    between atoms: C_14  and  C_16
REMARK   12  A    between atoms: C_15  and  C_17
REMARK   13  A    between atoms: C_23  and  C_26
REMARK                            x       y       z     vdW  Elec       q    Type
REMARK                         _______ _______ _______ _____ _____    ______ ____
ROOT
ATOM      1  O   UNL     1      -1.692 -11.585  14.576  0.00  0.00    -0.366 OA
ATOM     11  C   UNL     1      -2.685 -11.942  15.564  0.00  0.00    +0.159 C 
ATOM     12  C   UNL     1      -3.733 -12.776  14.836  0.00  0.00    +0.175 C 
ATOM     13  C   UNL     1      -3.645 -12.233  13.425  0.00  0.00    +0.176 C 
ATOM     14  C   UNL     1      -2.148 -12.008  13.280  0.00  0.00    +0.167 C 
ENDROOT
BRANCH  12   2
ATOM      2  O   UNL     1      -3.315 -14.141  14.869  0.00  0.00    -0.387 OA
ATOM     38  H   UNL     1      -3.668 -14.533  15.686  0.00  0.00    +0.210 HD
ENDBRANCH  12   2
BRANCH  13   3
ATOM      3  O   UNL     1      -4.142 -13.125  12.450  0.00  0.00    -0.387 OA
ATOM     39  H   UNL     1      -4.153 -14.013  12.846  0.00  0.00    +0.210 HD
ENDBRANCH  13   3
BRANCH  11  15
ATOM     15  C   UNL     1      -3.249 -10.653  16.147  0.00  0.00    +0.130 C 
BRANCH  15  17
ATOM      4  O   UNL     1      -3.831 -11.571  18.258  0.00  0.00    -0.276 OA
ATOM      7  N   UNL     1      -5.541 -10.560  17.053  0.00  0.00    -0.298 N 
ATOM      8  N   UNL     1      -8.249  -9.559  16.836  0.00  0.00    -0.324 N 
ATOM     17  C   UNL     1      -4.224 -10.972  17.253  0.00  0.00    +0.218 C 
ATOM     18  C   UNL     1      -6.006  -9.849  15.859  0.00  0.00    +0.126 C 
ATOM     19  C   UNL     1      -6.544 -10.827  18.080  0.00  0.00    +0.126 C 
ATOM     20  C   UNL     1      -7.513  -9.979  15.641  0.00  0.00    +0.124 C 
ATOM     21  C   UNL     1      -7.605  -9.730  18.142  0.00  0.00    +0.124 C 
BRANCH   8  22
ATOM     22  C   UNL     1      -9.540  -9.044  16.742  0.00  0.00    +0.072 A 
ATOM     24  C   UNL     1     -10.647  -9.889  16.804  0.00  0.00    +0.141 A 
ATOM     25  C   UNL     1      -9.718  -7.670  16.586  0.00  0.00    +0.027 A 
ATOM     27  C   UNL     1     -11.935  -9.359  16.711  0.00  0.00    +0.047 A 
ATOM     28  C   UNL     1     -11.005  -7.140  16.492  0.00  0.00    +0.002 A 
ATOM     29  C   UNL     1     -12.113  -7.984  16.554  0.00  0.00    +0.004 A 
BRANCH  24   5
ATOM      5  O   UNL     1     -10.495 -11.235  16.957  0.00  0.00    -0.493 OA
ATOM     35  C   UNL     1     -10.764 -11.775  18.248  0.00  0.00    +0.277 C 
ENDBRANCH  24   5
ENDBRANCH   8  22
ENDBRANCH  15  17
ENDBRANCH  11  15
BRANCH  14  16
ATOM     16  C   UNL     1      -1.796 -10.954  12.244  0.00  0.00    +0.138 C 
BRANCH  16   9
ATOM      6  O   UNL     1      -1.970  -8.847  10.301  0.00  0.00    -0.270 OA
ATOM      9  N   UNL     1      -2.928 -10.638  11.423  0.00  0.00    -0.309 N 
ATOM     23  C   UNL     1      -2.924  -9.594  10.502  0.00  0.00    +0.244 C 
ATOM     40  H   UNL     1      -3.733 -11.251  11.499  0.00  0.00    +0.149 HD
BRANCH  23  26
ATOM     26  C   UNL     1      -4.184  -9.380   9.746  0.00  0.00    +0.037 A 
ATOM     30  C   UNL     1      -4.414 -10.078   8.560  0.00  0.00    +0.015 A 
ATOM     31  C   UNL     1      -5.139  -8.480  10.220  0.00  0.00    +0.015 A 
ATOM     32  C   UNL     1      -5.596  -9.876   7.849  0.00  0.00    +0.024 A 
ATOM     33  C   UNL     1      -6.323  -8.278   9.509  0.00  0.00    +0.024 A 
ATOM     34  C   UNL     1      -6.551  -8.976   8.323  0.00  0.00    +0.029 A 
BRANCH  34  10
ATOM     10  N   UNL     1      -7.747  -8.772   7.606  0.00  0.00    -0.336 N 
ATOM     36  C   UNL     1      -8.622  -9.887   7.303  0.00  0.00    +0.129 C 
ATOM     37  C   UNL     1      -8.115  -7.444   7.155  0.00  0.00    +0.129 C 
ENDBRANCH  34  10
ENDBRANCH  23  26
ENDBRANCH  16   9
ENDBRANCH  14  16
TORSDOF 10
ENDMDL
MODEL 5
REMARK VINA RESULT:      -6.6      1.603      2.185
REMARK  Name = 45360601
REMARK  13 active torsions:
REMARK  status: ('A' for Active; 'I' for Inactive)
REMARK    1  A    between atoms: O_2  and  C_12
REMARK    2  A    between atoms: O_3  and  C_13
REMARK    3  A    between atoms: O_5  and  C_24
REMARK    4  A    between atoms: O_5  and  C_35
REMARK    5  A    between atoms: N_8  and  C_22
REMARK    6  A    between atoms: N_9  and  C_16
REMARK    7  A    between atoms: N_10  and  C_34
REMARK    8  A    between atoms: N_10  and  C_36
REMARK    9  A    between atoms: N_10  and  C_37
REMARK   10  A    between atoms: C_11  and  C_15
REMARK   11  A    between atoms: C_14  and  C_16
REMARK   12  A    between atoms: C_15  and  C_17
REMARK   13  A    between atoms: C_23  and  C_26
REMARK                            x       y       z     vdW  Elec       q    Type
REMARK                         _______ _______ _______ _____ _____    ______ ____
ROOT
ATOM      1  O   UNL     1      -3.809 -10.331  16.647  0.00  0.00    -0.366 OA
ATOM     11  C   UNL     1      -5.078 -10.915  17.016  0.00  0.00    +0.159 C 
ATOM     12  C   UNL     1      -5.003 -12.387  16.627  0.00  0.00    +0.175 C 
ATOM     13  C   UNL     1      -4.035 -12.357  15.462  0.00  0.00    +0.176 C 
ATOM     14  C   UNL     1      -3.038 -11.306  15.923  0.00  0.00    +0.167 C 
ENDROOT
BRANCH  12   2
ATOM      2  O   UNL     1      -4.437 -13.106  17.723  0.00  0.00    -0.387 OA
ATOM     38  H   UNL     1      -4.990 -12.930  18.503  0.00  0.00    +0.210 HD
ENDBRANCH  12   2
BRANCH  13   3
ATOM      3  O   UNL     1      -3.417 -13.601  15.216  0.00  0.00    -0.387 OA
ATOM     39  H   UNL     1      -3.159 -13.974  16.077  0.00  0.00    +0.210 HD
ENDBRANCH  13   3
BRANCH  11  15
ATOM     15  C   UNL     1      -6.173 -10.158  16.275  0.00  0.00    +0.130 C 
BRANCH  15  17
ATOM      4  O   UNL     1      -7.094  -9.923  18.451  0.00  0.00    -0.276 OA
ATOM      7  N   UNL     1      -8.395  -9.166  16.681  0.00  0.00    -0.298 N 
ATOM      8  N   UNL     1     -10.707  -7.767  15.643  0.00  0.00    -0.324 N 
ATOM     17  C   UNL     1      -7.254  -9.741  17.242  0.00  0.00    +0.218 C 
ATOM     18  C   UNL     1      -8.583  -8.950  15.244  0.00  0.00    +0.126 C 
ATOM     19  C   UNL     1      -9.484  -8.731  17.551  0.00  0.00    +0.126 C 
ATOM     20  C   UNL     1     -10.055  -8.814  14.854  0.00  0.00    +0.124 C 
ATOM     21  C   UNL     1     -10.204  -7.503  16.995  0.00  0.00    +0.124 C 
BRANCH   8  22
ATOM     22  C   UNL     1     -11.799  -7.062  15.142  0.00  0.00    +0.072 A 
ATOM     24  C   UNL     1     -13.099  -7.515  15.366  0.00  0.00    +0.141 A 
ATOM     25  C   UNL     1     -11.583  -5.894  14.412  0.00  0.00    +0.027 A 
ATOM     27  C   UNL     1     -14.184  -6.798  14.859  0.00  0.00    +0.047 A 
ATOM     28  C   UNL     1     -12.667  -5.178  13.905  0.00  0.00    +0.002 A 
ATOM     29  C   UNL     1     -13.968  -5.630  14.129  0.00  0.00    +0.004 A 
BRANCH  24   5
ATOM      5  O   UNL     1     -13.332  -8.654  16.077  0.00  0.00    -0.493 OA
ATOM     35  C   UNL     1     -14.548  -8.716  16.820  0.00  0.00    +0.277 C 
ENDBRANCH  24   5
ENDBRANCH   8  22
ENDBRANCH  15  17
ENDBRANCH  11  15
BRANCH  14  16
ATOM     16  C   UNL     1      -2.305 -10.630  14.777  0.00  0.00    +0.138 C 
BRANCH  16   9
ATOM      6  O   UNL     1      -1.690 -10.571  11.973  0.00  0.00    -0.270 OA
ATOM      9  N   UNL     1      -3.204 -10.300  13.710  0.00  0.00    -0.309 N 
ATOM     23  C   UNL     1      -2.819 -10.297  12.372  0.00  0.00    +0.244 C 
ATOM     40  H   UNL     1      -4.168 -10.116  13.966  0.00  0.00    +0.149 HD
BRANCH  23  26
ATOM     26  C   UNL     1      -3.862  -9.907  11.389  0.00  0.00    +0.037 A 
ATOM     30  C   UNL     1      -5.164  -9.651  11.818  0.00  0.00    +0.015 A 
ATOM     31  C   UNL     1      -3.539  -9.798  10.036  0.00  0.00    +0.015 A 
ATOM     32  C   UNL     1      -6.144  -9.287  10.895  0.00  0.00    +0.024 A 
ATOM     33  C   UNL     1      -4.519  -9.433   9.112  0.00  0.00    +0.024 A 
ATOM     34  C   UNL     1      -5.821  -9.177   9.542  0.00  0.00    +0.029 A 
BRANCH  34  10
ATOM     10  N   UNL     1      -6.811  -8.808   8.607  0.00  0.00    -0.336 N 
ATOM     36  C   UNL     1      -6.684  -9.189   7.215  0.00  0.00    +0.129 C 
ATOM     37  C   UNL     1      -7.964  -8.036   9.026  0.00  0.00    +0.129 C 
ENDBRANCH  34  10
ENDBRANCH  23  26
ENDBRANCH  16   9
ENDBRANCH  14  16
TORSDOF 10
ENDMDL
MODEL 6
REMARK VINA RESULT:      -6.5      3.683      8.614
REMARK  Name = 45360601
REMARK  13 active torsions:
REMARK  status: ('A' for Active; 'I' for Inactive)
REMARK    1  A    between atoms: O_2  and  C_12
REMARK    2  A    between atoms: O_3  and  C_13
REMARK    3  A    between atoms: O_5  and  C_24
REMARK    4  A    between atoms: O_5  and  C_35
REMARK    5  A    between atoms: N_8  and  C_22
REMARK    6  A    between atoms: N_9  and  C_16
REMARK    7  A    between atoms: N_10  and  C_34
REMARK    8  A    between atoms: N_10  and  C_36
REMARK    9  A    between atoms: N_10  and  C_37
REMARK   10  A    between atoms: C_11  and  C_15
REMARK   11  A    between atoms: C_14  and  C_16
REMARK   12  A    between atoms: C_15  and  C_17
REMARK   13  A    between atoms: C_23  and  C_26
REMARK                            x       y       z     vdW  Elec       q    Type
REMARK                         _______ _______ _______ _____ _____    ______ ____
ROOT
ATOM      1  O   UNL     1     -13.105  -6.031  12.198  0.00  0.00    -0.366 OA
ATOM     11  C   UNL     1     -13.594  -6.440  13.495  0.00  0.00    +0.159 C 
ATOM     12  C   UNL     1     -14.498  -5.316  13.987  0.00  0.00    +0.175 C 
ATOM     13  C   UNL     1     -13.897  -4.105  13.304  0.00  0.00    +0.176 C 
ATOM     14  C   UNL     1     -13.522  -4.677  11.947  0.00  0.00    +0.167 C 
ENDROOT
BRANCH  12   2
ATOM      2  O   UNL     1     -15.816  -5.558  13.495  0.00  0.00    -0.387 OA
ATOM     38  H   UNL     1     -16.395  -5.689  14.265  0.00  0.00    +0.210 HD
ENDBRANCH  12   2
BRANCH  13   3
ATOM      3  O   UNL     1     -14.795  -3.022  13.192  0.00  0.00    -0.387 OA
ATOM     39  H   UNL     1     -15.647  -3.310  13.563  0.00  0.00    +0.210 HD
ENDBRANCH  13   3
BRANCH  11  15
ATOM     15  C   UNL     1     -12.389  -6.674  14.396  0.00  0.00    +0.130 C 
BRANCH  15  17
ATOM      4  O   UNL     1     -13.133  -8.928  14.335  0.00  0.00    -0.276 OA
ATOM      7  N   UNL     1     -11.109  -8.526  15.404  0.00  0.00    -0.298 N 
ATOM      8  N   UNL     1      -8.674  -9.453  16.664  0.00  0.00    -0.324 N 
ATOM     17  C   UNL     1     -12.253  -8.145  14.702  0.00  0.00    +0.218 C 
ATOM     18  C   UNL     1     -10.065  -7.595  15.839  0.00  0.00    +0.126 C 
ATOM     19  C   UNL     1     -10.902  -9.933  15.734  0.00  0.00    +0.126 C 
ATOM     20  C   UNL     1      -9.230  -8.140  16.997  0.00  0.00    +0.124 C 
ATOM     21  C   UNL     1      -9.421 -10.308  15.737  0.00  0.00    +0.124 C 
BRANCH   8  22
ATOM     22  C   UNL     1      -7.484  -9.897  17.237  0.00  0.00    +0.072 A 
ATOM     24  C   UNL     1      -7.486 -10.513  18.488  0.00  0.00    +0.141 A 
ATOM     25  C   UNL     1      -6.285  -9.723  16.547  0.00  0.00    +0.027 A 
ATOM     27  C   UNL     1      -6.287 -10.955  19.050  0.00  0.00    +0.047 A 
ATOM     28  C   UNL     1      -5.087 -10.163  17.108  0.00  0.00    +0.002 A 
ATOM     29  C   UNL     1      -5.087 -10.779  18.359  0.00  0.00    +0.004 A 
BRANCH  24   5
ATOM      5  O   UNL     1      -8.646 -10.694  19.180  0.00  0.00    -0.493 OA
ATOM     35  C   UNL     1      -9.005 -12.035  19.504  0.00  0.00    +0.277 C 
ENDBRANCH  24   5
ENDBRANCH   8  22
ENDBRANCH  15  17
ENDBRANCH  11  15
BRANCH  14  16
ATOM     16  C   UNL     1     -12.400  -3.915  11.262  0.00  0.00    +0.138 C 
BRANCH  16   9
ATOM      6  O   UNL     1     -10.951  -3.113   8.916  0.00  0.00    -0.270 OA
ATOM      9  N   UNL     1     -11.658  -4.768  10.380  0.00  0.00    -0.309 N 
ATOM     23  C   UNL     1     -10.982  -4.292   9.261  0.00  0.00    +0.244 C 
ATOM     40  H   UNL     1     -11.597  -5.748  10.638  0.00  0.00    +0.149 HD
BRANCH  23  26
ATOM     26  C   UNL     1     -10.281  -5.307   8.434  0.00  0.00    +0.037 A 
ATOM     30  C   UNL     1     -11.011  -6.147   7.593  0.00  0.00    +0.015 A 
ATOM     31  C   UNL     1      -8.893  -5.422   8.499  0.00  0.00    +0.015 A 
ATOM     32  C   UNL     1     -10.354  -7.102   6.818  0.00  0.00    +0.024 A 
ATOM     33  C   UNL     1      -8.234  -6.377   7.724  0.00  0.00    +0.024 A 
ATOM     34  C   UNL     1      -8.965  -7.217   6.883  0.00  0.00    +0.029 A 
BRANCH  34  10
ATOM     10  N   UNL     1      -8.298  -8.182   6.100  0.00  0.00    -0.336 N 
ATOM     36  C   UNL     1      -7.344  -9.088   6.706  0.00  0.00    +0.129 C 
ATOM     37  C   UNL     1      -8.553  -8.274   4.676  0.00  0.00    +0.129 C 
ENDBRANCH  34  10
ENDBRANCH  23  26
ENDBRANCH  16   9
ENDBRANCH  14  16
TORSDOF 10
ENDMDL
MODEL 7
REMARK VINA RESULT:      -6.5      3.156      7.383
REMARK  Name = 45360601
REMARK  13 active torsions:
REMARK  status: ('A' for Active; 'I' for Inactive)
REMARK    1  A    between atoms: O_2  and  C_12
REMARK    2  A    between atoms: O_3  and  C_13
REMARK    3  A    between atoms: O_5  and  C_24
REMARK    4  A    between atoms: O_5  and  C_35
REMARK    5  A    between atoms: N_8  and  C_22
REMARK    6  A    between atoms: N_9  and  C_16
REMARK    7  A    between atoms: N_10  and  C_34
REMARK    8  A    between atoms: N_10  and  C_36
REMARK    9  A    between atoms: N_10  and  C_37
REMARK   10  A    between atoms: C_11  and  C_15
REMARK   11  A    between atoms: C_14  and  C_16
REMARK   12  A    between atoms: C_15  and  C_17
REMARK   13  A    between atoms: C_23  and  C_26
REMARK                            x       y       z     vdW  Elec       q    Type
REMARK                         _______ _______ _______ _____ _____    ______ ____
ROOT
ATOM      1  O   UNL     1      -7.564 -10.546   8.476  0.00  0.00    -0.366 OA
ATOM     11  C   UNL     1      -8.412  -9.702   9.287  0.00  0.00    +0.159 C 
ATOM     12  C   UNL     1      -8.605  -8.409   8.504  0.00  0.00    +0.175 C 
ATOM     13  C   UNL     1      -7.325  -8.333   7.698  0.00  0.00    +0.176 C 
ATOM     14  C   UNL     1      -7.105  -9.794   7.339  0.00  0.00    +0.167 C 
ENDROOT
BRANCH  12   2
ATOM      2  O   UNL     1      -9.727  -8.578   7.637  0.00  0.00    -0.387 OA
ATOM     38  H   UNL     1      -9.514  -9.304   7.026  0.00  0.00    +0.210 HD
ENDBRANCH  12   2
BRANCH  13   3
ATOM      3  O   UNL     1      -7.433  -7.517   6.552  0.00  0.00    -0.387 OA
ATOM     39  H   UNL     1      -6.594  -7.585   6.065  0.00  0.00    +0.210 HD
ENDBRANCH  13   3
BRANCH  11  15
ATOM     15  C   UNL     1      -7.717  -9.491  10.625  0.00  0.00    +0.130 C 
BRANCH  15  17
ATOM      4  O   UNL     1      -9.808 -10.154  11.534  0.00  0.00    -0.276 OA
ATOM      7  N   UNL     1      -7.993 -10.151  12.986  0.00  0.00    -0.298 N 
ATOM      8  N   UNL     1      -6.780 -10.778  15.539  0.00  0.00    -0.324 N 
ATOM     17  C   UNL     1      -8.608  -9.963  11.748  0.00  0.00    +0.218 C 
ATOM     18  C   UNL     1      -6.568  -9.923  13.238  0.00  0.00    +0.126 C 
ATOM     19  C   UNL     1      -8.787 -10.612  14.122  0.00  0.00    +0.126 C 
ATOM     20  C   UNL     1      -6.258  -9.685  14.716  0.00  0.00    +0.124 C 
ATOM     21  C   UNL     1      -7.973 -11.491  15.069  0.00  0.00    +0.124 C 
BRANCH   8  22
ATOM     22  C   UNL     1      -6.185 -11.113  16.753  0.00  0.00    +0.072 A 
ATOM     24  C   UNL     1      -6.685 -10.607  17.952  0.00  0.00    +0.141 A 
ATOM     25  C   UNL     1      -5.080 -11.964  16.761  0.00  0.00    +0.027 A 
ATOM     27  C   UNL     1      -6.080 -10.952  19.161  0.00  0.00    +0.047 A 
ATOM     28  C   UNL     1      -4.474 -12.308  17.969  0.00  0.00    +0.002 A 
ATOM     29  C   UNL     1      -4.974 -11.802  19.169  0.00  0.00    +0.004 A 
BRANCH  24   5
ATOM      5  O   UNL     1      -7.765  -9.775  17.966  0.00  0.00    -0.493 OA
ATOM     35  C   UNL     1      -8.997 -10.321  18.429  0.00  0.00    +0.277 C 
ENDBRANCH  24   5
ENDBRANCH   8  22
ENDBRANCH  15  17
ENDBRANCH  11  15
BRANCH  14  16
ATOM     16  C   UNL     1      -5.652 -10.131   7.054  0.00  0.00    +0.138 C 
BRANCH  16   9
ATOM      6  O   UNL     1      -4.035  -8.656   8.913  0.00  0.00    -0.270 OA
ATOM      9  N   UNL     1      -5.002 -10.649   8.222  0.00  0.00    -0.309 N 
ATOM     23  C   UNL     1      -4.234  -9.858   9.071  0.00  0.00    +0.244 C 
ATOM     40  H   UNL     1      -5.170 -11.625   8.443  0.00  0.00    +0.149 HD
BRANCH  23  26
ATOM     26  C   UNL     1      -3.606 -10.550  10.225  0.00  0.00    +0.037 A 
ATOM     30  C   UNL     1      -2.742  -9.854  11.071  0.00  0.00    +0.015 A 
ATOM     31  C   UNL     1      -3.879 -11.898  10.464  0.00  0.00    +0.015 A 
ATOM     32  C   UNL     1      -2.151 -10.505  12.154  0.00  0.00    +0.024 A 
ATOM     33  C   UNL     1      -3.289 -12.549  11.547  0.00  0.00    +0.024 A 
ATOM     34  C   UNL     1      -2.424 -11.852  12.392  0.00  0.00    +0.029 A 
BRANCH  34  10
ATOM     10  N   UNL     1      -1.828 -12.511  13.487  0.00  0.00    -0.336 N 
ATOM     36  C   UNL     1      -1.503 -13.921  13.407  0.00  0.00    +0.129 C 
ATOM     37  C   UNL     1      -1.540 -11.789  14.710  0.00  0.00    +0.129 C 
ENDBRANCH  34  10
ENDBRANCH  23  26
ENDBRANCH  16   9
ENDBRANCH  14  16
TORSDOF 10
ENDMDL
MODEL 8
REMARK VINA RESULT:      -6.4     25.635     29.713
REMARK  Name = 45360601
REMARK  13 active torsions:
REMARK  status: ('A' for Active; 'I' for Inactive)
REMARK    1  A    between atoms: O_2  and  C_12
REMARK    2  A    between atoms: O_3  and  C_13
REMARK    3  A    between atoms: O_5  and  C_24
REMARK    4  A    between atoms: O_5  and  C_35
REMARK    5  A    between atoms: N_8  and  C_22
REMARK    6  A    between atoms: N_9  and  C_16
REMARK    7  A    between atoms: N_10  and  C_34
REMARK    8  A    between atoms: N_10  and  C_36
REMARK    9  A    between atoms: N_10  and  C_37
REMARK   10  A    between atoms: C_11  and  C_15
REMARK   11  A    between atoms: C_14  and  C_16
REMARK   12  A    between atoms: C_15  and  C_17
REMARK   13  A    between atoms: C_23  and  C_26
REMARK                            x       y       z     vdW  Elec       q    Type
REMARK                         _______ _______ _______ _____ _____    ______ ____
ROOT
ATOM      1  O   UNL     1      11.208   8.537   7.190  0.00  0.00    -0.366 OA
ATOM     11  C   UNL     1      10.520   7.299   6.901  0.00  0.00    +0.159 C 
ATOM     12  C   UNL     1      11.570   6.196   6.977  0.00  0.00    +0.175 C 
ATOM     13  C   UNL     1      12.834   6.938   6.592  0.00  0.00    +0.176 C 
ATOM     14  C   UNL     1      12.620   8.278   7.276  0.00  0.00    +0.167 C 
ENDROOT
BRANCH  12   2
ATOM      2  O   UNL     1      11.650   5.752   8.331  0.00  0.00    -0.387 OA
ATOM     38  H   UNL     1      10.746   5.537   8.619  0.00  0.00    +0.210 HD
ENDBRANCH  12   2
BRANCH  13   3
ATOM      3  O   UNL     1      14.013   6.300   7.034  0.00  0.00    -0.387 OA
ATOM     39  H   UNL     1      14.536   6.960   7.521  0.00  0.00    +0.210 HD
ENDBRANCH  13   3
BRANCH  11  15
ATOM     15  C   UNL     1       9.888   7.427   5.521  0.00  0.00    +0.130 C 
BRANCH  15  17
ATOM      4  O   UNL     1       9.010   5.225   5.379  0.00  0.00    -0.276 OA
ATOM      7  N   UNL     1      10.544   5.843   3.747  0.00  0.00    -0.298 N 
ATOM      8  N   UNL     1      11.949   5.352   1.264  0.00  0.00    -0.324 N 
ATOM     17  C   UNL     1       9.766   6.065   4.883  0.00  0.00    +0.218 C 
ATOM     18  C   UNL     1      11.442   6.842   3.161  0.00  0.00    +0.126 C 
ATOM     19  C   UNL     1      10.478   4.552   3.069  0.00  0.00    +0.126 C 
ATOM     20  C   UNL     1      12.533   6.218   2.291  0.00  0.00    +0.124 C 
ATOM     21  C   UNL     1      10.676   4.687   1.561  0.00  0.00    +0.124 C 
BRANCH   8  22
ATOM     22  C   UNL     1      12.598   5.135   0.051  0.00  0.00    +0.072 A 
ATOM     24  C   UNL     1      13.538   4.113  -0.078  0.00  0.00    +0.141 A 
ATOM     25  C   UNL     1      12.299   5.950  -1.041  0.00  0.00    +0.027 A 
ATOM     27  C   UNL     1      14.180   3.905  -1.300  0.00  0.00    +0.047 A 
ATOM     28  C   UNL     1      12.941   5.743  -2.261  0.00  0.00    +0.002 A 
ATOM     29  C   UNL     1      13.881   4.721  -2.391  0.00  0.00    +0.004 A 
BRANCH  24   5
ATOM      5  O   UNL     1      13.845   3.305   0.977  0.00  0.00    -0.493 OA
ATOM     35  C   UNL     1      15.069   3.568   1.658  0.00  0.00    +0.277 C 
ENDBRANCH  24   5
ENDBRANCH   8  22
ENDBRANCH  15  17
ENDBRANCH  11  15
BRANCH  14  16
ATOM     16  C   UNL     1      13.389   9.415   6.626  0.00  0.00    +0.138 C 
BRANCH  16   9
ATOM      6  O   UNL     1      15.941  10.701   6.909  0.00  0.00    -0.270 OA
ATOM      9  N   UNL     1      14.642   8.958   6.099  0.00  0.00    -0.309 N 
ATOM     23  C   UNL     1      15.836   9.648   6.286  0.00  0.00    +0.244 C 
ATOM     40  H   UNL     1      14.636   8.064   5.620  0.00  0.00    +0.149 HD
BRANCH  23  26
ATOM     26  C   UNL     1      17.043   9.055   5.655  0.00  0.00    +0.037 A 
ATOM     30  C   UNL     1      18.218   8.914   6.393  0.00  0.00    +0.015 A 
ATOM     31  C   UNL     1      17.002   8.640   4.324  0.00  0.00    +0.015 A 
ATOM     32  C   UNL     1      19.352   8.359   5.800  0.00  0.00    +0.024 A 
ATOM     33  C   UNL     1      18.136   8.084   3.730  0.00  0.00    +0.024 A 
ATOM     34  C   UNL     1      19.311   7.944   4.469  0.00  0.00    +0.029 A 
BRANCH  34  10
ATOM     10  N   UNL     1      20.456   7.382   3.868  0.00  0.00    -0.336 N 
ATOM     36  C   UNL     1      20.773   7.665   2.483  0.00  0.00    +0.129 C 
ATOM     37  C   UNL     1      21.328   6.507   4.627  0.00  0.00    +0.129 C 
ENDBRANCH  34  10
ENDBRANCH  23  26
ENDBRANCH  16   9
ENDBRANCH  14  16
TORSDOF 10
ENDMDL
MODEL 9
REMARK VINA RESULT:      -6.4     25.317     28.913
REMARK  Name = 45360601
REMARK  13 active torsions:
REMARK  status: ('A' for Active; 'I' for Inactive)
REMARK    1  A    between atoms: O_2  and  C_12
REMARK    2  A    between atoms: O_3  and  C_13
REMARK    3  A    between atoms: O_5  and  C_24
REMARK    4  A    between atoms: O_5  and  C_35
REMARK    5  A    between atoms: N_8  and  C_22
REMARK    6  A    between atoms: N_9  and  C_16
REMARK    7  A    between atoms: N_10  and  C_34
REMARK    8  A    between atoms: N_10  and  C_36
REMARK    9  A    between atoms: N_10  and  C_37
REMARK   10  A    between atoms: C_11  and  C_15
REMARK   11  A    between atoms: C_14  and  C_16
REMARK   12  A    between atoms: C_15  and  C_17
REMARK   13  A    between atoms: C_23  and  C_26
REMARK                            x       y       z     vdW  Elec       q    Type
REMARK                         _______ _______ _______ _____ _____    ______ ____
ROOT
ATOM      1  O   UNL     1      11.700   8.401   7.371  0.00  0.00    -0.366 OA
ATOM     11  C   UNL     1      11.150   9.659   6.922  0.00  0.00    +0.159 C 
ATOM     12  C   UNL     1       9.637   9.544   7.069  0.00  0.00    +0.175 C 
ATOM     13  C   UNL     1       9.416   8.055   6.897  0.00  0.00    +0.176 C 
ATOM     14  C   UNL     1      10.622   7.483   7.626  0.00  0.00    +0.167 C 
ENDROOT
BRANCH  12   2
ATOM      2  O   UNL     1       9.287   9.946   8.393  0.00  0.00    -0.387 OA
ATOM     38  H   UNL     1       8.318   9.909   8.461  0.00  0.00    +0.210 HD
ENDBRANCH  12   2
BRANCH  13   3
ATOM      3  O   UNL     1       8.200   7.602   7.451  0.00  0.00    -0.387 OA
ATOM     39  H   UNL     1       8.392   6.791   7.953  0.00  0.00    +0.210 HD
ENDBRANCH  13   3
BRANCH  11  15
ATOM     15  C   UNL     1      11.595   9.876   5.482  0.00  0.00    +0.130 C 
BRANCH  15  17
ATOM      4  O   UNL     1      13.830  10.304   6.159  0.00  0.00    -0.276 OA
ATOM      7  N   UNL     1      13.543   8.861   4.360  0.00  0.00    -0.298 N 
ATOM      8  N   UNL     1      14.580   6.966   2.433  0.00  0.00    -0.324 N 
ATOM     17  C   UNL     1      13.090   9.705   5.374  0.00  0.00    +0.218 C 
ATOM     18  C   UNL     1      12.663   8.151   3.429  0.00  0.00    +0.126 C 
ATOM     19  C   UNL     1      14.977   8.640   4.194  0.00  0.00    +0.126 C 
ATOM     20  C   UNL     1      13.373   7.742   2.139  0.00  0.00    +0.124 C 
ATOM     21  C   UNL     1      15.284   7.231   3.692  0.00  0.00    +0.124 C 
BRANCH   8  22
ATOM     22  C   UNL     1      15.070   6.026   1.529  0.00  0.00    +0.072 A 
ATOM     24  C   UNL     1      15.955   6.405   0.521  0.00  0.00    +0.141 A 
ATOM     25  C   UNL     1      14.669   4.695   1.642  0.00  0.00    +0.027 A 
ATOM     27  C   UNL     1      16.439   5.453  -0.377  0.00  0.00    +0.047 A 
ATOM     28  C   UNL     1      15.152   3.743   0.744  0.00  0.00    +0.002 A 
ATOM     29  C   UNL     1      16.037   4.122  -0.265  0.00  0.00    +0.004 A 
BRANCH  24   5
ATOM      5  O   UNL     1      16.360   7.701   0.394  0.00  0.00    -0.493 OA
ATOM     35  C   UNL     1      17.761   7.931   0.267  0.00  0.00    +0.277 C 
ENDBRANCH  24   5
ENDBRANCH   8  22
ENDBRANCH  15  17
ENDBRANCH  11  15
BRANCH  14  16
ATOM     16  C   UNL     1      11.009   6.094   7.150  0.00  0.00    +0.138 C 
BRANCH  16   9
ATOM      6  O   UNL     1       9.742   4.075   5.549  0.00  0.00    -0.270 OA
ATOM      9  N   UNL     1      11.001   6.016   5.718  0.00  0.00    -0.309 N 
ATOM     23  C   UNL     1      10.358   4.997   5.021  0.00  0.00    +0.244 C 
ATOM     40  H   UNL     1      11.445   6.778   5.217  0.00  0.00    +0.149 HD
BRANCH  23  26
ATOM     26  C   UNL     1      10.464   5.045   3.541  0.00  0.00    +0.037 A 
ATOM     30  C   UNL     1      11.103   4.014   2.853  0.00  0.00    +0.015 A 
ATOM     31  C   UNL     1       9.923   6.122   2.837  0.00  0.00    +0.015 A 
ATOM     32  C   UNL     1      11.205   4.060   1.462  0.00  0.00    +0.024 A 
ATOM     33  C   UNL     1      10.024   6.168   1.446  0.00  0.00    +0.024 A 
ATOM     34  C   UNL     1      10.664   5.137   0.759  0.00  0.00    +0.029 A 
BRANCH  34  10
ATOM     10  N   UNL     1      10.765   5.184  -0.647  0.00  0.00    -0.336 N 
ATOM     36  C   UNL     1      12.046   5.001  -1.298  0.00  0.00    +0.129 C 
ATOM     37  C   UNL     1       9.588   5.424  -1.459  0.00  0.00    +0.129 C 
ENDBRANCH  34  10
ENDBRANCH  23  26
ENDBRANCH  16   9
ENDBRANCH  14  16
TORSDOF 10
ENDMDL
MODEL 10
REMARK VINA RESULT:      -6.1     25.690     27.969
REMARK  Name = 45360601
REMARK  13 active torsions:
REMARK  status: ('A' for Active; 'I' for Inactive)
REMARK    1  A    between atoms: O_2  and  C_12
REMARK    2  A    between atoms: O_3  and  C_13
REMARK    3  A    between atoms: O_5  and  C_24
REMARK    4  A    between atoms: O_5  and  C_35
REMARK    5  A    between atoms: N_8  and  C_22
REMARK    6  A    between atoms: N_9  and  C_16
REMARK    7  A    between atoms: N_10  and  C_34
REMARK    8  A    between atoms: N_10  and  C_36
REMARK    9  A    between atoms: N_10  and  C_37
REMARK   10  A    between atoms: C_11  and  C_15
REMARK   11  A    between atoms: C_14  and  C_16
REMARK   12  A    between atoms: C_15  and  C_17
REMARK   13  A    between atoms: C_23  and  C_26
REMARK                            x       y       z     vdW  Elec       q    Type
REMARK                         _______ _______ _______ _____ _____    ______ ____
ROOT
ATOM      1  O   UNL     1      12.536   4.884  -1.385  0.00  0.00    -0.366 OA
ATOM     11  C   UNL     1      13.189   3.598  -1.293  0.00  0.00    +0.159 C 
ATOM     12  C   UNL     1      12.326   2.621  -2.083  0.00  0.00    +0.175 C 
ATOM     13  C   UNL     1      10.948   3.234  -1.945  0.00  0.00    +0.176 C 
ATOM     14  C   UNL     1      11.265   4.718  -2.037  0.00  0.00    +0.167 C 
ENDROOT
BRANCH  12   2
ATOM      2  O   UNL     1      12.749   2.656  -3.446  0.00  0.00    -0.387 OA
ATOM     38  H   UNL     1      11.965   2.499  -3.998  0.00  0.00    +0.210 HD
ENDBRANCH  12   2
BRANCH  13   3
ATOM      3  O   UNL     1      10.049   2.822  -2.951  0.00  0.00    -0.387 OA
ATOM     39  H   UNL     1       9.969   3.552  -3.589  0.00  0.00    +0.210 HD
ENDBRANCH  13   3
BRANCH  11  15
ATOM     15  C   UNL     1      13.301   3.236   0.182  0.00  0.00    +0.130 C 
BRANCH  15  17
ATOM      4  O   UNL     1      14.900   4.874   0.815  0.00  0.00    -0.276 OA
ATOM      7  N   UNL     1      12.826   4.984   1.857  0.00  0.00    -0.298 N 
ATOM      8  N   UNL     1      10.904   6.323   3.558  0.00  0.00    -0.324 N 
ATOM     17  C   UNL     1      13.756   4.438   0.973  0.00  0.00    +0.218 C 
ATOM     18  C   UNL     1      11.468   4.464   2.043  0.00  0.00    +0.126 C 
ATOM     19  C   UNL     1      13.188   6.151   2.655  0.00  0.00    +0.126 C 
ATOM     20  C   UNL     1      10.857   4.870   3.384  0.00  0.00    +0.124 C 
ATOM     21  C   UNL     1      11.990   7.065   2.909  0.00  0.00    +0.124 C 
BRANCH   8  22
ATOM     22  C   UNL     1       9.964   6.984   4.346  0.00  0.00    +0.072 A 
ATOM     24  C   UNL     1      10.137   7.079   5.726  0.00  0.00    +0.141 A 
ATOM     25  C   UNL     1       8.845   7.556   3.741  0.00  0.00    +0.027 A 
ATOM     27  C   UNL     1       9.188   7.746   6.503  0.00  0.00    +0.047 A 
ATOM     28  C   UNL     1       7.897   8.222   4.518  0.00  0.00    +0.002 A 
ATOM     29  C   UNL     1       8.068   8.317   5.899  0.00  0.00    +0.004 A 
BRANCH  24   5
ATOM      5  O   UNL     1      11.224   6.528   6.337  0.00  0.00    -0.493 OA
ATOM     35  C   UNL     1      11.057   6.091   7.683  0.00  0.00    +0.277 C 
ENDBRANCH  24   5
ENDBRANCH   8  22
ENDBRANCH  15  17
ENDBRANCH  11  15
BRANCH  14  16
ATOM     16  C   UNL     1      10.226   5.598  -1.365  0.00  0.00    +0.138 C 
BRANCH  16   9
ATOM      6  O   UNL     1       8.765   7.808  -2.472  0.00  0.00    -0.270 OA
ATOM      9  N   UNL     1       8.970   5.535  -2.054  0.00  0.00    -0.309 N 
ATOM     23  C   UNL     1       8.330   6.663  -2.561  0.00  0.00    +0.244 C 
ATOM     40  H   UNL     1       8.582   4.612  -2.211  0.00  0.00    +0.149 HD
BRANCH  23  26
ATOM     26  C   UNL     1       7.023   6.433  -3.227  0.00  0.00    +0.037 A 
ATOM     30  C   UNL     1       5.850   6.920  -2.650  0.00  0.00    +0.015 A 
ATOM     31  C   UNL     1       6.967   5.729  -4.430  0.00  0.00    +0.015 A 
ATOM     32  C   UNL     1       4.622   6.702  -3.274  0.00  0.00    +0.024 A 
ATOM     33  C   UNL     1       5.739   5.512  -5.056  0.00  0.00    +0.024 A 
ATOM     34  C   UNL     1       4.566   5.999  -4.477  0.00  0.00    +0.029 A 
BRANCH  34  10
ATOM     10  N   UNL     1       3.326   5.779  -5.110  0.00  0.00    -0.336 N 
ATOM     36  C   UNL     1       3.047   6.369  -6.404  0.00  0.00    +0.129 C 
ATOM     37  C   UNL     1       2.310   4.966  -4.471  0.00  0.00    +0.129 C 
ENDBRANCH  34  10
ENDBRANCH  23  26
ENDBRANCH  16   9
ENDBRANCH  14  16
TORSDOF 10
ENDMDL
