REMARK  Name = 45783272
REMARK  8 active torsions:
REMARK  status: ('A' for Active; 'I' for Inactive)
REMARK    1  A    between atoms: O_3  and  C_29
REMARK    2  A    between atoms: O_3  and  C_30
REMARK    3  A    between atoms: N_4  and  C_10
REMARK    4  A    between atoms: N_9  and  C_28
REMARK    5  A    between atoms: C_11  and  C_19
REMARK    6  A    between atoms: C_20  and  C_21
REMARK    7  A    between atoms: C_22  and  C_23
REMARK    8  A    between atoms: C_28  and  C_29
REMARK                            x       y       z     vdW  Elec       q    Type
REMARK                         _______ _______ _______ _____ _____    ______ ____
ROOT
ATOM      1  O   UNL     1       1.506   3.100   1.254  0.00  0.00    -0.336 OA
ATOM      6  N   UNL     1       0.379   1.827  -0.204  0.00  0.00    -0.190 NA
ATOM      7  N   UNL     1       0.158   3.187   1.623  0.00  0.00    -0.056 NA
ATOM     19  C   UNL     1       1.548   2.281   0.171  0.00  0.00    +0.245 A 
ATOM     22  C   UNL     1      -0.443   2.409   0.717  0.00  0.00    +0.202 A 
ENDROOT
BRANCH  22  23
ATOM      8  N   UNL     1      -4.625   1.776   0.678  0.00  0.00    -0.240 NA
ATOM      9  N   UNL     1      -4.299  -0.195  -0.620  0.00  0.00    -0.327 N 
ATOM     23  C   UNL     1      -1.861   2.195   0.703  0.00  0.00    +0.027 A 
ATOM     24  C   UNL     1      -2.394   1.094   0.042  0.00  0.00    +0.055 A 
ATOM     25  C   UNL     1      -2.708   3.087   1.351  0.00  0.00    +0.031 A 
ATOM     26  C   UNL     1      -3.770   0.931   0.059  0.00  0.00    +0.119 A 
ATOM     27  C   UNL     1      -4.070   2.835   1.309  0.00  0.00    +0.113 A 
ATOM     31  H   UNL     1      -5.306  -0.304  -0.597  0.00  0.00    +0.148 HD
BRANCH   9  28
ATOM     28  C   UNL     1      -3.475  -1.139  -1.302  0.00  0.00    +0.131 C 
BRANCH  28  29
ATOM     29  C   UNL     1      -4.339  -2.206  -1.954  0.00  0.00    +0.178 C 
BRANCH  29   3
ATOM      3  O   UNL     1      -5.069  -2.903  -0.953  0.00  0.00    -0.381 OA
ATOM     30  C   UNL     1      -5.888  -3.918  -1.516  0.00  0.00    +0.194 C 
ENDBRANCH  29   3
ENDBRANCH  28  29
ENDBRANCH   9  28
ENDBRANCH  22  23
BRANCH  19  11
ATOM      4  N   UNL     1       2.996   0.718  -1.115  0.00  0.00    -0.288 NA
ATOM     11  C   UNL     1       2.915   2.022  -0.427  0.00  0.00    +0.146 C 
ATOM     12  C   UNL     1       3.989   0.872  -2.178  0.00  0.00    +0.085 C 
ATOM     13  C   UNL     1       3.300   3.055  -1.502  0.00  0.00    +0.030 C 
ATOM     16  C   UNL     1       3.639   2.235  -2.739  0.00  0.00    +0.017 C 
BRANCH   4  10
ATOM      2  O   UNL     1       1.993  -5.109   0.574  0.00  0.00    -0.276 OA
ATOM      5  N   UNL     1       2.626  -2.917   1.010  0.00  0.00    -0.302 N 
ATOM     10  C   UNL     1       3.321  -0.388  -0.216  0.00  0.00    +0.060 C 
ATOM     14  C   UNL     1       3.377  -1.705  -1.001  0.00  0.00    +0.038 C 
ATOM     15  C   UNL     1       2.279  -0.477   0.907  0.00  0.00    +0.038 C 
ATOM     17  C   UNL     1       3.620  -2.888  -0.065  0.00  0.00    +0.109 C 
ATOM     18  C   UNL     1       2.543  -1.685   1.805  0.00  0.00    +0.109 C 
ATOM     20  C   UNL     1       1.879  -4.073   1.234  0.00  0.00    +0.212 C 
ATOM     21  C   UNL     1       0.875  -4.022   2.358  0.00  0.00    +0.109 C 
ENDBRANCH   4  10
ENDBRANCH  19  11
TORSDOF 6
