MODEL 1
REMARK VINA RESULT:      -5.8      0.000      0.000
REMARK  Name = 75537008
REMARK  2 active torsions:
REMARK  status: ('A' for Active; 'I' for Inactive)
REMARK    1  A    between atoms: N_3  and  C_7
REMARK    2  A    between atoms: C_18  and  C_19
REMARK                            x       y       z     vdW  Elec       q    Type
REMARK                         _______ _______ _______ _____ _____    ______ ____
ROOT
ATOM      1  O   UNL     1      10.550   9.236  20.545  0.00  0.00    -0.252 OA
ATOM      2  O   UNL     1      16.457   5.823  19.165  0.00  0.00    -0.276 OA
ATOM      3  N   UNL     1      12.107  10.288  21.971  0.00  0.00    -0.281 N 
ATOM      4  N   UNL     1      12.843   8.720  20.539  0.00  0.00    -0.278 N 
ATOM      5  N   UNL     1      15.110   7.107  20.554  0.00  0.00    -0.298 N 
ATOM      6  C   UNL     1      14.046   9.235  21.168  0.00  0.00    +0.112 C 
ATOM      8  C   UNL     1      13.517  10.137  22.281  0.00  0.00    +0.133 C 
ATOM     11  C   UNL     1      14.932   8.086  21.643  0.00  0.00    +0.131 C 
ATOM     12  C   UNL     1      11.689   9.397  20.962  0.00  0.00    +0.305 C 
ATOM     13  C   UNL     1      12.946   7.694  19.518  0.00  0.00    +0.128 C 
ATOM     17  C   UNL     1      13.858   6.569  20.001  0.00  0.00    +0.127 C 
ATOM     18  C   UNL     1      16.335   6.663  20.061  0.00  0.00    +0.213 C 
ATOM     19  C   UNL     1      17.570   7.267  20.679  0.00  0.00    +0.109 C 
ENDROOT
BRANCH   3   7
ATOM      7  C   UNL     1      11.247  11.162  22.732  0.00  0.00    +0.078 C 
ATOM      9  C   UNL     1      11.717  11.255  24.185  0.00  0.00    +0.022 C 
ATOM     10  C   UNL     1      11.176  12.545  22.079  0.00  0.00    +0.022 C 
ATOM     14  C   UNL     1      10.853  12.218  24.995  0.00  0.00    +0.002 C 
ATOM     15  C   UNL     1      10.314  13.507  22.892  0.00  0.00    +0.002 C 
ATOM     16  C   UNL     1      10.782  13.595  24.341  0.00  0.00    +0.000 C 
ENDBRANCH   3   7
TORSDOF 1
ENDMDL
MODEL 2
REMARK VINA RESULT:      -5.8      2.314      7.261
REMARK  Name = 75537008
REMARK  2 active torsions:
REMARK  status: ('A' for Active; 'I' for Inactive)
REMARK    1  A    between atoms: N_3  and  C_7
REMARK    2  A    between atoms: C_18  and  C_19
REMARK                            x       y       z     vdW  Elec       q    Type
REMARK                         _______ _______ _______ _____ _____    ______ ____
ROOT
ATOM      1  O   UNL     1      16.675   5.825  18.475  0.00  0.00    -0.252 OA
ATOM      2  O   UNL     1      10.398   8.557  19.733  0.00  0.00    -0.276 OA
ATOM      3  N   UNL     1      17.054   7.143  20.394  0.00  0.00    -0.281 N 
ATOM      4  N   UNL     1      14.958   6.962  19.606  0.00  0.00    -0.278 N 
ATOM      5  N   UNL     1      12.715   8.582  19.903  0.00  0.00    -0.298 N 
ATOM      6  C   UNL     1      14.823   7.728  20.832  0.00  0.00    +0.112 C 
ATOM      8  C   UNL     1      16.265   8.024  21.237  0.00  0.00    +0.133 C 
ATOM     11  C   UNL     1      13.959   8.965  20.594  0.00  0.00    +0.131 C 
ATOM     12  C   UNL     1      16.278   6.548  19.379  0.00  0.00    +0.305 C 
ATOM     13  C   UNL     1      13.776   6.624  18.833  0.00  0.00    +0.128 C 
ATOM     17  C   UNL     1      12.914   7.868  18.632  0.00  0.00    +0.127 C 
ATOM     18  C   UNL     1      11.424   8.867  20.345  0.00  0.00    +0.213 C 
ATOM     19  C   UNL     1      11.308   9.599  21.657  0.00  0.00    +0.109 C 
ENDROOT
BRANCH   3   7
ATOM      7  C   UNL     1      18.486   7.034  20.534  0.00  0.00    +0.078 C 
ATOM      9  C   UNL     1      18.950   7.641  21.860  0.00  0.00    +0.022 C 
ATOM     10  C   UNL     1      18.927   5.574  20.405  0.00  0.00    +0.022 C 
ATOM     14  C   UNL     1      20.457   7.487  22.052  0.00  0.00    +0.002 C 
ATOM     15  C   UNL     1      20.434   5.421  20.600  0.00  0.00    +0.002 C 
ATOM     16  C   UNL     1      20.895   6.031  21.920  0.00  0.00    +0.000 C 
ENDBRANCH   3   7
TORSDOF 1
ENDMDL
MODEL 3
REMARK VINA RESULT:      -5.7     29.092     30.455
REMARK  Name = 75537008
REMARK  2 active torsions:
REMARK  status: ('A' for Active; 'I' for Inactive)
REMARK    1  A    between atoms: N_3  and  C_7
REMARK    2  A    between atoms: C_18  and  C_19
REMARK                            x       y       z     vdW  Elec       q    Type
REMARK                         _______ _______ _______ _____ _____    ______ ____
ROOT
ATOM      1  O   UNL     1     -14.201   4.353  35.023  0.00  0.00    -0.252 OA
ATOM      2  O   UNL     1     -15.707  -0.717  30.497  0.00  0.00    -0.276 OA
ATOM      3  N   UNL     1     -14.738   5.546  33.061  0.00  0.00    -0.281 N 
ATOM      4  N   UNL     1     -14.973   3.312  33.063  0.00  0.00    -0.278 N 
ATOM      5  N   UNL     1     -15.028   1.447  30.998  0.00  0.00    -0.298 N 
ATOM      6  C   UNL     1     -15.489   3.733  31.772  0.00  0.00    +0.112 C 
ATOM      8  C   UNL     1     -15.127   5.214  31.702  0.00  0.00    +0.133 C 
ATOM     11  C   UNL     1     -14.896   2.876  30.657  0.00  0.00    +0.131 C 
ATOM     12  C   UNL     1     -14.592   4.398  33.864  0.00  0.00    +0.305 C 
ATOM     13  C   UNL     1     -14.997   1.906  33.425  0.00  0.00    +0.128 C 
ATOM     17  C   UNL     1     -14.427   1.066  32.285  0.00  0.00    +0.127 C 
ATOM     18  C   UNL     1     -15.633   0.479  30.199  0.00  0.00    +0.213 C 
ATOM     19  C   UNL     1     -16.226   0.953  28.898  0.00  0.00    +0.109 C 
ENDROOT
BRANCH   3   7
ATOM      7  C   UNL     1     -14.415   6.896  33.454  0.00  0.00    +0.078 C 
ATOM      9  C   UNL     1     -13.082   7.336  32.843  0.00  0.00    +0.022 C 
ATOM     10  C   UNL     1     -15.547   7.852  33.069  0.00  0.00    +0.022 C 
ATOM     14  C   UNL     1     -12.749   8.782  33.203  0.00  0.00    +0.002 C 
ATOM     15  C   UNL     1     -15.210   9.298  33.427  0.00  0.00    +0.002 C 
ATOM     16  C   UNL     1     -13.879   9.732  32.820  0.00  0.00    +0.000 C 
ENDBRANCH   3   7
TORSDOF 1
ENDMDL
MODEL 4
REMARK VINA RESULT:      -5.7      2.393      2.722
REMARK  Name = 75537008
REMARK  2 active torsions:
REMARK  status: ('A' for Active; 'I' for Inactive)
REMARK    1  A    between atoms: N_3  and  C_7
REMARK    2  A    between atoms: C_18  and  C_19
REMARK                            x       y       z     vdW  Elec       q    Type
REMARK                         _______ _______ _______ _____ _____    ______ ____
ROOT
ATOM      1  O   UNL     1      10.548   8.815  23.045  0.00  0.00    -0.252 OA
ATOM      2  O   UNL     1      13.159   7.826  16.669  0.00  0.00    -0.276 OA
ATOM      3  N   UNL     1      11.865  10.744  22.715  0.00  0.00    -0.281 N 
ATOM      4  N   UNL     1      11.648   9.282  21.022  0.00  0.00    -0.278 N 
ATOM      5  N   UNL     1      13.225   8.783  18.784  0.00  0.00    -0.298 N 
ATOM      6  C   UNL     1      12.407  10.385  20.459  0.00  0.00    +0.112 C 
ATOM      8  C   UNL     1      12.727  11.260  21.667  0.00  0.00    +0.133 C 
ATOM     11  C   UNL     1      13.629   9.861  19.707  0.00  0.00    +0.131 C 
ATOM     12  C   UNL     1      11.260   9.525  22.347  0.00  0.00    +0.305 C 
ATOM     13  C   UNL     1      11.292   8.150  20.186  0.00  0.00    +0.128 C 
ATOM     17  C   UNL     1      12.520   7.661  19.422  0.00  0.00    +0.127 C 
ATOM     18  C   UNL     1      13.485   8.753  17.416  0.00  0.00    +0.213 C 
ATOM     19  C   UNL     1      14.209   9.943  16.841  0.00  0.00    +0.109 C 
ENDROOT
BRANCH   3   7
ATOM      7  C   UNL     1      11.782  11.369  24.013  0.00  0.00    +0.078 C 
ATOM      9  C   UNL     1      13.133  11.962  24.417  0.00  0.00    +0.022 C 
ATOM     10  C   UNL     1      10.680  12.432  24.026  0.00  0.00    +0.022 C 
ATOM     14  C   UNL     1      13.053  12.676  25.764  0.00  0.00    +0.002 C 
ATOM     15  C   UNL     1      10.603  13.146  25.373  0.00  0.00    +0.002 C 
ATOM     16  C   UNL     1      11.952  13.733  25.776  0.00  0.00    +0.000 C 
ENDBRANCH   3   7
TORSDOF 1
ENDMDL
MODEL 5
REMARK VINA RESULT:      -5.6     26.922     29.056
REMARK  Name = 75537008
REMARK  2 active torsions:
REMARK  status: ('A' for Active; 'I' for Inactive)
REMARK    1  A    between atoms: N_3  and  C_7
REMARK    2  A    between atoms: C_18  and  C_19
REMARK                            x       y       z     vdW  Elec       q    Type
REMARK                         _______ _______ _______ _____ _____    ______ ____
ROOT
ATOM      1  O   UNL     1      -5.340 -12.454  18.101  0.00  0.00    -0.252 OA
ATOM      2  O   UNL     1     -11.523  -9.337  18.814  0.00  0.00    -0.276 OA
ATOM      3  N   UNL     1      -5.281 -10.788  16.432  0.00  0.00    -0.281 N 
ATOM      4  N   UNL     1      -7.048 -10.865  17.818  0.00  0.00    -0.278 N 
ATOM      5  N   UNL     1      -9.651  -9.913  17.566  0.00  0.00    -0.298 N 
ATOM      6  C   UNL     1      -7.269  -9.680  17.009  0.00  0.00    +0.112 C 
ATOM      8  C   UNL     1      -6.182  -9.761  15.940  0.00  0.00    +0.133 C 
ATOM     11  C   UNL     1      -8.697  -9.662  16.469  0.00  0.00    +0.131 C 
ATOM     12  C   UNL     1      -5.827 -11.489  17.526  0.00  0.00    +0.305 C 
ATOM     13  C   UNL     1      -7.997 -11.214  18.860  0.00  0.00    +0.128 C 
ATOM     17  C   UNL     1      -9.419 -11.162  18.306  0.00  0.00    +0.127 C 
ATOM     18  C   UNL     1     -10.723  -9.091  17.907  0.00  0.00    +0.213 C 
ATOM     19  C   UNL     1     -10.888  -7.828  17.101  0.00  0.00    +0.109 C 
ENDROOT
BRANCH   3   7
ATOM      7  C   UNL     1      -4.047 -11.108  15.757  0.00  0.00    +0.078 C 
ATOM      9  C   UNL     1      -4.098 -10.665  14.293  0.00  0.00    +0.022 C 
ATOM     10  C   UNL     1      -2.858 -10.478  16.488  0.00  0.00    +0.022 C 
ATOM     14  C   UNL     1      -2.780 -10.945  13.574  0.00  0.00    +0.002 C 
ATOM     15  C   UNL     1      -1.542 -10.757  15.766  0.00  0.00    +0.002 C 
ATOM     16  C   UNL     1      -1.597 -10.319  14.306  0.00  0.00    +0.000 C 
ENDBRANCH   3   7
TORSDOF 1
ENDMDL
MODEL 6
REMARK VINA RESULT:      -5.6     17.058     19.873
REMARK  Name = 75537008
REMARK  2 active torsions:
REMARK  status: ('A' for Active; 'I' for Inactive)
REMARK    1  A    between atoms: N_3  and  C_7
REMARK    2  A    between atoms: C_18  and  C_19
REMARK                            x       y       z     vdW  Elec       q    Type
REMARK                         _______ _______ _______ _____ _____    ______ ____
ROOT
ATOM      1  O   UNL     1       9.804   7.443   1.468  0.00  0.00    -0.252 OA
ATOM      2  O   UNL     1       8.481   7.326   8.301  0.00  0.00    -0.276 OA
ATOM      3  N   UNL     1      10.879   5.466   2.175  0.00  0.00    -0.281 N 
ATOM      4  N   UNL     1       9.673   6.632   3.670  0.00  0.00    -0.278 N 
ATOM      5  N   UNL     1       9.751   6.730   6.449  0.00  0.00    -0.298 N 
ATOM      6  C   UNL     1      10.090   5.440   4.386  0.00  0.00    +0.112 C 
ATOM      8  C   UNL     1      11.078   4.771   3.434  0.00  0.00    +0.133 C 
ATOM     11  C   UNL     1      10.669   5.814   5.749  0.00  0.00    +0.131 C 
ATOM     12  C   UNL     1      10.080   6.617   2.328  0.00  0.00    +0.305 C 
ATOM     13  C   UNL     1       8.836   7.616   4.332  0.00  0.00    +0.128 C 
ATOM     17  C   UNL     1       9.417   7.953   5.703  0.00  0.00    +0.127 C 
ATOM     18  C   UNL     1       9.228   6.530   7.725  0.00  0.00    +0.213 C 
ATOM     19  C   UNL     1       9.617   5.250   8.420  0.00  0.00    +0.109 C 
ENDROOT
BRANCH   3   7
ATOM      7  C   UNL     1      11.557   5.066   0.966  0.00  0.00    +0.078 C 
ATOM      9  C   UNL     1      12.702   4.100   1.280  0.00  0.00    +0.022 C 
ATOM     10  C   UNL     1      10.566   4.451  -0.026  0.00  0.00    +0.022 C 
ATOM     14  C   UNL     1      13.398   3.621   0.009  0.00  0.00    +0.002 C 
ATOM     15  C   UNL     1      11.264   3.970  -1.295  0.00  0.00    +0.002 C 
ATOM     16  C   UNL     1      12.408   3.011  -0.979  0.00  0.00    +0.000 C 
ENDBRANCH   3   7
TORSDOF 1
ENDMDL
MODEL 7
REMARK VINA RESULT:      -5.6     27.811     28.776
REMARK  Name = 75537008
REMARK  2 active torsions:
REMARK  status: ('A' for Active; 'I' for Inactive)
REMARK    1  A    between atoms: N_3  and  C_7
REMARK    2  A    between atoms: C_18  and  C_19
REMARK                            x       y       z     vdW  Elec       q    Type
REMARK                         _______ _______ _______ _____ _____    ______ ____
ROOT
ATOM      1  O   UNL     1      -8.146  -9.505  13.102  0.00  0.00    -0.252 OA
ATOM      2  O   UNL     1      -6.926 -10.672  19.854  0.00  0.00    -0.276 OA
ATOM      3  N   UNL     1      -5.924 -10.295  13.102  0.00  0.00    -0.281 N 
ATOM      4  N   UNL     1      -7.059 -10.266  15.041  0.00  0.00    -0.278 N 
ATOM      5  N   UNL     1      -6.210 -10.223  17.691  0.00  0.00    -0.298 N 
ATOM      6  C   UNL     1      -5.795 -10.903  15.366  0.00  0.00    +0.112 C 
ATOM      8  C   UNL     1      -4.961 -10.723  14.101  0.00  0.00    +0.133 C 
ATOM     11  C   UNL     1      -5.193 -10.281  16.624  0.00  0.00    +0.131 C 
ATOM     12  C   UNL     1      -7.169  -9.967  13.675  0.00  0.00    +0.305 C 
ATOM     13  C   UNL     1      -8.070 -10.102  16.070  0.00  0.00    +0.128 C 
ATOM     17  C   UNL     1      -7.441  -9.506  17.327  0.00  0.00    +0.127 C 
ATOM     18  C   UNL     1      -6.069 -10.757  18.970  0.00  0.00    +0.213 C 
ATOM     19  C   UNL     1      -4.778 -11.479  19.261  0.00  0.00    +0.109 C 
ENDROOT
BRANCH   3   7
ATOM      7  C   UNL     1      -5.558 -10.111  11.719  0.00  0.00    +0.078 C 
ATOM      9  C   UNL     1      -5.484  -8.622  11.371  0.00  0.00    +0.022 C 
ATOM     10  C   UNL     1      -4.236 -10.821  11.414  0.00  0.00    +0.022 C 
ATOM     14  C   UNL     1      -5.045  -8.404   9.925  0.00  0.00    +0.002 C 
ATOM     15  C   UNL     1      -3.798 -10.599   9.969  0.00  0.00    +0.002 C 
ATOM     16  C   UNL     1      -3.728  -9.115   9.623  0.00  0.00    +0.000 C 
ENDBRANCH   3   7
TORSDOF 1
ENDMDL
MODEL 8
REMARK VINA RESULT:      -5.5     27.131     28.077
REMARK  Name = 75537008
REMARK  2 active torsions:
REMARK  status: ('A' for Active; 'I' for Inactive)
REMARK    1  A    between atoms: N_3  and  C_7
REMARK    2  A    between atoms: C_18  and  C_19
REMARK                            x       y       z     vdW  Elec       q    Type
REMARK                         _______ _______ _______ _____ _____    ______ ____
ROOT
ATOM      1  O   UNL     1      -2.168 -10.824  15.048  0.00  0.00    -0.252 OA
ATOM      2  O   UNL     1      -4.454 -10.006   8.524  0.00  0.00    -0.276 OA
ATOM      3  N   UNL     1      -4.495 -10.569  15.338  0.00  0.00    -0.281 N 
ATOM      4  N   UNL     1      -3.670 -10.648  13.249  0.00  0.00    -0.278 N 
ATOM      5  N   UNL     1      -4.669  -9.727  10.820  0.00  0.00    -0.298 N 
ATOM      6  C   UNL     1      -5.111 -10.605  13.072  0.00  0.00    +0.112 C 
ATOM      8  C   UNL     1      -5.642 -10.337  14.478  0.00  0.00    +0.133 C 
ATOM     11  C   UNL     1      -5.488  -9.552  12.033  0.00  0.00    +0.131 C 
ATOM     12  C   UNL     1      -3.301 -10.700  14.601  0.00  0.00    +0.305 C 
ATOM     13  C   UNL     1      -2.803 -10.736  12.088  0.00  0.00    +0.128 C 
ATOM     17  C   UNL     1      -3.216  -9.694  11.051  0.00  0.00    +0.127 C 
ATOM     18  C   UNL     1      -5.164  -9.886   9.528  0.00  0.00    +0.213 C 
ATOM     19  C   UNL     1      -6.663  -9.913   9.378  0.00  0.00    +0.109 C 
ENDROOT
BRANCH   3   7
ATOM      7  C   UNL     1      -4.597 -10.521  16.776  0.00  0.00    +0.078 C 
ATOM      9  C   UNL     1      -6.047 -10.292  17.210  0.00  0.00    +0.022 C 
ATOM     10  C   UNL     1      -4.024 -11.797  17.397  0.00  0.00    +0.022 C 
ATOM     14  C   UNL     1      -6.185 -10.293  18.730  0.00  0.00    +0.002 C 
ATOM     15  C   UNL     1      -4.166 -11.797  18.917  0.00  0.00    +0.002 C 
ATOM     16  C   UNL     1      -5.611 -11.565  19.347  0.00  0.00    +0.000 C 
ENDBRANCH   3   7
TORSDOF 1
ENDMDL
MODEL 9
REMARK VINA RESULT:      -5.4     26.936     28.633
REMARK  Name = 75537008
REMARK  2 active torsions:
REMARK  status: ('A' for Active; 'I' for Inactive)
REMARK    1  A    between atoms: N_3  and  C_7
REMARK    2  A    between atoms: C_18  and  C_19
REMARK                            x       y       z     vdW  Elec       q    Type
REMARK                         _______ _______ _______ _____ _____    ______ ____
ROOT
ATOM      1  O   UNL     1      -2.170 -10.928  14.611  0.00  0.00    -0.252 OA
ATOM      2  O   UNL     1      -6.832 -10.674  19.774  0.00  0.00    -0.276 OA
ATOM      3  N   UNL     1      -4.186 -10.479  13.473  0.00  0.00    -0.281 N 
ATOM      4  N   UNL     1      -4.207 -10.546  15.718  0.00  0.00    -0.278 N 
ATOM      5  N   UNL     1      -6.258 -10.993  17.546  0.00  0.00    -0.298 N 
ATOM      6  C   UNL     1      -5.552 -10.140  15.352  0.00  0.00    +0.112 C 
ATOM      8  C   UNL     1      -5.582 -10.307  13.835  0.00  0.00    +0.133 C 
ATOM     11  C   UNL     1      -6.584 -10.973  16.108  0.00  0.00    +0.131 C 
ATOM     12  C   UNL     1      -3.368 -10.678  14.602  0.00  0.00    +0.305 C 
ATOM     13  C   UNL     1      -3.846 -10.666  17.119  0.00  0.00    +0.128 C 
ATOM     17  C   UNL     1      -4.905 -11.478  17.861  0.00  0.00    +0.127 C 
ATOM     18  C   UNL     1      -7.121 -10.624  18.575  0.00  0.00    +0.213 C 
ATOM     19  C   UNL     1      -8.487 -10.136  18.166  0.00  0.00    +0.109 C 
ENDROOT
BRANCH   3   7
ATOM      7  C   UNL     1      -3.760 -10.568  12.097  0.00  0.00    +0.078 C 
ATOM      9  C   UNL     1      -4.101 -11.941  11.511  0.00  0.00    +0.022 C 
ATOM     10  C   UNL     1      -4.380  -9.440  11.269  0.00  0.00    +0.022 C 
ATOM     14  C   UNL     1      -3.707 -12.037  10.039  0.00  0.00    +0.002 C 
ATOM     15  C   UNL     1      -3.988  -9.539   9.797  0.00  0.00    +0.002 C 
ATOM     16  C   UNL     1      -4.325 -10.909   9.217  0.00  0.00    +0.000 C 
ENDBRANCH   3   7
TORSDOF 1
ENDMDL
MODEL 10
REMARK VINA RESULT:      -5.4     28.297     30.156
REMARK  Name = 75537008
REMARK  2 active torsions:
REMARK  status: ('A' for Active; 'I' for Inactive)
REMARK    1  A    between atoms: N_3  and  C_7
REMARK    2  A    between atoms: C_18  and  C_19
REMARK                            x       y       z     vdW  Elec       q    Type
REMARK                         _______ _______ _______ _____ _____    ______ ____
ROOT
ATOM      1  O   UNL     1      -9.770 -11.320  19.299  0.00  0.00    -0.252 OA
ATOM      2  O   UNL     1     -13.563  -6.485  16.031  0.00  0.00    -0.276 OA
ATOM      3  N   UNL     1      -8.190 -10.283  17.888  0.00  0.00    -0.281 N 
ATOM      4  N   UNL     1     -10.277  -9.454  17.965  0.00  0.00    -0.278 N 
ATOM      5  N   UNL     1     -11.728  -7.903  16.167  0.00  0.00    -0.298 N 
ATOM      6  C   UNL     1      -9.549  -8.533  17.111  0.00  0.00    +0.112 C 
ATOM      8  C   UNL     1      -8.204  -9.222  16.897  0.00  0.00    +0.133 C 
ATOM     11  C   UNL     1     -10.336  -8.257  15.832  0.00  0.00    +0.131 C 
ATOM     12  C   UNL     1      -9.452 -10.459  18.490  0.00  0.00    +0.305 C 
ATOM     13  C   UNL     1     -11.676  -9.206  18.265  0.00  0.00    +0.128 C 
ATOM     17  C   UNL     1     -12.438  -8.905  16.977  0.00  0.00    +0.127 C 
ATOM     18  C   UNL     1     -12.388  -6.746  15.758  0.00  0.00    +0.213 C 
ATOM     19  C   UNL     1     -11.588  -5.770  14.934  0.00  0.00    +0.109 C 
ENDROOT
BRANCH   3   7
ATOM      7  C   UNL     1      -7.034 -11.122  18.094  0.00  0.00    +0.078 C 
ATOM      9  C   UNL     1      -6.117 -11.091  16.869  0.00  0.00    +0.022 C 
ATOM     10  C   UNL     1      -6.286 -10.701  19.362  0.00  0.00    +0.022 C 
ATOM     14  C   UNL     1      -4.860 -11.929  17.088  0.00  0.00    +0.002 C 
ATOM     15  C   UNL     1      -5.028 -11.539  19.577  0.00  0.00    +0.002 C 
ATOM     16  C   UNL     1      -4.117 -11.510  18.354  0.00  0.00    +0.000 C 
ENDBRANCH   3   7
TORSDOF 1
ENDMDL
