REMARK  Name = 45784195
REMARK  4 active torsions:
REMARK  status: ('A' for Active; 'I' for Inactive)
REMARK    1  A    between atoms: N_4  and  C_10
REMARK    2  A    between atoms: C_6  and  C_11
REMARK    3  A    between atoms: C_10  and  C_12
REMARK    4  A    between atoms: C_22  and  C_25
REMARK                            x       y       z     vdW  Elec       q    Type
REMARK                         _______ _______ _______ _____ _____    ______ ____
ROOT
ATOM      4  N   UNL     1      -1.046  -0.477  -0.212  0.00  0.00    -0.297 NA
ATOM      6  C   UNL     1       1.141  -0.903   0.518  0.00  0.00    +0.090 C 
ATOM      7  C   UNL     1       0.290  -0.742  -0.749  0.00  0.00    +0.097 C 
ATOM      8  C   UNL     1       0.381  -0.116   1.600  0.00  0.00    +0.029 C 
ATOM      9  C   UNL     1      -0.832   0.466   0.886  0.00  0.00    +0.085 C 
ENDROOT
BRANCH   6  11
ATOM      1  O   UNL     1       3.516  -1.449   0.529  0.00  0.00    -0.439 OA
ATOM      5  N   UNL     1       3.045   0.696  -0.030  0.00  0.00    -0.213 NA
ATOM     11  C   UNL     1       2.579  -0.482   0.319  0.00  0.00    +0.201 A 
ATOM     13  C   UNL     1       4.405   0.503  -0.056  0.00  0.00    +0.110 A 
ATOM     14  C   UNL     1       4.697  -0.809   0.285  0.00  0.00    +0.155 A 
ATOM     18  C   UNL     1       5.461   1.377  -0.357  0.00  0.00    +0.035 A 
ATOM     21  C   UNL     1       5.978  -1.342   0.357  0.00  0.00    +0.049 A 
ATOM     22  C   UNL     1       6.769   0.874  -0.295  0.00  0.00    -0.048 A 
ATOM     23  C   UNL     1       7.020  -0.458   0.054  0.00  0.00    +0.007 A 
ATOM     25  C   UNL     1       7.915   1.780  -0.610  0.00  0.00    +0.044 C 
ENDBRANCH   6  11
BRANCH   4  10
ATOM     10  C   UNL     1      -1.957   0.044  -1.220  0.00  0.00    +0.119 C 
BRANCH  10  12
ATOM      2  O   UNL     1      -6.254   1.811   0.484  0.00  0.00    -0.453 OA
ATOM      3  O   UNL     1      -7.326  -0.344   0.358  0.00  0.00    -0.453 OA
ATOM     12  C   UNL     1      -3.396  -0.097  -0.803  0.00  0.00    -0.030 A 
ATOM     15  C   UNL     1      -4.100   1.022  -0.349  0.00  0.00    +0.054 A 
ATOM     16  C   UNL     1      -4.022  -1.354  -0.876  0.00  0.00    +0.009 A 
ATOM     17  C   UNL     1      -5.417   0.843   0.019  0.00  0.00    +0.167 A 
ATOM     19  C   UNL     1      -5.357  -1.507  -0.497  0.00  0.00    +0.050 A 
ATOM     20  C   UNL     1      -6.029  -0.387  -0.052  0.00  0.00    +0.166 A 
ATOM     24  C   UNL     1      -7.462   1.051   0.696  0.00  0.00    +0.466 C 
ENDBRANCH  10  12
ENDBRANCH   4  10
TORSDOF 3
