MODEL 1
REMARK VINA RESULT:      -7.5      0.000      0.000
REMARK  Name = 40587816
REMARK  4 active torsions:
REMARK  status: ('A' for Active; 'I' for Inactive)
REMARK    1  A    between atoms: S_1  and  C_27
REMARK    2  A    between atoms: S_1  and  C_31
REMARK    3  A    between atoms: N_6  and  C_20
REMARK    4  A    between atoms: C_17  and  C_19
REMARK                            x       y       z     vdW  Elec       q    Type
REMARK                         _______ _______ _______ _____ _____    ______ ____
ROOT
ATOM      2  O   UNL     1      10.672   7.349   2.373  0.00  0.00    -0.267 OA
ATOM      3  O   UNL     1      13.363   6.313   7.412  0.00  0.00    -0.252 OA
ATOM      4  N   UNL     1      11.494   7.674   7.315  0.00  0.00    -0.284 N 
ATOM      5  N   UNL     1      10.037   6.918   4.574  0.00  0.00    -0.311 N 
ATOM      6  N   UNL     1      13.611   8.499   6.677  0.00  0.00    -0.269 N 
ATOM      7  C   UNL     1       9.516   8.783   6.247  0.00  0.00    +0.027 C 
ATOM      8  C   UNL     1       9.364   6.435   6.954  0.00  0.00    +0.054 C 
ATOM      9  C   UNL     1       8.602   7.757   6.904  0.00  0.00    +0.018 C 
ATOM     10  C   UNL     1       9.784   8.347   4.801  0.00  0.00    +0.130 C 
ATOM     11  C   UNL     1      10.823   8.956   7.047  0.00  0.00    +0.114 C 
ATOM     12  C   UNL     1      10.621   6.610   7.825  0.00  0.00    +0.119 C 
ATOM     13  C   UNL     1       9.762   5.972   5.565  0.00  0.00    +0.027 A 
ATOM     14  C   UNL     1       9.884   4.662   5.297  0.00  0.00    +0.022 A 
ATOM     15  C   UNL     1      10.457   6.546   3.282  0.00  0.00    +0.259 A 
ATOM     16  C   UNL     1      12.872   7.412   7.144  0.00  0.00    +0.306 C 
ATOM     17  C   UNL     1      10.625   5.073   3.025  0.00  0.00    +0.047 A 
ATOM     18  C   UNL     1      10.328   4.211   4.008  0.00  0.00    +0.015 A 
ATOM     32  H   UNL     1      13.303   9.432   6.934  0.00  0.00    +0.156 HD
ENDROOT
BRANCH  17  19
ATOM     19  C   UNL     1      11.113   4.576   1.726  0.00  0.00    -0.013 A 
ATOM     21  C   UNL     1      10.321   4.712   0.586  0.00  0.00    +0.010 A 
ATOM     22  C   UNL     1      12.366   3.972   1.637  0.00  0.00    +0.010 A 
ATOM     23  C   UNL     1      10.784   4.243  -0.644  0.00  0.00    +0.015 A 
ATOM     24  C   UNL     1      12.830   3.503   0.409  0.00  0.00    +0.015 A 
ATOM     27  C   UNL     1      12.038   3.638  -0.732  0.00  0.00    +0.008 A 
BRANCH  27   1
ATOM      1  S   UNL     1      12.628   3.039  -2.304  0.00  0.00    -0.129 S 
ATOM     31  C   UNL     1      11.073   2.689  -3.172  0.00  0.00    +0.090 C 
ENDBRANCH  27   1
ENDBRANCH  17  19
BRANCH   6  20
ATOM     20  C   UNL     1      14.779   8.459   5.877  0.00  0.00    +0.035 A 
ATOM     25  C   UNL     1      14.818   7.651   4.741  0.00  0.00    +0.023 A 
ATOM     26  C   UNL     1      15.889   9.228   6.225  0.00  0.00    +0.023 A 
ATOM     28  C   UNL     1      15.968   7.612   3.953  0.00  0.00    +0.002 A 
ATOM     29  C   UNL     1      17.040   9.189   5.437  0.00  0.00    +0.002 A 
ATOM     30  C   UNL     1      17.079   8.380   4.301  0.00  0.00    +0.000 A 
ENDBRANCH   6  20
TORSDOF 3
ENDMDL
MODEL 2
REMARK VINA RESULT:      -7.3     14.276     16.401
REMARK  Name = 40587816
REMARK  4 active torsions:
REMARK  status: ('A' for Active; 'I' for Inactive)
REMARK    1  A    between atoms: S_1  and  C_27
REMARK    2  A    between atoms: S_1  and  C_31
REMARK    3  A    between atoms: N_6  and  C_20
REMARK    4  A    between atoms: C_17  and  C_19
REMARK                            x       y       z     vdW  Elec       q    Type
REMARK                         _______ _______ _______ _____ _____    ______ ____
ROOT
ATOM      2  O   UNL     1      14.323  12.061  19.678  0.00  0.00    -0.267 OA
ATOM      3  O   UNL     1      15.343   6.363  19.226  0.00  0.00    -0.252 OA
ATOM      4  N   UNL     1      13.551   7.161  20.455  0.00  0.00    -0.284 N 
ATOM      5  N   UNL     1      13.049  10.130  19.389  0.00  0.00    -0.311 N 
ATOM      6  N   UNL     1      15.732   7.195  21.356  0.00  0.00    -0.269 N 
ATOM      7  C   UNL     1      11.968   8.887  21.347  0.00  0.00    +0.027 C 
ATOM      8  C   UNL     1      11.684   8.037  19.060  0.00  0.00    +0.054 C 
ATOM      9  C   UNL     1      10.931   8.446  20.323  0.00  0.00    +0.018 C 
ATOM     10  C   UNL     1      12.689  10.131  20.813  0.00  0.00    +0.130 C 
ATOM     11  C   UNL     1      12.954   7.745  21.667  0.00  0.00    +0.114 C 
ATOM     12  C   UNL     1      12.600   6.844  19.384  0.00  0.00    +0.119 C 
ATOM     13  C   UNL     1      12.511   9.185  18.511  0.00  0.00    +0.027 A 
ATOM     14  C   UNL     1      12.755   9.274  17.194  0.00  0.00    +0.022 A 
ATOM     15  C   UNL     1      13.863  11.188  18.940  0.00  0.00    +0.259 A 
ATOM     16  C   UNL     1      14.923   6.874  20.267  0.00  0.00    +0.306 C 
ATOM     17  C   UNL     1      14.153  11.238  17.464  0.00  0.00    +0.047 A 
ATOM     18  C   UNL     1      13.593  10.314  16.668  0.00  0.00    +0.015 A 
ATOM     32  H   UNL     1      15.328   7.136  22.286  0.00  0.00    +0.156 HD
ENDROOT
BRANCH  17  19
ATOM     19  C   UNL     1      15.038  12.269  16.895  0.00  0.00    -0.013 A 
ATOM     21  C   UNL     1      16.412  12.211  17.121  0.00  0.00    +0.010 A 
ATOM     22  C   UNL     1      14.501  13.302  16.127  0.00  0.00    +0.010 A 
ATOM     23  C   UNL     1      17.251  13.186  16.580  0.00  0.00    +0.015 A 
ATOM     24  C   UNL     1      15.338  14.277  15.586  0.00  0.00    +0.015 A 
ATOM     27  C   UNL     1      16.713  14.219  15.812  0.00  0.00    +0.008 A 
BRANCH  27   1
ATOM      1  S   UNL     1      17.784  15.465  15.122  0.00  0.00    -0.129 S 
ATOM     31  C   UNL     1      18.622  14.540  13.804  0.00  0.00    +0.090 C 
ENDBRANCH  27   1
ENDBRANCH  17  19
BRANCH   6  20
ATOM     20  C   UNL     1      17.092   7.589  21.325  0.00  0.00    +0.035 A 
ATOM     25  C   UNL     1      18.095   6.623  21.241  0.00  0.00    +0.023 A 
ATOM     26  C   UNL     1      17.429   8.941  21.377  0.00  0.00    +0.023 A 
ATOM     28  C   UNL     1      19.435   7.010  21.210  0.00  0.00    +0.002 A 
ATOM     29  C   UNL     1      18.769   9.328  21.347  0.00  0.00    +0.002 A 
ATOM     30  C   UNL     1      19.772   8.362  21.263  0.00  0.00    +0.000 A 
ENDBRANCH   6  20
TORSDOF 3
ENDMDL
MODEL 3
REMARK VINA RESULT:      -7.0      2.810      6.939
REMARK  Name = 40587816
REMARK  4 active torsions:
REMARK  status: ('A' for Active; 'I' for Inactive)
REMARK    1  A    between atoms: S_1  and  C_27
REMARK    2  A    between atoms: S_1  and  C_31
REMARK    3  A    between atoms: N_6  and  C_20
REMARK    4  A    between atoms: C_17  and  C_19
REMARK                            x       y       z     vdW  Elec       q    Type
REMARK                         _______ _______ _______ _____ _____    ______ ____
ROOT
ATOM      2  O   UNL     1      13.775   6.883   7.246  0.00  0.00    -0.267 OA
ATOM      3  O   UNL     1      10.057   7.181   2.797  0.00  0.00    -0.252 OA
ATOM      4  N   UNL     1       9.369   6.440   4.879  0.00  0.00    -0.284 N 
ATOM      5  N   UNL     1      11.559   7.534   6.932  0.00  0.00    -0.311 N 
ATOM      6  N   UNL     1      10.554   5.005   3.427  0.00  0.00    -0.269 N 
ATOM      7  C   UNL     1       9.589   5.949   7.327  0.00  0.00    +0.027 C 
ATOM      8  C   UNL     1       9.169   8.250   6.576  0.00  0.00    +0.054 C 
ATOM      9  C   UNL     1       8.803   7.216   7.638  0.00  0.00    +0.018 C 
ATOM     10  C   UNL     1      11.085   6.252   7.470  0.00  0.00    +0.130 C 
ATOM     11  C   UNL     1       9.243   5.411   5.924  0.00  0.00    +0.114 C 
ATOM     12  C   UNL     1       8.740   7.727   5.194  0.00  0.00    +0.119 C 
ATOM     13  C   UNL     1      10.658   8.541   6.576  0.00  0.00    +0.027 A 
ATOM     14  C   UNL     1      11.112   9.748   6.202  0.00  0.00    +0.022 A 
ATOM     15  C   UNL     1      12.953   7.733   6.903  0.00  0.00    +0.259 A 
ATOM     16  C   UNL     1      10.011   6.273   3.630  0.00  0.00    +0.306 C 
ATOM     17  C   UNL     1      13.432   9.082   6.440  0.00  0.00    +0.047 A 
ATOM     18  C   UNL     1      12.520  10.016   6.129  0.00  0.00    +0.015 A 
ATOM     32  H   UNL     1      10.097   4.213   3.869  0.00  0.00    +0.156 HD
ENDROOT
BRANCH  17  19
ATOM     19  C   UNL     1      14.869   9.381   6.319  0.00  0.00    -0.013 A 
ATOM     21  C   UNL     1      15.349  10.647   6.653  0.00  0.00    +0.010 A 
ATOM     22  C   UNL     1      15.751   8.397   5.872  0.00  0.00    +0.010 A 
ATOM     23  C   UNL     1      16.711  10.930   6.539  0.00  0.00    +0.015 A 
ATOM     24  C   UNL     1      17.112   8.678   5.758  0.00  0.00    +0.015 A 
ATOM     27  C   UNL     1      17.592   9.945   6.092  0.00  0.00    +0.008 A 
BRANCH  27   1
ATOM      1  S   UNL     1      19.331  10.307   5.947  0.00  0.00    -0.129 S 
ATOM     31  C   UNL     1      20.056   9.094   7.087  0.00  0.00    +0.090 C 
ENDBRANCH  27   1
ENDBRANCH  17  19
BRANCH   6  20
ATOM     20  C   UNL     1      11.689   4.675   2.647  0.00  0.00    +0.035 A 
ATOM     25  C   UNL     1      12.674   5.634   2.410  0.00  0.00    +0.023 A 
ATOM     26  C   UNL     1      11.822   3.392   2.116  0.00  0.00    +0.023 A 
ATOM     28  C   UNL     1      13.792   5.309   1.642  0.00  0.00    +0.002 A 
ATOM     29  C   UNL     1      12.940   3.068   1.347  0.00  0.00    +0.002 A 
ATOM     30  C   UNL     1      13.925   4.027   1.110  0.00  0.00    +0.000 A 
ENDBRANCH   6  20
TORSDOF 3
ENDMDL
MODEL 4
REMARK VINA RESULT:      -6.9     26.445     29.792
REMARK  Name = 40587816
REMARK  4 active torsions:
REMARK  status: ('A' for Active; 'I' for Inactive)
REMARK    1  A    between atoms: S_1  and  C_27
REMARK    2  A    between atoms: S_1  and  C_31
REMARK    3  A    between atoms: N_6  and  C_20
REMARK    4  A    between atoms: C_17  and  C_19
REMARK                            x       y       z     vdW  Elec       q    Type
REMARK                         _______ _______ _______ _____ _____    ______ ____
ROOT
ATOM      2  O   UNL     1     -14.602   9.291  19.674  0.00  0.00    -0.267 OA
ATOM      3  O   UNL     1     -11.006   8.014  15.299  0.00  0.00    -0.252 OA
ATOM      4  N   UNL     1     -11.270  10.194  16.028  0.00  0.00    -0.284 N 
ATOM      5  N   UNL     1     -12.481   9.960  18.975  0.00  0.00    -0.311 N 
ATOM      6  N   UNL     1     -12.882   9.197  14.623  0.00  0.00    -0.269 N 
ATOM      7  C   UNL     1     -12.099  12.030  17.520  0.00  0.00    +0.027 C 
ATOM      8  C   UNL     1     -10.182  10.662  18.218  0.00  0.00    +0.054 C 
ATOM      9  C   UNL     1     -10.732  12.086  18.189  0.00  0.00    +0.018 C 
ATOM     10  C   UNL     1     -13.039  11.187  18.391  0.00  0.00    +0.130 C 
ATOM     11  C   UNL     1     -11.993  11.475  16.085  0.00  0.00    +0.114 C 
ATOM     12  C   UNL     1     -10.007  10.160  16.775  0.00  0.00    +0.119 C 
ATOM     13  C   UNL     1     -11.102   9.727  18.979  0.00  0.00    +0.027 A 
ATOM     14  C   UNL     1     -10.602   8.662  19.625  0.00  0.00    +0.022 A 
ATOM     15  C   UNL     1     -13.386   9.098  19.624  0.00  0.00    +0.259 A 
ATOM     16  C   UNL     1     -11.680   9.046  15.314  0.00  0.00    +0.306 C 
ATOM     17  C   UNL     1     -12.799   7.891  20.304  0.00  0.00    +0.047 A 
ATOM     18  C   UNL     1     -11.468   7.729  20.291  0.00  0.00    +0.015 A 
ATOM     32  H   UNL     1     -13.119  10.120  14.272  0.00  0.00    +0.156 HD
ENDROOT
BRANCH  17  19
ATOM     19  C   UNL     1     -13.659   6.894  20.965  0.00  0.00    -0.013 A 
ATOM     21  C   UNL     1     -13.103   5.968  21.847  0.00  0.00    +0.010 A 
ATOM     22  C   UNL     1     -15.031   6.877  20.711  0.00  0.00    +0.010 A 
ATOM     23  C   UNL     1     -13.917   5.025  22.475  0.00  0.00    +0.015 A 
ATOM     24  C   UNL     1     -15.846   5.936  21.338  0.00  0.00    +0.015 A 
ATOM     27  C   UNL     1     -15.289   5.010  22.220  0.00  0.00    +0.008 A 
BRANCH  27   1
ATOM      1  S   UNL     1     -16.329   3.805  23.022  0.00  0.00    -0.129 S 
ATOM     31  C   UNL     1     -15.502   3.615  24.627  0.00  0.00    +0.090 C 
ENDBRANCH  27   1
ENDBRANCH  17  19
BRANCH   6  20
ATOM     20  C   UNL     1     -13.833   8.189  14.329  0.00  0.00    +0.035 A 
ATOM     25  C   UNL     1     -14.845   7.898  15.244  0.00  0.00    +0.023 A 
ATOM     26  C   UNL     1     -13.758   7.489  13.125  0.00  0.00    +0.023 A 
ATOM     28  C   UNL     1     -15.781   6.906  14.955  0.00  0.00    +0.002 A 
ATOM     29  C   UNL     1     -14.695   6.496  12.836  0.00  0.00    +0.002 A 
ATOM     30  C   UNL     1     -15.706   6.205  13.752  0.00  0.00    +0.000 A 
ENDBRANCH   6  20
TORSDOF 3
ENDMDL
MODEL 5
REMARK VINA RESULT:      -6.8     25.758     28.493
REMARK  Name = 40587816
REMARK  4 active torsions:
REMARK  status: ('A' for Active; 'I' for Inactive)
REMARK    1  A    between atoms: S_1  and  C_27
REMARK    2  A    between atoms: S_1  and  C_31
REMARK    3  A    between atoms: N_6  and  C_20
REMARK    4  A    between atoms: C_17  and  C_19
REMARK                            x       y       z     vdW  Elec       q    Type
REMARK                         _______ _______ _______ _____ _____    ______ ____
ROOT
ATOM      2  O   UNL     1      -7.460  -8.824  16.917  0.00  0.00    -0.267 OA
ATOM      3  O   UNL     1      -5.390 -13.014  13.472  0.00  0.00    -0.252 OA
ATOM      4  N   UNL     1      -4.408 -12.558  15.518  0.00  0.00    -0.284 N 
ATOM      5  N   UNL     1      -6.630 -10.985  17.191  0.00  0.00    -0.311 N 
ATOM      6  N   UNL     1      -3.969 -11.189  13.646  0.00  0.00    -0.269 N 
ATOM      7  C   UNL     1      -4.180 -11.458  17.759  0.00  0.00    +0.027 C 
ATOM      8  C   UNL     1      -5.747 -13.328  17.471  0.00  0.00    +0.054 C 
ATOM      9  C   UNL     1      -4.715 -12.722  18.418  0.00  0.00    +0.018 C 
ATOM     10  C   UNL     1      -5.330 -10.453  17.619  0.00  0.00    +0.130 C 
ATOM     11  C   UNL     1      -3.526 -11.776  16.398  0.00  0.00    +0.114 C 
ATOM     12  C   UNL     1      -5.055 -13.713  16.151  0.00  0.00    +0.119 C 
ATOM     13  C   UNL     1      -6.881 -12.360  17.192  0.00  0.00    +0.027 A 
ATOM     14  C   UNL     1      -8.112 -12.820  16.915  0.00  0.00    +0.022 A 
ATOM     15  C   UNL     1      -7.634 -10.043  16.892  0.00  0.00    +0.259 A 
ATOM     16  C   UNL     1      -4.651 -12.296  14.150  0.00  0.00    +0.306 C 
ATOM     17  C   UNL     1      -8.991 -10.590  16.544  0.00  0.00    +0.047 A 
ATOM     18  C   UNL     1      -9.178 -11.918  16.581  0.00  0.00    +0.015 A 
ATOM     32  H   UNL     1      -3.067 -10.958  14.051  0.00  0.00    +0.156 HD
ENDROOT
BRANCH  17  19
ATOM     19  C   UNL     1     -10.099  -9.698  16.162  0.00  0.00    -0.013 A 
ATOM     21  C   UNL     1     -10.973  -9.213  17.135  0.00  0.00    +0.010 A 
ATOM     22  C   UNL     1     -10.273  -9.335  14.826  0.00  0.00    +0.010 A 
ATOM     23  C   UNL     1     -12.020  -8.366  16.773  0.00  0.00    +0.015 A 
ATOM     24  C   UNL     1     -11.320  -8.489  14.463  0.00  0.00    +0.015 A 
ATOM     27  C   UNL     1     -12.194  -8.005  15.436  0.00  0.00    +0.008 A 
BRANCH  27   1
ATOM      1  S   UNL     1     -13.533  -6.923  14.975  0.00  0.00    -0.129 S 
ATOM     31  C   UNL     1     -12.637  -5.490  14.312  0.00  0.00    +0.090 C 
ENDBRANCH  27   1
ENDBRANCH  17  19
BRANCH   6  20
ATOM     20  C   UNL     1      -4.385 -10.332  12.598  0.00  0.00    +0.035 A 
ATOM     25  C   UNL     1      -3.554 -10.124  11.497  0.00  0.00    +0.023 A 
ATOM     26  C   UNL     1      -5.624  -9.697  12.666  0.00  0.00    +0.023 A 
ATOM     28  C   UNL     1      -3.963  -9.280  10.465  0.00  0.00    +0.002 A 
ATOM     29  C   UNL     1      -6.034  -8.852  11.634  0.00  0.00    +0.002 A 
ATOM     30  C   UNL     1      -5.202  -8.644  10.533  0.00  0.00    +0.000 A 
ENDBRANCH   6  20
TORSDOF 3
ENDMDL
MODEL 6
REMARK VINA RESULT:      -6.5     24.206     26.390
REMARK  Name = 40587816
REMARK  4 active torsions:
REMARK  status: ('A' for Active; 'I' for Inactive)
REMARK    1  A    between atoms: S_1  and  C_27
REMARK    2  A    between atoms: S_1  and  C_31
REMARK    3  A    between atoms: N_6  and  C_20
REMARK    4  A    between atoms: C_17  and  C_19
REMARK                            x       y       z     vdW  Elec       q    Type
REMARK                         _______ _______ _______ _____ _____    ______ ____
ROOT
ATOM      2  O   UNL     1      -5.961 -12.364  10.943  0.00  0.00    -0.267 OA
ATOM      3  O   UNL     1      -3.553 -10.163  15.745  0.00  0.00    -0.252 OA
ATOM      4  N   UNL     1      -3.209 -12.371  15.143  0.00  0.00    -0.284 N 
ATOM      5  N   UNL     1      -3.903 -12.516  12.028  0.00  0.00    -0.311 N 
ATOM      6  N   UNL     1      -5.220 -11.713  16.188  0.00  0.00    -0.269 N 
ATOM      7  C   UNL     1      -3.348 -14.396  13.673  0.00  0.00    +0.027 C 
ATOM      8  C   UNL     1      -1.677 -12.658  13.202  0.00  0.00    +0.054 C 
ATOM      9  C   UNL     1      -1.905 -14.167  13.244  0.00  0.00    +0.018 C 
ATOM     10  C   UNL     1      -4.278 -13.816  12.600  0.00  0.00    +0.130 C 
ATOM     11  C   UNL     1      -3.618 -13.782  15.062  0.00  0.00    +0.114 C 
ATOM     12  C   UNL     1      -1.872 -12.080  14.614  0.00  0.00    +0.119 C 
ATOM     13  C   UNL     1      -2.628 -11.980  12.233  0.00  0.00    +0.027 A 
ATOM     14  C   UNL     1      -2.263 -10.853  11.603  0.00  0.00    +0.022 A 
ATOM     15  C   UNL     1      -4.843 -11.902  11.178  0.00  0.00    +0.259 A 
ATOM     16  C   UNL     1      -3.976 -11.320  15.695  0.00  0.00    +0.306 C 
ATOM     17  C   UNL     1      -4.420 -10.618  10.518  0.00  0.00    +0.047 A 
ATOM     18  C   UNL     1      -3.177 -10.162  10.738  0.00  0.00    +0.015 A 
ATOM     32  H   UNL     1      -5.311 -12.653  16.561  0.00  0.00    +0.156 HD
ENDROOT
BRANCH  17  19
ATOM     19  C   UNL     1      -5.343  -9.863   9.654  0.00  0.00    -0.013 A 
ATOM     21  C   UNL     1      -6.186  -8.900  10.207  0.00  0.00    +0.010 A 
ATOM     22  C   UNL     1      -5.374 -10.111   8.282  0.00  0.00    +0.010 A 
ATOM     23  C   UNL     1      -7.060  -8.184   9.389  0.00  0.00    +0.015 A 
ATOM     24  C   UNL     1      -6.247  -9.396   7.463  0.00  0.00    +0.015 A 
ATOM     27  C   UNL     1      -7.090  -8.432   8.016  0.00  0.00    +0.008 A 
BRANCH  27   1
ATOM      1  S   UNL     1      -8.207  -7.517   6.971  0.00  0.00    -0.129 S 
ATOM     31  C   UNL     1      -8.719  -6.167   8.072  0.00  0.00    +0.090 C 
ENDBRANCH  27   1
ENDBRANCH  17  19
BRANCH   6  20
ATOM     20  C   UNL     1      -6.402 -10.935  16.248  0.00  0.00    +0.035 A 
ATOM     25  C   UNL     1      -6.717 -10.237  17.414  0.00  0.00    +0.023 A 
ATOM     26  C   UNL     1      -7.249 -10.866  15.143  0.00  0.00    +0.023 A 
ATOM     28  C   UNL     1      -7.881  -9.470  17.474  0.00  0.00    +0.002 A 
ATOM     29  C   UNL     1      -8.413 -10.099  15.202  0.00  0.00    +0.002 A 
ATOM     30  C   UNL     1      -8.729  -9.401  16.368  0.00  0.00    +0.000 A 
ENDBRANCH   6  20
TORSDOF 3
ENDMDL
MODEL 7
REMARK VINA RESULT:      -6.4     14.748     17.650
REMARK  Name = 40587816
REMARK  4 active torsions:
REMARK  status: ('A' for Active; 'I' for Inactive)
REMARK    1  A    between atoms: S_1  and  C_27
REMARK    2  A    between atoms: S_1  and  C_31
REMARK    3  A    between atoms: N_6  and  C_20
REMARK    4  A    between atoms: C_17  and  C_19
REMARK                            x       y       z     vdW  Elec       q    Type
REMARK                         _______ _______ _______ _____ _____    ______ ____
ROOT
ATOM      2  O   UNL     1      -6.050  10.249   4.310  0.00  0.00    -0.267 OA
ATOM      3  O   UNL     1      -1.307   9.092   1.169  0.00  0.00    -0.252 OA
ATOM      4  N   UNL     1      -1.318  10.804   2.726  0.00  0.00    -0.284 N 
ATOM      5  N   UNL     1      -3.751  10.147   4.688  0.00  0.00    -0.311 N 
ATOM      6  N   UNL     1      -2.306  11.107   0.604  0.00  0.00    -0.269 N 
ATOM      7  C   UNL     1      -2.245  12.213   4.580  0.00  0.00    +0.027 C 
ATOM      8  C   UNL     1      -1.267  10.018   5.087  0.00  0.00    +0.054 C 
ATOM      9  C   UNL     1      -1.367  11.462   5.572  0.00  0.00    +0.018 C 
ATOM     10  C   UNL     1      -3.655  11.611   4.618  0.00  0.00    +0.130 C 
ATOM     11  C   UNL     1      -1.641  12.172   3.161  0.00  0.00    +0.114 C 
ATOM     12  C   UNL     1      -0.587   9.995   3.708  0.00  0.00    +0.119 C 
ATOM     13  C   UNL     1      -2.634   9.366   4.997  0.00  0.00    +0.027 A 
ATOM     14  C   UNL     1      -2.767   8.043   5.177  0.00  0.00    +0.022 A 
ATOM     15  C   UNL     1      -5.036   9.589   4.544  0.00  0.00    +0.259 A 
ATOM     16  C   UNL     1      -1.631  10.243   1.466  0.00  0.00    +0.306 C 
ATOM     17  C   UNL     1      -5.146   8.097   4.711  0.00  0.00    +0.047 A 
ATOM     18  C   UNL     1      -4.043   7.402   5.025  0.00  0.00    +0.015 A 
ATOM     32  H   UNL     1      -2.118  12.102   0.680  0.00  0.00    +0.156 HD
ENDROOT
BRANCH  17  19
ATOM     19  C   UNL     1      -6.432   7.402   4.527  0.00  0.00    -0.013 A 
ATOM     21  C   UNL     1      -7.323   7.832   3.543  0.00  0.00    +0.010 A 
ATOM     22  C   UNL     1      -6.758   6.312   5.334  0.00  0.00    +0.010 A 
ATOM     23  C   UNL     1      -8.539   7.172   3.368  0.00  0.00    +0.015 A 
ATOM     24  C   UNL     1      -7.974   5.652   5.160  0.00  0.00    +0.015 A 
ATOM     27  C   UNL     1      -8.864   6.082   4.176  0.00  0.00    +0.008 A 
BRANCH  27   1
ATOM      1  S   UNL     1     -10.419   5.240   3.951  0.00  0.00    -0.129 S 
ATOM     31  C   UNL     1     -10.719   5.489   2.178  0.00  0.00    +0.090 C 
ENDBRANCH  27   1
ENDBRANCH  17  19
BRANCH   6  20
ATOM     20  C   UNL     1      -3.238  10.755  -0.403  0.00  0.00    +0.035 A 
ATOM     25  C   UNL     1      -4.523  10.342  -0.050  0.00  0.00    +0.023 A 
ATOM     26  C   UNL     1      -2.871  10.821  -1.747  0.00  0.00    +0.023 A 
ATOM     28  C   UNL     1      -5.440   9.995  -1.041  0.00  0.00    +0.002 A 
ATOM     29  C   UNL     1      -3.789  10.474  -2.739  0.00  0.00    +0.002 A 
ATOM     30  C   UNL     1      -5.074  10.061  -2.385  0.00  0.00    +0.000 A 
ENDBRANCH   6  20
TORSDOF 3
ENDMDL
MODEL 8
REMARK VINA RESULT:      -6.4     31.707     34.365
REMARK  Name = 40587816
REMARK  4 active torsions:
REMARK  status: ('A' for Active; 'I' for Inactive)
REMARK    1  A    between atoms: S_1  and  C_27
REMARK    2  A    between atoms: S_1  and  C_31
REMARK    3  A    between atoms: N_6  and  C_20
REMARK    4  A    between atoms: C_17  and  C_19
REMARK                            x       y       z     vdW  Elec       q    Type
REMARK                         _______ _______ _______ _____ _____    ______ ____
ROOT
ATOM      2  O   UNL     1       8.466 -12.394  32.223  0.00  0.00    -0.267 OA
ATOM      3  O   UNL     1       4.544  -8.797  34.543  0.00  0.00    -0.252 OA
ATOM      4  N   UNL     1       6.809  -8.489  34.909  0.00  0.00    -0.284 N 
ATOM      5  N   UNL     1       8.270 -10.097  32.567  0.00  0.00    -0.311 N 
ATOM      6  N   UNL     1       5.610 -10.124  36.118  0.00  0.00    -0.269 N 
ATOM      7  C   UNL     1       9.260  -8.921  34.613  0.00  0.00    +0.027 C 
ATOM      8  C   UNL     1       8.038  -7.614  32.929  0.00  0.00    +0.054 C 
ATOM      9  C   UNL     1       9.351  -7.702  33.704  0.00  0.00    +0.018 C 
ATOM     10  C   UNL     1       9.149 -10.178  33.740  0.00  0.00    +0.130 C 
ATOM     11  C   UNL     1       8.075  -8.796  35.593  0.00  0.00    +0.114 C 
ATOM     12  C   UNL     1       6.881  -7.407  33.921  0.00  0.00    +0.119 C 
ATOM     13  C   UNL     1       7.793  -8.866  32.108  0.00  0.00    +0.027 A 
ATOM     14  C   UNL     1       7.093  -8.799  30.965  0.00  0.00    +0.022 A 
ATOM     15  C   UNL     1       8.030 -11.297  31.870  0.00  0.00    +0.259 A 
ATOM     16  C   UNL     1       5.569  -9.126  35.145  0.00  0.00    +0.306 C 
ATOM     17  C   UNL     1       7.207 -11.196  30.615  0.00  0.00    +0.047 A 
ATOM     18  C   UNL     1       6.793  -9.985  30.214  0.00  0.00    +0.015 A 
ATOM     32  H   UNL     1       6.278 -10.023  36.877  0.00  0.00    +0.156 HD
ENDROOT
BRANCH  17  19
ATOM     19  C   UNL     1       6.849 -12.396  29.839  0.00  0.00    -0.013 A 
ATOM     21  C   UNL     1       7.686 -12.840  28.815  0.00  0.00    +0.010 A 
ATOM     22  C   UNL     1       5.674 -13.090  30.128  0.00  0.00    +0.010 A 
ATOM     23  C   UNL     1       7.349 -13.977  28.081  0.00  0.00    +0.015 A 
ATOM     24  C   UNL     1       5.336 -14.227  29.395  0.00  0.00    +0.015 A 
ATOM     27  C   UNL     1       6.173 -14.670  28.372  0.00  0.00    +0.008 A 
BRANCH  27   1
ATOM      1  S   UNL     1       5.742 -16.123  27.433  0.00  0.00    -0.129 S 
ATOM     31  C   UNL     1       6.043 -15.565  25.732  0.00  0.00    +0.090 C 
ENDBRANCH  27   1
ENDBRANCH  17  19
BRANCH   6  20
ATOM     20  C   UNL     1       4.802 -11.285  36.189  0.00  0.00    +0.035 A 
ATOM     25  C   UNL     1       4.906 -12.266  35.202  0.00  0.00    +0.023 A 
ATOM     26  C   UNL     1       3.905 -11.448  37.243  0.00  0.00    +0.023 A 
ATOM     28  C   UNL     1       4.111 -13.409  35.271  0.00  0.00    +0.002 A 
ATOM     29  C   UNL     1       3.109 -12.592  37.312  0.00  0.00    +0.002 A 
ATOM     30  C   UNL     1       3.212 -13.573  36.326  0.00  0.00    +0.000 A 
ENDBRANCH   6  20
TORSDOF 3
ENDMDL
MODEL 9
REMARK VINA RESULT:      -6.3     26.053     28.777
REMARK  Name = 40587816
REMARK  4 active torsions:
REMARK  status: ('A' for Active; 'I' for Inactive)
REMARK    1  A    between atoms: S_1  and  C_27
REMARK    2  A    between atoms: S_1  and  C_31
REMARK    3  A    between atoms: N_6  and  C_20
REMARK    4  A    between atoms: C_17  and  C_19
REMARK                            x       y       z     vdW  Elec       q    Type
REMARK                         _______ _______ _______ _____ _____    ______ ____
ROOT
ATOM      2  O   UNL     1     -11.557  -7.517   9.981  0.00  0.00    -0.267 OA
ATOM      3  O   UNL     1     -15.783  -3.667   8.972  0.00  0.00    -0.252 OA
ATOM      4  N   UNL     1     -15.266  -4.333  11.128  0.00  0.00    -0.284 N 
ATOM      5  N   UNL     1     -12.312  -5.538  10.955  0.00  0.00    -0.311 N 
ATOM      6  N   UNL     1     -16.573  -5.712   9.728  0.00  0.00    -0.269 N 
ATOM      7  C   UNL     1     -13.958  -5.507  12.914  0.00  0.00    +0.027 C 
ATOM      8  C   UNL     1     -13.128  -3.389  11.987  0.00  0.00    +0.054 C 
ATOM      9  C   UNL     1     -13.294  -4.186  13.279  0.00  0.00    +0.018 C 
ATOM     10  C   UNL     1     -13.012  -6.296  12.000  0.00  0.00    +0.130 C 
ATOM     11  C   UNL     1     -15.333  -5.275  12.256  0.00  0.00    +0.114 C 
ATOM     12  C   UNL     1     -14.517  -3.099  11.392  0.00  0.00    +0.119 C 
ATOM     13  C   UNL     1     -12.283  -4.141  10.976  0.00  0.00    +0.027 A 
ATOM     14  C   UNL     1     -11.537  -3.470  10.084  0.00  0.00    +0.022 A 
ATOM     15  C   UNL     1     -11.586  -6.286  10.008  0.00  0.00    +0.259 A 
ATOM     16  C   UNL     1     -15.868  -4.516   9.862  0.00  0.00    +0.306 C 
ATOM     17  C   UNL     1     -10.793  -5.505   8.995  0.00  0.00    +0.047 A 
ATOM     18  C   UNL     1     -10.787  -4.166   9.077  0.00  0.00    +0.015 A 
ATOM     32  H   UNL     1     -17.010  -6.104  10.556  0.00  0.00    +0.156 HD
ENDROOT
BRANCH  17  19
ATOM     19  C   UNL     1     -10.041  -6.184   7.926  0.00  0.00    -0.013 A 
ATOM     21  C   UNL     1      -8.674  -6.419   8.075  0.00  0.00    +0.010 A 
ATOM     22  C   UNL     1     -10.696  -6.595   6.765  0.00  0.00    +0.010 A 
ATOM     23  C   UNL     1      -7.963  -7.064   7.063  0.00  0.00    +0.015 A 
ATOM     24  C   UNL     1      -9.986  -7.239   5.753  0.00  0.00    +0.015 A 
ATOM     27  C   UNL     1      -8.619  -7.474   5.902  0.00  0.00    +0.008 A 
BRANCH  27   1
ATOM      1  S   UNL     1      -7.709  -8.298   4.610  0.00  0.00    -0.129 S 
ATOM     31  C   UNL     1      -6.664  -9.436   5.563  0.00  0.00    +0.090 C 
ENDBRANCH  27   1
ENDBRANCH  17  19
BRANCH   6  20
ATOM     20  C   UNL     1     -16.771  -6.460   8.542  0.00  0.00    +0.035 A 
ATOM     25  C   UNL     1     -18.021  -6.464   7.922  0.00  0.00    +0.023 A 
ATOM     26  C   UNL     1     -15.719  -7.191   7.993  0.00  0.00    +0.023 A 
ATOM     28  C   UNL     1     -18.218  -7.200   6.754  0.00  0.00    +0.002 A 
ATOM     29  C   UNL     1     -15.915  -7.928   6.825  0.00  0.00    +0.002 A 
ATOM     30  C   UNL     1     -17.165  -7.932   6.206  0.00  0.00    +0.000 A 
ENDBRANCH   6  20
TORSDOF 3
ENDMDL
MODEL 10
REMARK VINA RESULT:      -6.2     24.767     26.971
REMARK  Name = 40587816
REMARK  4 active torsions:
REMARK  status: ('A' for Active; 'I' for Inactive)
REMARK    1  A    between atoms: S_1  and  C_27
REMARK    2  A    between atoms: S_1  and  C_31
REMARK    3  A    between atoms: N_6  and  C_20
REMARK    4  A    between atoms: C_17  and  C_19
REMARK                            x       y       z     vdW  Elec       q    Type
REMARK                         _______ _______ _______ _____ _____    ______ ____
ROOT
ATOM      2  O   UNL     1      -7.144 -12.051  11.510  0.00  0.00    -0.267 OA
ATOM      3  O   UNL     1      -5.303  -9.308  16.283  0.00  0.00    -0.252 OA
ATOM      4  N   UNL     1      -5.134 -11.608  16.089  0.00  0.00    -0.284 N 
ATOM      5  N   UNL     1      -5.324 -12.209  12.957  0.00  0.00    -0.311 N 
ATOM      6  N   UNL     1      -7.195 -10.600  16.645  0.00  0.00    -0.269 N 
ATOM      7  C   UNL     1      -5.274 -13.829  14.937  0.00  0.00    +0.027 C 
ATOM      8  C   UNL     1      -3.352 -12.357  14.520  0.00  0.00    +0.054 C 
ATOM      9  C   UNL     1      -3.764 -13.810  14.745  0.00  0.00    +0.018 C 
ATOM     10  C   UNL     1      -5.941 -13.353  13.640  0.00  0.00    +0.130 C 
ATOM     11  C   UNL     1      -5.691 -12.969  16.147  0.00  0.00    +0.114 C 
ATOM     12  C   UNL     1      -3.703 -11.534  15.772  0.00  0.00    +0.119 C 
ATOM     13  C   UNL     1      -4.045 -11.766  13.306  0.00  0.00    +0.027 A 
ATOM     14  C   UNL     1      -3.449 -10.799  12.591  0.00  0.00    +0.022 A 
ATOM     15  C   UNL     1      -6.033 -11.662  11.870  0.00  0.00    +0.259 A 
ATOM     16  C   UNL     1      -5.849 -10.413  16.331  0.00  0.00    +0.306 C 
ATOM     17  C   UNL     1      -5.356 -10.551  11.113  0.00  0.00    +0.047 A 
ATOM     18  C   UNL     1      -4.120 -10.181  11.482  0.00  0.00    +0.015 A 
ATOM     32  H   UNL     1      -7.457 -11.452  17.132  0.00  0.00    +0.156 HD
ENDROOT
BRANCH  17  19
ATOM     19  C   UNL     1      -6.029  -9.870   9.994  0.00  0.00    -0.013 A 
ATOM     21  C   UNL     1      -6.965  -8.867  10.249  0.00  0.00    +0.010 A 
ATOM     22  C   UNL     1      -5.730 -10.226   8.679  0.00  0.00    +0.010 A 
ATOM     23  C   UNL     1      -7.601  -8.220   9.189  0.00  0.00    +0.015 A 
ATOM     24  C   UNL     1      -6.366  -9.580   7.619  0.00  0.00    +0.015 A 
ATOM     27  C   UNL     1      -7.301  -8.578   7.874  0.00  0.00    +0.008 A 
BRANCH  27   1
ATOM      1  S   UNL     1      -8.115  -7.751   6.520  0.00  0.00    -0.129 S 
ATOM     31  C   UNL     1      -7.211  -8.409   5.090  0.00  0.00    +0.090 C 
ENDBRANCH  27   1
ENDBRANCH  17  19
BRANCH   6  20
ATOM     20  C   UNL     1      -8.268  -9.717  16.375  0.00  0.00    +0.035 A 
ATOM     25  C   UNL     1      -8.847  -9.694  15.106  0.00  0.00    +0.023 A 
ATOM     26  C   UNL     1      -8.746  -8.872  17.375  0.00  0.00    +0.023 A 
ATOM     28  C   UNL     1      -9.905  -8.824  14.838  0.00  0.00    +0.002 A 
ATOM     29  C   UNL     1      -9.803  -8.002  17.108  0.00  0.00    +0.002 A 
ATOM     30  C   UNL     1     -10.383  -7.978  15.839  0.00  0.00    +0.000 A 
ENDBRANCH   6  20
TORSDOF 3
ENDMDL
