MODEL 1
REMARK VINA RESULT:      -7.0      0.000      0.000
REMARK  Name = 25389803
REMARK  9 active torsions:
REMARK  status: ('A' for Active; 'I' for Inactive)
REMARK    1  A    between atoms: O_1  and  C_19
REMARK    2  A    between atoms: O_1  and  C_31
REMARK    3  A    between atoms: O_3  and  C_25
REMARK    4  A    between atoms: O_3  and  C_32
REMARK    5  A    between atoms: N_5  and  C_10
REMARK    6  A    between atoms: N_5  and  C_20
REMARK    7  A    between atoms: C_8  and  C_16
REMARK    8  A    between atoms: C_12  and  C_19
REMARK    9  A    between atoms: C_20  and  C_25
REMARK                            x       y       z     vdW  Elec       q    Type
REMARK                         _______ _______ _______ _____ _____    ______ ____
ROOT
ATOM      4  N   UNL     1      13.645  10.180  20.648  0.00  0.00    -0.274 NA
ATOM      6  N   UNL     1      11.282  12.970  21.509  0.00  0.00    -0.356 N 
ATOM      7  C   UNL     1      12.574  11.148  20.257  0.00  0.00    +0.106 C 
ATOM      8  C   UNL     1      14.177   9.437  19.477  0.00  0.00    +0.090 C 
ATOM      9  C   UNL     1      13.102  12.152  19.221  0.00  0.00    +0.044 C 
ATOM     10  C   UNL     1      13.612  11.421  17.980  0.00  0.00    +0.057 C 
ATOM     11  C   UNL     1      14.684  10.410  18.386  0.00  0.00    +0.042 C 
ATOM     12  C   UNL     1      13.260   9.328  21.806  0.00  0.00    +0.172 C 
ATOM     13  C   UNL     1      12.049  11.839  21.481  0.00  0.00    +0.038 A 
ATOM     14  C   UNL     1      12.971  10.155  23.084  0.00  0.00    +0.068 C 
ATOM     15  C   UNL     1      12.204  11.392  22.775  0.00  0.00    -0.016 A 
ATOM     17  C   UNL     1      11.534  12.307  23.633  0.00  0.00    +0.003 A 
ATOM     18  C   UNL     1      10.966  13.287  22.814  0.00  0.00    +0.047 A 
ATOM     23  C   UNL     1      11.348  12.399  25.027  0.00  0.00    +0.010 A 
ATOM     24  C   UNL     1      10.220  14.357  23.323  0.00  0.00    +0.026 A 
ATOM     26  C   UNL     1      10.608  13.465  25.549  0.00  0.00    +0.001 A 
ATOM     29  C   UNL     1      10.053  14.428  24.709  0.00  0.00    +0.002 A 
ATOM     34  H   UNL     1      10.989  13.501  20.701  0.00  0.00    +0.166 HD
ENDROOT
BRANCH   8  16
ATOM     16  C   UNL     1      15.319   8.482  19.811  0.00  0.00    -0.030 A 
ATOM     21  C   UNL     1      16.405   8.929  20.565  0.00  0.00    +0.005 A 
ATOM     22  C   UNL     1      15.278   7.161  19.364  0.00  0.00    +0.005 A 
ATOM     27  C   UNL     1      17.449   8.056  20.870  0.00  0.00    +0.000 A 
ATOM     28  C   UNL     1      16.321   6.289  19.670  0.00  0.00    +0.000 A 
ATOM     30  C   UNL     1      17.407   6.736  20.423  0.00  0.00    +0.000 A 
ENDBRANCH   8  16
BRANCH  12  19
ATOM      2  O   UNL     1      10.979   8.887  21.163  0.00  0.00    -0.249 OA
ATOM     19  C   UNL     1      12.088   8.458  21.453  0.00  0.00    +0.325 C 
BRANCH  19   1
ATOM      1  O   UNL     1      12.459   7.147  21.507  0.00  0.00    -0.467 OA
ATOM     31  C   UNL     1      11.385   6.202  21.470  0.00  0.00    +0.280 C 
ENDBRANCH  19   1
ENDBRANCH  12  19
BRANCH  10   5
ATOM      5  N   UNL     1      14.141  12.382  17.013  0.00  0.00    -0.311 NA
ATOM     33  H   UNL     1      13.388  12.974  16.664  0.00  0.00    +0.122 HD
BRANCH   5  20
ATOM     20  C   UNL     1      14.757  11.695  15.888  0.00  0.00    +0.109 C 
BRANCH  20  25
ATOM     25  C   UNL     1      13.702  11.253  14.887  0.00  0.00    +0.174 C 
BRANCH  25   3
ATOM      3  O   UNL     1      13.557   9.841  14.969  0.00  0.00    -0.382 OA
ATOM     32  C   UNL     1      12.277   9.475  15.466  0.00  0.00    +0.194 C 
ENDBRANCH  25   3
ENDBRANCH  20  25
ENDBRANCH   5  20
ENDBRANCH  10   5
TORSDOF 7
ENDMDL
MODEL 2
REMARK VINA RESULT:      -6.5     13.346     17.048
REMARK  Name = 25389803
REMARK  9 active torsions:
REMARK  status: ('A' for Active; 'I' for Inactive)
REMARK    1  A    between atoms: O_1  and  C_19
REMARK    2  A    between atoms: O_1  and  C_31
REMARK    3  A    between atoms: O_3  and  C_25
REMARK    4  A    between atoms: O_3  and  C_32
REMARK    5  A    between atoms: N_5  and  C_10
REMARK    6  A    between atoms: N_5  and  C_20
REMARK    7  A    between atoms: C_8  and  C_16
REMARK    8  A    between atoms: C_12  and  C_19
REMARK    9  A    between atoms: C_20  and  C_25
REMARK                            x       y       z     vdW  Elec       q    Type
REMARK                         _______ _______ _______ _____ _____    ______ ____
ROOT
ATOM      4  N   UNL     1      11.893   6.643   5.605  0.00  0.00    -0.274 NA
ATOM      6  N   UNL     1      14.606   7.595   3.189  0.00  0.00    -0.356 N 
ATOM      7  C   UNL     1      12.333   7.058   4.237  0.00  0.00    +0.106 C 
ATOM      8  C   UNL     1      10.450   6.292   5.641  0.00  0.00    +0.090 C 
ATOM      9  C   UNL     1      12.060   5.943   3.217  0.00  0.00    +0.044 C 
ATOM     10  C   UNL     1      10.573   5.591   3.194  0.00  0.00    +0.057 C 
ATOM     11  C   UNL     1      10.118   5.198   4.599  0.00  0.00    +0.042 C 
ATOM     12  C   UNL     1      12.332   7.589   6.667  0.00  0.00    +0.172 C 
ATOM     13  C   UNL     1      13.784   7.437   4.269  0.00  0.00    +0.038 A 
ATOM     14  C   UNL     1      13.874   7.711   6.753  0.00  0.00    +0.068 C 
ATOM     15  C   UNL     1      14.498   7.756   5.404  0.00  0.00    -0.016 A 
ATOM     17  C   UNL     1      15.821   8.088   5.004  0.00  0.00    +0.003 A 
ATOM     18  C   UNL     1      15.863   7.978   3.610  0.00  0.00    +0.047 A 
ATOM     23  C   UNL     1      16.991   8.478   5.687  0.00  0.00    +0.010 A 
ATOM     24  C   UNL     1      17.019   8.239   2.867  0.00  0.00    +0.026 A 
ATOM     26  C   UNL     1      18.155   8.738   4.955  0.00  0.00    +0.001 A 
ATOM     29  C   UNL     1      18.168   8.619   3.567  0.00  0.00    +0.002 A 
ATOM     34  H   UNL     1      14.342   7.453   2.224  0.00  0.00    +0.166 HD
ENDROOT
BRANCH   8  16
ATOM     16  C   UNL     1       9.963   5.798   7.001  0.00  0.00    -0.030 A 
ATOM     21  C   UNL     1      10.173   4.472   7.377  0.00  0.00    +0.005 A 
ATOM     22  C   UNL     1       9.306   6.673   7.867  0.00  0.00    +0.005 A 
ATOM     27  C   UNL     1       9.728   4.019   8.619  0.00  0.00    +0.000 A 
ATOM     28  C   UNL     1       8.861   6.221   9.109  0.00  0.00    +0.000 A 
ATOM     30  C   UNL     1       9.072   4.894   9.485  0.00  0.00    +0.000 A 
ENDBRANCH   8  16
BRANCH  12  19
ATOM      2  O   UNL     1      10.744   9.141   5.728  0.00  0.00    -0.249 OA
ATOM     19  C   UNL     1      11.697   8.936   6.468  0.00  0.00    +0.325 C 
BRANCH  19   1
ATOM      1  O   UNL     1      12.344   9.862   7.231  0.00  0.00    -0.467 OA
ATOM     31  C   UNL     1      11.542  10.507   8.225  0.00  0.00    +0.280 C 
ENDBRANCH  19   1
ENDBRANCH  12  19
BRANCH  10   5
ATOM      5  N   UNL     1      10.328   4.507   2.243  0.00  0.00    -0.311 NA
ATOM     33  H   UNL     1      10.029   3.669   2.742  0.00  0.00    +0.122 HD
BRANCH   5  20
ATOM     20  C   UNL     1      11.534   4.200   1.490  0.00  0.00    +0.109 C 
BRANCH  20  25
ATOM     25  C   UNL     1      11.256   4.233  -0.004  0.00  0.00    +0.174 C 
BRANCH  25   3
ATOM      3  O   UNL     1       9.868   4.468  -0.206  0.00  0.00    -0.382 OA
ATOM     32  C   UNL     1       9.644   5.416  -1.240  0.00  0.00    +0.194 C 
ENDBRANCH  25   3
ENDBRANCH  20  25
ENDBRANCH   5  20
ENDBRANCH  10   5
TORSDOF 7
ENDMDL
MODEL 3
REMARK VINA RESULT:      -6.4      1.594      2.219
REMARK  Name = 25389803
REMARK  9 active torsions:
REMARK  status: ('A' for Active; 'I' for Inactive)
REMARK    1  A    between atoms: O_1  and  C_19
REMARK    2  A    between atoms: O_1  and  C_31
REMARK    3  A    between atoms: O_3  and  C_25
REMARK    4  A    between atoms: O_3  and  C_32
REMARK    5  A    between atoms: N_5  and  C_10
REMARK    6  A    between atoms: N_5  and  C_20
REMARK    7  A    between atoms: C_8  and  C_16
REMARK    8  A    between atoms: C_12  and  C_19
REMARK    9  A    between atoms: C_20  and  C_25
REMARK                            x       y       z     vdW  Elec       q    Type
REMARK                         _______ _______ _______ _____ _____    ______ ____
ROOT
ATOM      4  N   UNL     1      13.642  10.009  20.450  0.00  0.00    -0.274 NA
ATOM      6  N   UNL     1      11.295  12.790  21.380  0.00  0.00    -0.356 N 
ATOM      7  C   UNL     1      12.579  10.995  20.082  0.00  0.00    +0.106 C 
ATOM      8  C   UNL     1      14.173   9.296  19.261  0.00  0.00    +0.090 C 
ATOM      9  C   UNL     1      13.118  12.024  19.077  0.00  0.00    +0.044 C 
ATOM     10  C   UNL     1      13.628  11.325  17.818  0.00  0.00    +0.057 C 
ATOM     11  C   UNL     1      14.691  10.295  18.199  0.00  0.00    +0.042 C 
ATOM     12  C   UNL     1      13.246   9.127  21.582  0.00  0.00    +0.172 C 
ATOM     13  C   UNL     1      12.054  11.655  21.323  0.00  0.00    +0.038 A 
ATOM     14  C   UNL     1      12.957   9.920  22.881  0.00  0.00    +0.068 C 
ATOM     15  C   UNL     1      12.200  11.171  22.604  0.00  0.00    -0.016 A 
ATOM     17  C   UNL     1      11.533  12.065  23.485  0.00  0.00    +0.003 A 
ATOM     18  C   UNL     1      10.975  13.073  22.692  0.00  0.00    +0.047 A 
ATOM     23  C   UNL     1      11.342  12.119  24.880  0.00  0.00    +0.010 A 
ATOM     24  C   UNL     1      10.235  14.133  23.228  0.00  0.00    +0.026 A 
ATOM     26  C   UNL     1      10.607  13.176  25.429  0.00  0.00    +0.001 A 
ATOM     29  C   UNL     1      10.063  14.166  24.615  0.00  0.00    +0.002 A 
ATOM     34  H   UNL     1      11.008  13.346  20.586  0.00  0.00    +0.166 HD
ENDROOT
BRANCH   8  16
ATOM     16  C   UNL     1      15.307   8.323  19.572  0.00  0.00    -0.030 A 
ATOM     21  C   UNL     1      15.308   7.049  19.004  0.00  0.00    +0.005 A 
ATOM     22  C   UNL     1      16.343   8.708  20.424  0.00  0.00    +0.005 A 
ATOM     27  C   UNL     1      16.343   6.159  19.288  0.00  0.00    +0.000 A 
ATOM     28  C   UNL     1      17.378   7.818  20.707  0.00  0.00    +0.000 A 
ATOM     30  C   UNL     1      17.379   6.544  20.140  0.00  0.00    +0.000 A 
ENDBRANCH   8  16
BRANCH  12  19
ATOM      2  O   UNL     1      10.971   8.722  20.895  0.00  0.00    -0.249 OA
ATOM     19  C   UNL     1      12.069   8.276  21.199  0.00  0.00    +0.325 C 
BRANCH  19   1
ATOM      1  O   UNL     1      12.423   6.960  21.247  0.00  0.00    -0.467 OA
ATOM     31  C   UNL     1      11.353   6.044  21.499  0.00  0.00    +0.280 C 
ENDBRANCH  19   1
ENDBRANCH  12  19
BRANCH  10   5
ATOM      5  N   UNL     1      14.168  12.309  16.880  0.00  0.00    -0.311 NA
ATOM     33  H   UNL     1      14.917  11.890  16.330  0.00  0.00    +0.122 HD
BRANCH   5  20
ATOM     20  C   UNL     1      14.698  13.462  17.592  0.00  0.00    +0.109 C 
BRANCH  20  25
ATOM     25  C   UNL     1      15.911  14.026  16.871  0.00  0.00    +0.174 C 
BRANCH  25   3
ATOM      3  O   UNL     1      16.743  14.681  17.820  0.00  0.00    -0.382 OA
ATOM     32  C   UNL     1      17.884  15.260  17.202  0.00  0.00    +0.194 C 
ENDBRANCH  25   3
ENDBRANCH  20  25
ENDBRANCH   5  20
ENDBRANCH  10   5
TORSDOF 7
ENDMDL
MODEL 4
REMARK VINA RESULT:      -6.2     13.209     18.057
REMARK  Name = 25389803
REMARK  9 active torsions:
REMARK  status: ('A' for Active; 'I' for Inactive)
REMARK    1  A    between atoms: O_1  and  C_19
REMARK    2  A    between atoms: O_1  and  C_31
REMARK    3  A    between atoms: O_3  and  C_25
REMARK    4  A    between atoms: O_3  and  C_32
REMARK    5  A    between atoms: N_5  and  C_10
REMARK    6  A    between atoms: N_5  and  C_20
REMARK    7  A    between atoms: C_8  and  C_16
REMARK    8  A    between atoms: C_12  and  C_19
REMARK    9  A    between atoms: C_20  and  C_25
REMARK                            x       y       z     vdW  Elec       q    Type
REMARK                         _______ _______ _______ _____ _____    ______ ____
ROOT
ATOM      4  N   UNL     1      10.174   7.394   3.590  0.00  0.00    -0.274 NA
ATOM      6  N   UNL     1       7.494   9.741   4.782  0.00  0.00    -0.356 N 
ATOM      7  C   UNL     1       9.672   8.413   4.564  0.00  0.00    +0.106 C 
ATOM      8  C   UNL     1      11.466   6.804   4.021  0.00  0.00    +0.090 C 
ATOM      9  C   UNL     1       9.504   7.794   5.960  0.00  0.00    +0.044 C 
ATOM     10  C   UNL     1      10.830   7.219   6.454  0.00  0.00    +0.057 C 
ATOM     11  C   UNL     1      11.357   6.202   5.442  0.00  0.00    +0.042 C 
ATOM     12  C   UNL     1      10.145   7.875   2.182  0.00  0.00    +0.172 C 
ATOM     13  C   UNL     1       8.388   9.001   4.060  0.00  0.00    +0.038 A 
ATOM     14  C   UNL     1       8.714   8.230   1.704  0.00  0.00    +0.068 C 
ATOM     15  C   UNL     1       7.943   8.944   2.757  0.00  0.00    -0.016 A 
ATOM     17  C   UNL     1       6.710   9.647   2.687  0.00  0.00    +0.003 A 
ATOM     18  C   UNL     1       6.451  10.136   3.971  0.00  0.00    +0.047 A 
ATOM     23  C   UNL     1       5.787   9.923   1.659  0.00  0.00    +0.010 A 
ATOM     24  C   UNL     1       5.310  10.888   4.276  0.00  0.00    +0.026 A 
ATOM     26  C   UNL     1       4.641  10.671   1.951  0.00  0.00    +0.001 A 
ATOM     29  C   UNL     1       4.408  11.145   3.241  0.00  0.00    +0.002 A 
ATOM     34  H   UNL     1       7.577   9.968   5.764  0.00  0.00    +0.166 HD
ENDROOT
BRANCH   8  16
ATOM     16  C   UNL     1      11.991   5.710   3.095  0.00  0.00    -0.030 A 
ATOM     21  C   UNL     1      11.282   4.516   2.954  0.00  0.00    +0.005 A 
ATOM     22  C   UNL     1      13.179   5.902   2.390  0.00  0.00    +0.005 A 
ATOM     27  C   UNL     1      11.761   3.516   2.108  0.00  0.00    +0.000 A 
ATOM     28  C   UNL     1      13.658   4.902   1.545  0.00  0.00    +0.000 A 
ATOM     30  C   UNL     1      12.949   3.709   1.403  0.00  0.00    +0.000 A 
ENDBRANCH   8  16
BRANCH  12  19
ATOM      2  O   UNL     1      11.308   9.870   2.877  0.00  0.00    -0.249 OA
ATOM     19  C   UNL     1      11.074   9.043   2.006  0.00  0.00    +0.325 C 
BRANCH  19   1
ATOM      1  O   UNL     1      11.598   9.022   0.747  0.00  0.00    -0.467 OA
ATOM     31  C   UNL     1      13.025   9.101   0.674  0.00  0.00    +0.280 C 
ENDBRANCH  19   1
ENDBRANCH  12  19
BRANCH  10   5
ATOM      5  N   UNL     1      10.653   6.604   7.768  0.00  0.00    -0.311 NA
ATOM     33  H   UNL     1      11.478   6.056   8.009  0.00  0.00    +0.122 HD
BRANCH   5  20
ATOM     20  C   UNL     1       9.491   5.729   7.775  0.00  0.00    +0.109 C 
BRANCH  20  25
ATOM     25  C   UNL     1       9.876   4.329   8.227  0.00  0.00    +0.174 C 
BRANCH  25   3
ATOM      3  O   UNL     1      10.070   4.342   9.636  0.00  0.00    -0.382 OA
ATOM     32  C   UNL     1       8.861   4.625  10.326  0.00  0.00    +0.194 C 
ENDBRANCH  25   3
ENDBRANCH  20  25
ENDBRANCH   5  20
ENDBRANCH  10   5
TORSDOF 7
ENDMDL
MODEL 5
REMARK VINA RESULT:      -6.1     29.892     31.765
REMARK  Name = 25389803
REMARK  9 active torsions:
REMARK  status: ('A' for Active; 'I' for Inactive)
REMARK    1  A    between atoms: O_1  and  C_19
REMARK    2  A    between atoms: O_1  and  C_31
REMARK    3  A    between atoms: O_3  and  C_25
REMARK    4  A    between atoms: O_3  and  C_32
REMARK    5  A    between atoms: N_5  and  C_10
REMARK    6  A    between atoms: N_5  and  C_20
REMARK    7  A    between atoms: C_8  and  C_16
REMARK    8  A    between atoms: C_12  and  C_19
REMARK    9  A    between atoms: C_20  and  C_25
REMARK                            x       y       z     vdW  Elec       q    Type
REMARK                         _______ _______ _______ _____ _____    ______ ____
ROOT
ATOM      4  N   UNL     1     -15.490   5.457  31.004  0.00  0.00    -0.274 NA
ATOM      6  N   UNL     1     -17.077   4.750  27.673  0.00  0.00    -0.356 N 
ATOM      7  C   UNL     1     -16.044   4.494  30.002  0.00  0.00    +0.106 C 
ATOM      8  C   UNL     1     -14.852   4.760  32.149  0.00  0.00    +0.090 C 
ATOM      9  C   UNL     1     -14.941   3.564  29.475  0.00  0.00    +0.044 C 
ATOM     10  C   UNL     1     -14.295   2.794  30.625  0.00  0.00    +0.057 C 
ATOM     11  C   UNL     1     -13.759   3.779  31.663  0.00  0.00    +0.042 C 
ATOM     12  C   UNL     1     -16.460   6.521  31.382  0.00  0.00    +0.172 C 
ATOM     13  C   UNL     1     -16.709   5.251  28.891  0.00  0.00    +0.038 A 
ATOM     14  C   UNL     1     -16.890   7.390  30.173  0.00  0.00    +0.068 C 
ATOM     15  C   UNL     1     -17.118   6.565  28.956  0.00  0.00    -0.016 A 
ATOM     17  C   UNL     1     -17.730   6.892  27.715  0.00  0.00    +0.003 A 
ATOM     18  C   UNL     1     -17.690   5.737  26.928  0.00  0.00    +0.047 A 
ATOM     23  C   UNL     1     -18.320   8.055  27.180  0.00  0.00    +0.010 A 
ATOM     24  C   UNL     1     -18.212   5.689  25.630  0.00  0.00    +0.026 A 
ATOM     26  C   UNL     1     -18.842   8.021  25.883  0.00  0.00    +0.001 A 
ATOM     29  C   UNL     1     -18.788   6.856  25.121  0.00  0.00    +0.002 A 
ATOM     34  H   UNL     1     -16.925   3.802  27.357  0.00  0.00    +0.166 HD
ENDROOT
BRANCH   8  16
ATOM     16  C   UNL     1     -14.212   5.697  33.170  0.00  0.00    -0.030 A 
ATOM     21  C   UNL     1     -13.610   6.882  32.748  0.00  0.00    +0.005 A 
ATOM     22  C   UNL     1     -14.228   5.368  34.525  0.00  0.00    +0.005 A 
ATOM     27  C   UNL     1     -13.025   7.739  33.680  0.00  0.00    +0.000 A 
ATOM     28  C   UNL     1     -13.643   6.224  35.457  0.00  0.00    +0.000 A 
ATOM     30  C   UNL     1     -13.041   7.410  35.035  0.00  0.00    +0.000 A 
ENDBRANCH   8  16
BRANCH  12  19
ATOM      2  O   UNL     1     -18.555   5.332  31.483  0.00  0.00    -0.249 OA
ATOM     19  C   UNL     1     -17.657   5.924  32.066  0.00  0.00    +0.325 C 
BRANCH  19   1
ATOM      1  O   UNL     1     -17.572   6.146  33.409  0.00  0.00    -0.467 OA
ATOM     31  C   UNL     1     -18.041   5.079  34.239  0.00  0.00    +0.280 C 
ENDBRANCH  19   1
ENDBRANCH  12  19
BRANCH  10   5
ATOM      5  N   UNL     1     -13.226   1.936  30.118  0.00  0.00    -0.311 NA
ATOM     33  H   UNL     1     -13.181   2.002  29.101  0.00  0.00    +0.122 HD
BRANCH   5  20
ATOM     20  C   UNL     1     -13.460   0.548  30.488  0.00  0.00    +0.109 C 
BRANCH  20  25
ATOM     25  C   UNL     1     -14.233  -0.175  29.396  0.00  0.00    +0.174 C 
BRANCH  25   3
ATOM      3  O   UNL     1     -15.542  -0.460  29.875  0.00  0.00    -0.382 OA
ATOM     32  C   UNL     1     -15.526  -0.821  31.250  0.00  0.00    +0.194 C 
ENDBRANCH  25   3
ENDBRANCH  20  25
ENDBRANCH   5  20
ENDBRANCH  10   5
TORSDOF 7
ENDMDL
MODEL 6
REMARK VINA RESULT:      -6.1     16.923     20.844
REMARK  Name = 25389803
REMARK  9 active torsions:
REMARK  status: ('A' for Active; 'I' for Inactive)
REMARK    1  A    between atoms: O_1  and  C_19
REMARK    2  A    between atoms: O_1  and  C_31
REMARK    3  A    between atoms: O_3  and  C_25
REMARK    4  A    between atoms: O_3  and  C_32
REMARK    5  A    between atoms: N_5  and  C_10
REMARK    6  A    between atoms: N_5  and  C_20
REMARK    7  A    between atoms: C_8  and  C_16
REMARK    8  A    between atoms: C_12  and  C_19
REMARK    9  A    between atoms: C_20  and  C_25
REMARK                            x       y       z     vdW  Elec       q    Type
REMARK                         _______ _______ _______ _____ _____    ______ ____
ROOT
ATOM      4  N   UNL     1      -0.675  10.944   4.877  0.00  0.00    -0.274 NA
ATOM      6  N   UNL     1       2.454  12.902   5.573  0.00  0.00    -0.356 N 
ATOM      7  C   UNL     1       0.396  11.889   4.435  0.00  0.00    +0.106 C 
ATOM      8  C   UNL     1      -1.560  10.542   3.754  0.00  0.00    +0.090 C 
ATOM      9  C   UNL     1       1.249  11.261   3.321  0.00  0.00    +0.044 C 
ATOM     10  C   UNL     1       0.374  10.880   2.128  0.00  0.00    +0.057 C 
ATOM     11  C   UNL     1      -0.740   9.940   2.588  0.00  0.00    +0.042 C 
ATOM     12  C   UNL     1      -1.388  11.407   6.099  0.00  0.00    +0.172 C 
ATOM     13  C   UNL     1       1.232  12.289   5.614  0.00  0.00    +0.038 A 
ATOM     14  C   UNL     1      -0.444  11.556   7.318  0.00  0.00    +0.068 C 
ATOM     15  C   UNL     1       0.859  12.162   6.934  0.00  0.00    -0.016 A 
ATOM     17  C   UNL     1       1.910  12.686   7.735  0.00  0.00    +0.003 A 
ATOM     18  C   UNL     1       2.899  13.142   6.857  0.00  0.00    +0.047 A 
ATOM     23  C   UNL     1       2.121  12.824   9.122  0.00  0.00    +0.010 A 
ATOM     24  C   UNL     1       4.089  13.729   7.300  0.00  0.00    +0.026 A 
ATOM     26  C   UNL     1       3.309  13.406   9.578  0.00  0.00    +0.001 A 
ATOM     29  C   UNL     1       4.277  13.851   8.680  0.00  0.00    +0.002 A 
ATOM     34  H   UNL     1       2.962  13.143   4.734  0.00  0.00    +0.166 HD
ENDROOT
BRANCH   8  16
ATOM     16  C   UNL     1      -2.632   9.526   4.137  0.00  0.00    -0.030 A 
ATOM     21  C   UNL     1      -2.322   8.477   5.003  0.00  0.00    +0.005 A 
ATOM     22  C   UNL     1      -3.923   9.646   3.623  0.00  0.00    +0.005 A 
ATOM     27  C   UNL     1      -3.301   7.549   5.354  0.00  0.00    +0.000 A 
ATOM     28  C   UNL     1      -4.902   8.718   3.974  0.00  0.00    +0.000 A 
ATOM     30  C   UNL     1      -4.592   7.669   4.840  0.00  0.00    +0.000 A 
ENDBRANCH   8  16
BRANCH  12  19
ATOM      2  O   UNL     1      -1.571  13.781   5.715  0.00  0.00    -0.249 OA
ATOM     19  C   UNL     1      -2.118  12.692   5.826  0.00  0.00    +0.325 C 
BRANCH  19   1
ATOM      1  O   UNL     1      -3.456  12.444   5.725  0.00  0.00    -0.467 OA
ATOM     31  C   UNL     1      -4.024  11.696   6.805  0.00  0.00    +0.280 C 
ENDBRANCH  19   1
ENDBRANCH  12  19
BRANCH  10   5
ATOM      5  N   UNL     1       1.188  10.255   1.087  0.00  0.00    -0.311 NA
ATOM     33  H   UNL     1       1.446   9.309   1.370  0.00  0.00    +0.122 HD
BRANCH   5  20
ATOM     20  C   UNL     1       2.402  11.021   0.853  0.00  0.00    +0.109 C 
BRANCH  20  25
ATOM     25  C   UNL     1       3.607  10.099   0.749  0.00  0.00    +0.174 C 
BRANCH  25   3
ATOM      3  O   UNL     1       3.900   9.583   2.041  0.00  0.00    -0.382 OA
ATOM     32  C   UNL     1       4.884  10.364   2.705  0.00  0.00    +0.194 C 
ENDBRANCH  25   3
ENDBRANCH  20  25
ENDBRANCH   5  20
ENDBRANCH  10   5
TORSDOF 7
ENDMDL
MODEL 7
REMARK VINA RESULT:      -6.1     28.341     31.814
REMARK  Name = 25389803
REMARK  9 active torsions:
REMARK  status: ('A' for Active; 'I' for Inactive)
REMARK    1  A    between atoms: O_1  and  C_19
REMARK    2  A    between atoms: O_1  and  C_31
REMARK    3  A    between atoms: O_3  and  C_25
REMARK    4  A    between atoms: O_3  and  C_32
REMARK    5  A    between atoms: N_5  and  C_10
REMARK    6  A    between atoms: N_5  and  C_20
REMARK    7  A    between atoms: C_8  and  C_16
REMARK    8  A    between atoms: C_12  and  C_19
REMARK    9  A    between atoms: C_20  and  C_25
REMARK                            x       y       z     vdW  Elec       q    Type
REMARK                         _______ _______ _______ _____ _____    ______ ____
ROOT
ATOM      4  N   UNL     1      -9.961  -9.696  17.523  0.00  0.00    -0.274 NA
ATOM      6  N   UNL     1      -7.319 -11.768  19.208  0.00  0.00    -0.356 N 
ATOM      7  C   UNL     1      -9.561 -10.875  18.352  0.00  0.00    +0.106 C 
ATOM      8  C   UNL     1     -11.436  -9.542  17.453  0.00  0.00    +0.090 C 
ATOM      9  C   UNL     1     -10.124 -10.755  19.777  0.00  0.00    +0.044 C 
ATOM     10  C   UNL     1     -11.647 -10.643  19.742  0.00  0.00    +0.057 C 
ATOM     11  C   UNL     1     -12.055  -9.457  18.869  0.00  0.00    +0.042 C 
ATOM     12  C   UNL     1      -9.265  -9.649  16.209  0.00  0.00    +0.172 C 
ATOM     13  C   UNL     1      -8.067 -11.004  18.356  0.00  0.00    +0.038 A 
ATOM     14  C   UNL     1      -7.726  -9.544  16.355  0.00  0.00    +0.068 C 
ATOM     15  C   UNL     1      -7.215 -10.420  17.443  0.00  0.00    -0.016 A 
ATOM     17  C   UNL     1      -5.890 -10.814  17.773  0.00  0.00    +0.003 A 
ATOM     18  C   UNL     1      -5.983 -11.657  18.884  0.00  0.00    +0.047 A 
ATOM     23  C   UNL     1      -4.616 -10.542  17.234  0.00  0.00    +0.010 A 
ATOM     24  C   UNL     1      -4.861 -12.242  19.484  0.00  0.00    +0.026 A 
ATOM     26  C   UNL     1      -3.487 -11.118  17.826  0.00  0.00    +0.001 A 
ATOM     29  C   UNL     1      -3.609 -11.954  18.934  0.00  0.00    +0.002 A 
ATOM     34  H   UNL     1      -7.683 -12.329  19.966  0.00  0.00    +0.166 HD
ENDROOT
BRANCH   8  16
ATOM     16  C   UNL     1     -11.898  -8.314  16.673  0.00  0.00    -0.030 A 
ATOM     21  C   UNL     1     -11.165  -7.129  16.740  0.00  0.00    +0.005 A 
ATOM     22  C   UNL     1     -13.053  -8.376  15.893  0.00  0.00    +0.005 A 
ATOM     27  C   UNL     1     -11.586  -6.007  16.027  0.00  0.00    +0.000 A 
ATOM     28  C   UNL     1     -13.474  -7.254  15.180  0.00  0.00    +0.000 A 
ATOM     30  C   UNL     1     -12.741  -6.069  15.247  0.00  0.00    +0.000 A 
ENDBRANCH   8  16
BRANCH  12  19
ATOM      2  O   UNL     1      -9.173 -11.956  15.513  0.00  0.00    -0.249 OA
ATOM     19  C   UNL     1      -9.645 -10.836  15.370  0.00  0.00    +0.325 C 
BRANCH  19   1
ATOM      1  O   UNL     1     -10.578 -10.462  14.448  0.00  0.00    -0.467 OA
ATOM     31  C   UNL     1     -10.191  -9.392  13.580  0.00  0.00    +0.280 C 
ENDBRANCH  19   1
ENDBRANCH  12  19
BRANCH  10   5
ATOM      5  N   UNL     1     -12.171 -10.496  21.099  0.00  0.00    -0.311 NA
ATOM     33  H   UNL     1     -11.684 -11.133  21.730  0.00  0.00    +0.122 HD
BRANCH   5  20
ATOM     20  C   UNL     1     -13.594 -10.796  21.138  0.00  0.00    +0.109 C 
BRANCH  20  25
ATOM     25  C   UNL     1     -13.824 -12.289  21.308  0.00  0.00    +0.174 C 
BRANCH  25   3
ATOM      3  O   UNL     1     -13.006 -12.758  22.372  0.00  0.00    -0.382 OA
ATOM     32  C   UNL     1     -13.671 -12.658  23.625  0.00  0.00    +0.194 C 
ENDBRANCH  25   3
ENDBRANCH  20  25
ENDBRANCH   5  20
ENDBRANCH  10   5
TORSDOF 7
ENDMDL
MODEL 8
REMARK VINA RESULT:      -6.1     14.192     17.216
REMARK  Name = 25389803
REMARK  9 active torsions:
REMARK  status: ('A' for Active; 'I' for Inactive)
REMARK    1  A    between atoms: O_1  and  C_19
REMARK    2  A    between atoms: O_1  and  C_31
REMARK    3  A    between atoms: O_3  and  C_25
REMARK    4  A    between atoms: O_3  and  C_32
REMARK    5  A    between atoms: N_5  and  C_10
REMARK    6  A    between atoms: N_5  and  C_20
REMARK    7  A    between atoms: C_8  and  C_16
REMARK    8  A    between atoms: C_12  and  C_19
REMARK    9  A    between atoms: C_20  and  C_25
REMARK                            x       y       z     vdW  Elec       q    Type
REMARK                         _______ _______ _______ _____ _____    ______ ____
ROOT
ATOM      4  N   UNL     1      12.705   7.415   5.150  0.00  0.00    -0.274 NA
ATOM      6  N   UNL     1      15.906   7.841   3.231  0.00  0.00    -0.356 N 
ATOM      7  C   UNL     1      13.434   7.629   3.861  0.00  0.00    +0.106 C 
ATOM      8  C   UNL     1      11.252   7.197   4.937  0.00  0.00    +0.090 C 
ATOM      9  C   UNL     1      13.236   6.431   2.920  0.00  0.00    +0.044 C 
ATOM     10  C   UNL     1      11.750   6.209   2.641  0.00  0.00    +0.057 C 
ATOM     11  C   UNL     1      11.003   6.023   3.961  0.00  0.00    +0.042 C 
ATOM     12  C   UNL     1      13.040   8.436   6.181  0.00  0.00    +0.172 C 
ATOM     13  C   UNL     1      14.886   7.882   4.140  0.00  0.00    +0.038 A 
ATOM     14  C   UNL     1      14.543   8.433   6.555  0.00  0.00    +0.068 C 
ATOM     15  C   UNL     1      15.408   8.266   5.355  0.00  0.00    -0.016 A 
ATOM     17  C   UNL     1      16.810   8.434   5.192  0.00  0.00    +0.003 A 
ATOM     18  C   UNL     1      17.096   8.160   3.851  0.00  0.00    +0.047 A 
ATOM     23  C   UNL     1      17.868   8.797   6.049  0.00  0.00    +0.010 A 
ATOM     24  C   UNL     1      18.392   8.231   3.326  0.00  0.00    +0.026 A 
ATOM     26  C   UNL     1      19.168   8.868   5.538  0.00  0.00    +0.001 A 
ATOM     29  C   UNL     1      19.425   8.589   4.197  0.00  0.00    +0.002 A 
ATOM     34  H   UNL     1      15.811   7.611   2.251  0.00  0.00    +0.166 HD
ENDROOT
BRANCH   8  16
ATOM     16  C   UNL     1      10.471   6.909   6.216  0.00  0.00    -0.030 A 
ATOM     21  C   UNL     1       9.425   7.749   6.600  0.00  0.00    +0.005 A 
ATOM     22  C   UNL     1      10.802   5.805   7.002  0.00  0.00    +0.005 A 
ATOM     27  C   UNL     1       8.711   7.486   7.768  0.00  0.00    +0.000 A 
ATOM     28  C   UNL     1      10.087   5.542   8.171  0.00  0.00    +0.000 A 
ATOM     30  C   UNL     1       9.042   6.382   8.554  0.00  0.00    +0.000 A 
ENDBRANCH   8  16
BRANCH  12  19
ATOM      2  O   UNL     1      11.524  10.033   5.198  0.00  0.00    -0.249 OA
ATOM     19  C   UNL     1      12.601   9.801   5.731  0.00  0.00    +0.325 C 
BRANCH  19   1
ATOM      1  O   UNL     1      13.579  10.709   6.010  0.00  0.00    -0.467 OA
ATOM     31  C   UNL     1      13.794  11.707   5.007  0.00  0.00    +0.280 C 
ENDBRANCH  19   1
ENDBRANCH  12  19
BRANCH  10   5
ATOM      5  N   UNL     1      11.570   5.048   1.771  0.00  0.00    -0.311 NA
ATOM     33  H   UNL     1      11.203   4.264   2.310  0.00  0.00    +0.122 HD
BRANCH   5  20
ATOM     20  C   UNL     1      12.835   4.653   1.171  0.00  0.00    +0.109 C 
BRANCH  20  25
ATOM     25  C   UNL     1      13.145   3.198   1.481  0.00  0.00    +0.174 C 
BRANCH  25   3
ATOM      3  O   UNL     1      14.514   3.091   1.850  0.00  0.00    -0.382 OA
ATOM     32  C   UNL     1      15.351   3.825   0.966  0.00  0.00    +0.194 C 
ENDBRANCH  25   3
ENDBRANCH  20  25
ENDBRANCH   5  20
ENDBRANCH  10   5
TORSDOF 7
ENDMDL
MODEL 9
REMARK VINA RESULT:      -6.1     28.148     30.554
REMARK  Name = 25389803
REMARK  9 active torsions:
REMARK  status: ('A' for Active; 'I' for Inactive)
REMARK    1  A    between atoms: O_1  and  C_19
REMARK    2  A    between atoms: O_1  and  C_31
REMARK    3  A    between atoms: O_3  and  C_25
REMARK    4  A    between atoms: O_3  and  C_32
REMARK    5  A    between atoms: N_5  and  C_10
REMARK    6  A    between atoms: N_5  and  C_20
REMARK    7  A    between atoms: C_8  and  C_16
REMARK    8  A    between atoms: C_12  and  C_19
REMARK    9  A    between atoms: C_20  and  C_25
REMARK                            x       y       z     vdW  Elec       q    Type
REMARK                         _______ _______ _______ _____ _____    ______ ____
ROOT
ATOM      4  N   UNL     1      -8.009  -9.516  15.106  0.00  0.00    -0.274 NA
ATOM      6  N   UNL     1      -4.553 -10.746  14.298  0.00  0.00    -0.356 N 
ATOM      7  C   UNL     1      -6.852 -10.425  15.377  0.00  0.00    +0.106 C 
ATOM      8  C   UNL     1      -9.058  -9.625  16.151  0.00  0.00    +0.090 C 
ATOM      9  C   UNL     1      -6.232 -10.121  16.748  0.00  0.00    +0.044 C 
ATOM     10  C   UNL     1      -7.275 -10.273  17.854  0.00  0.00    +0.057 C 
ATOM     11  C   UNL     1      -8.470  -9.366  17.559  0.00  0.00    +0.042 C 
ATOM     12  C   UNL     1      -8.508  -9.615  13.707  0.00  0.00    +0.172 C 
ATOM     13  C   UNL     1      -5.845 -10.301  14.272  0.00  0.00    +0.038 A 
ATOM     14  C   UNL     1      -7.430  -9.229  12.663  0.00  0.00    +0.068 C 
ATOM     15  C   UNL     1      -6.094  -9.776  13.023  0.00  0.00    -0.016 A 
ATOM     17  C   UNL     1      -4.895  -9.871  12.266  0.00  0.00    +0.003 A 
ATOM     18  C   UNL     1      -3.944 -10.482  13.088  0.00  0.00    +0.047 A 
ATOM     23  C   UNL     1      -4.522  -9.503  10.957  0.00  0.00    +0.010 A 
ATOM     24  C   UNL     1      -2.636 -10.742  12.665  0.00  0.00    +0.026 A 
ATOM     26  C   UNL     1      -3.216  -9.755  10.523  0.00  0.00    +0.001 A 
ATOM     29  C   UNL     1      -2.288 -10.365  11.365  0.00  0.00    +0.002 A 
ATOM     34  H   UNL     1      -4.103 -11.199  15.081  0.00  0.00    +0.166 HD
ENDROOT
BRANCH   8  16
ATOM     16  C   UNL     1     -10.232  -8.670  15.958  0.00  0.00    -0.030 A 
ATOM     21  C   UNL     1     -11.502  -9.174  15.677  0.00  0.00    +0.005 A 
ATOM     22  C   UNL     1     -10.037  -7.293  16.062  0.00  0.00    +0.005 A 
ATOM     27  C   UNL     1     -12.576  -8.302  15.500  0.00  0.00    +0.000 A 
ATOM     28  C   UNL     1     -11.110  -6.421  15.885  0.00  0.00    +0.000 A 
ATOM     30  C   UNL     1     -12.380  -6.925  15.604  0.00  0.00    +0.000 A 
ENDBRANCH   8  16
BRANCH  12  19
ATOM      2  O   UNL     1      -9.570 -11.700  14.286  0.00  0.00    -0.249 OA
ATOM     19  C   UNL     1      -9.049 -10.990  13.437  0.00  0.00    +0.325 C 
BRANCH  19   1
ATOM      1  O   UNL     1      -8.865 -11.302  12.122  0.00  0.00    -0.467 OA
ATOM     31  C   UNL     1      -8.528 -12.668  11.857  0.00  0.00    +0.280 C 
ENDBRANCH  19   1
ENDBRANCH  12  19
BRANCH  10   5
ATOM      5  N   UNL     1      -6.684  -9.950  19.151  0.00  0.00    -0.311 NA
ATOM     33  H   UNL     1      -5.929  -9.275  19.030  0.00  0.00    +0.122 HD
BRANCH   5  20
ATOM     20  C   UNL     1      -6.147 -11.145  19.784  0.00  0.00    +0.109 C 
BRANCH  20  25
ATOM     25  C   UNL     1      -6.965 -12.368  19.402  0.00  0.00    +0.174 C 
BRANCH  25   3
ATOM      3  O   UNL     1      -7.932 -12.607  20.417  0.00  0.00    -0.382 OA
ATOM     32  C   UNL     1      -9.221 -12.839  19.866  0.00  0.00    +0.194 C 
ENDBRANCH  25   3
ENDBRANCH  20  25
ENDBRANCH   5  20
ENDBRANCH  10   5
TORSDOF 7
ENDMDL
MODEL 10
REMARK VINA RESULT:      -6.0     13.976     18.870
REMARK  Name = 25389803
REMARK  9 active torsions:
REMARK  status: ('A' for Active; 'I' for Inactive)
REMARK    1  A    between atoms: O_1  and  C_19
REMARK    2  A    between atoms: O_1  and  C_31
REMARK    3  A    between atoms: O_3  and  C_25
REMARK    4  A    between atoms: O_3  and  C_32
REMARK    5  A    between atoms: N_5  and  C_10
REMARK    6  A    between atoms: N_5  and  C_20
REMARK    7  A    between atoms: C_8  and  C_16
REMARK    8  A    between atoms: C_12  and  C_19
REMARK    9  A    between atoms: C_20  and  C_25
REMARK                            x       y       z     vdW  Elec       q    Type
REMARK                         _______ _______ _______ _____ _____    ______ ____
ROOT
ATOM      4  N   UNL     1       9.680   6.512   4.400  0.00  0.00    -0.274 NA
ATOM      6  N   UNL     1       9.623   7.200   0.708  0.00  0.00    -0.356 N 
ATOM      7  C   UNL     1       9.597   7.469   3.254  0.00  0.00    +0.106 C 
ATOM      8  C   UNL     1       9.448   7.185   5.703  0.00  0.00    +0.090 C 
ATOM      9  C   UNL     1       8.227   8.164   3.225  0.00  0.00    +0.044 C 
ATOM     10  C   UNL     1       7.977   8.909   4.536  0.00  0.00    +0.057 C 
ATOM     11  C   UNL     1       8.094   7.935   5.708  0.00  0.00    +0.042 C 
ATOM     12  C   UNL     1      10.894   5.652   4.349  0.00  0.00    +0.172 C 
ATOM     13  C   UNL     1       9.877   6.744   1.971  0.00  0.00    +0.038 A 
ATOM     14  C   UNL     1      10.945   4.771   3.075  0.00  0.00    +0.068 C 
ATOM     15  C   UNL     1      10.507   5.523   1.869  0.00  0.00    -0.016 A 
ATOM     17  C   UNL     1      10.610   5.203   0.488  0.00  0.00    +0.003 A 
ATOM     18  C   UNL     1      10.047   6.270  -0.218  0.00  0.00    +0.047 A 
ATOM     23  C   UNL     1      11.131   4.112  -0.237  0.00  0.00    +0.010 A 
ATOM     24  C   UNL     1       9.979   6.298  -1.616  0.00  0.00    +0.026 A 
ATOM     26  C   UNL     1      11.066   4.126  -1.635  0.00  0.00    +0.001 A 
ATOM     29  C   UNL     1      10.499   5.203  -2.312  0.00  0.00    +0.002 A 
ATOM     34  H   UNL     1       9.188   8.083   0.478  0.00  0.00    +0.166 HD
ENDROOT
BRANCH   8  16
ATOM     16  C   UNL     1       9.457   6.241   6.903  0.00  0.00    -0.030 A 
ATOM     21  C   UNL     1       9.705   4.881   6.717  0.00  0.00    +0.005 A 
ATOM     22  C   UNL     1       9.218   6.738   8.184  0.00  0.00    +0.005 A 
ATOM     27  C   UNL     1       9.714   4.018   7.812  0.00  0.00    +0.000 A 
ATOM     28  C   UNL     1       9.227   5.875   9.279  0.00  0.00    +0.000 A 
ATOM     30  C   UNL     1       9.475   4.514   9.094  0.00  0.00    +0.000 A 
ENDBRANCH   8  16
BRANCH  12  19
ATOM      2  O   UNL     1      12.759   6.937   3.522  0.00  0.00    -0.249 OA
ATOM     19  C   UNL     1      12.136   6.487   4.474  0.00  0.00    +0.325 C 
BRANCH  19   1
ATOM      1  O   UNL     1      12.443   6.654   5.793  0.00  0.00    -0.467 OA
ATOM     31  C   UNL     1      13.292   7.766   6.090  0.00  0.00    +0.280 C 
ENDBRANCH  19   1
ENDBRANCH  12  19
BRANCH  10   5
ATOM      5  N   UNL     1       6.658   9.540   4.512  0.00  0.00    -0.311 NA
ATOM     33  H   UNL     1       5.945   8.864   4.786  0.00  0.00    +0.122 HD
BRANCH   5  20
ATOM     20  C   UNL     1       6.348  10.034   3.179  0.00  0.00    +0.109 C 
BRANCH  20  25
ATOM     25  C   UNL     1       4.883  10.429   3.081  0.00  0.00    +0.174 C 
BRANCH  25   3
ATOM      3  O   UNL     1       4.543  10.586   1.709  0.00  0.00    -0.382 OA
ATOM     32  C   UNL     1       3.134  10.598   1.519  0.00  0.00    +0.194 C 
ENDBRANCH  25   3
ENDBRANCH  20  25
ENDBRANCH   5  20
ENDBRANCH  10   5
TORSDOF 7
ENDMDL
