MODEL 1
REMARK VINA RESULT:      -7.3      0.000      0.000
REMARK  Name = 75536553
REMARK  8 active torsions:
REMARK  status: ('A' for Active; 'I' for Inactive)
REMARK    1  A    between atoms: O_2  and  C_7
REMARK    2  A    between atoms: N_4  and  C_6
REMARK    3  A    between atoms: N_4  and  C_17
REMARK    4  A    between atoms: N_5  and  C_15
REMARK    5  A    between atoms: C_8  and  C_15
REMARK    6  A    between atoms: C_9  and  C_16
REMARK    7  A    between atoms: C_17  and  C_18
REMARK    8  A    between atoms: C_17  and  C_19
REMARK                            x       y       z     vdW  Elec       q    Type
REMARK                         _______ _______ _______ _____ _____    ______ ____
ROOT
ATOM      1  O   UNL     1      -4.444   3.746  25.922  0.00  0.00    -0.371 OA
ATOM      6  C   UNL     1      -2.420   3.939  24.694  0.00  0.00    +0.111 C 
ATOM      7  C   UNL     1      -3.148   2.682  24.254  0.00  0.00    +0.164 C 
ATOM      8  C   UNL     1      -4.569   2.994  24.703  0.00  0.00    +0.165 C 
ATOM     12  C   UNL     1      -3.092   4.224  26.027  0.00  0.00    +0.181 C 
ENDROOT
BRANCH   7   2
ATOM      2  O   UNL     1      -3.071   2.468  22.858  0.00  0.00    -0.388 OA
ATOM     22  H   UNL     1      -3.975   2.409  22.508  0.00  0.00    +0.210 HD
ENDBRANCH   7   2
BRANCH   6   4
ATOM      4  N   UNL     1      -0.981   3.770  24.810  0.00  0.00    -0.307 NA
ATOM     20  H   UNL     1      -0.602   4.435  25.483  0.00  0.00    +0.123 HD
BRANCH   4  17
ATOM     17  C   UNL     1      -0.643   2.409  25.213  0.00  0.00    +0.048 C 
ATOM     18  C   UNL     1       0.271   1.782  24.165  0.00  0.00    +0.023 C 
ATOM     19  C   UNL     1       0.020   2.415  26.587  0.00  0.00    +0.023 C 
ENDBRANCH   4  17
ENDBRANCH   6   4
BRANCH   8  15
ATOM     15  C   UNL     1      -5.405   1.750  24.950  0.00  0.00    +0.138 C 
BRANCH  15   5
ATOM      3  O   UNL     1      -4.249  -0.523  23.562  0.00  0.00    -0.276 OA
ATOM      5  N   UNL     1      -4.615   0.694  25.515  0.00  0.00    -0.313 N 
ATOM     16  C   UNL     1      -4.099  -0.361  24.770  0.00  0.00    +0.216 C 
ATOM     21  H   UNL     1      -4.427   0.733  26.513  0.00  0.00    +0.149 HD
BRANCH  16   9
ATOM      9  C   UNL     1      -3.290  -1.310  25.601  0.00  0.00    +0.075 C 
ATOM     10  C   UNL     1      -3.059  -2.622  24.849  0.00  0.00    +0.013 C 
ATOM     11  C   UNL     1      -1.901  -0.724  25.878  0.00  0.00    +0.013 C 
ATOM     13  C   UNL     1      -1.655  -2.493  24.275  0.00  0.00    +0.001 C 
ATOM     14  C   UNL     1      -0.903  -1.759  25.371  0.00  0.00    +0.001 C 
ENDBRANCH  16   9
ENDBRANCH  15   5
ENDBRANCH   8  15
TORSDOF 6
ENDMDL
MODEL 2
REMARK VINA RESULT:      -7.0      2.043      5.197
REMARK  Name = 75536553
REMARK  8 active torsions:
REMARK  status: ('A' for Active; 'I' for Inactive)
REMARK    1  A    between atoms: O_2  and  C_7
REMARK    2  A    between atoms: N_4  and  C_6
REMARK    3  A    between atoms: N_4  and  C_17
REMARK    4  A    between atoms: N_5  and  C_15
REMARK    5  A    between atoms: C_8  and  C_15
REMARK    6  A    between atoms: C_9  and  C_16
REMARK    7  A    between atoms: C_17  and  C_18
REMARK    8  A    between atoms: C_17  and  C_19
REMARK                            x       y       z     vdW  Elec       q    Type
REMARK                         _______ _______ _______ _____ _____    ______ ____
ROOT
ATOM      1  O   UNL     1      -0.678   1.070  26.014  0.00  0.00    -0.371 OA
ATOM      6  C   UNL     1      -0.637  -0.943  24.754  0.00  0.00    +0.111 C 
ATOM      7  C   UNL     1      -0.422   0.232  23.817  0.00  0.00    +0.164 C 
ATOM      8  C   UNL     1       0.045   1.303  24.793  0.00  0.00    +0.165 C 
ATOM     12  C   UNL     1      -1.239  -0.254  25.967  0.00  0.00    +0.181 C 
ENDROOT
BRANCH   7   2
ATOM      2  O   UNL     1       0.548  -0.033  22.822  0.00  0.00    -0.388 OA
ATOM     22  H   UNL     1       0.464  -0.963  22.554  0.00  0.00    +0.210 HD
ENDBRANCH   7   2
BRANCH   6   4
ATOM      4  N   UNL     1      -1.499  -1.976  24.204  0.00  0.00    -0.307 NA
ATOM     20  H   UNL     1      -1.138  -2.899  24.443  0.00  0.00    +0.123 HD
BRANCH   4  17
ATOM     17  C   UNL     1      -2.866  -1.836  24.694  0.00  0.00    +0.048 C 
ATOM     18  C   UNL     1      -3.746  -1.268  23.586  0.00  0.00    +0.023 C 
ATOM     19  C   UNL     1      -3.394  -3.183  25.179  0.00  0.00    +0.023 C 
ENDBRANCH   4  17
ENDBRANCH   6   4
BRANCH   8  15
ATOM     15  C   UNL     1      -0.219   2.716  24.303  0.00  0.00    +0.138 C 
BRANCH  15   5
ATOM      3  O   UNL     1      -2.064   4.193  25.990  0.00  0.00    -0.276 OA
ATOM      5  N   UNL     1      -1.618   2.937  24.078  0.00  0.00    -0.313 N 
ATOM     16  C   UNL     1      -2.430   3.661  24.945  0.00  0.00    +0.216 C 
ATOM     21  H   UNL     1      -2.026   2.541  23.236  0.00  0.00    +0.149 HD
BRANCH  16   9
ATOM      9  C   UNL     1      -3.845   3.762  24.460  0.00  0.00    +0.075 C 
ATOM     10  C   UNL     1      -4.263   2.474  23.747  0.00  0.00    +0.013 C 
ATOM     11  C   UNL     1      -4.803   3.926  25.645  0.00  0.00    +0.013 C 
ATOM     13  C   UNL     1      -5.055   1.698  24.790  0.00  0.00    +0.001 C 
ATOM     14  C   UNL     1      -5.811   2.788  25.527  0.00  0.00    +0.001 C 
ENDBRANCH  16   9
ENDBRANCH  15   5
ENDBRANCH   8  15
TORSDOF 6
ENDMDL
MODEL 3
REMARK VINA RESULT:      -5.7     16.176     18.496
REMARK  Name = 75536553
REMARK  8 active torsions:
REMARK  status: ('A' for Active; 'I' for Inactive)
REMARK    1  A    between atoms: O_2  and  C_7
REMARK    2  A    between atoms: N_4  and  C_6
REMARK    3  A    between atoms: N_4  and  C_17
REMARK    4  A    between atoms: N_5  and  C_15
REMARK    5  A    between atoms: C_8  and  C_15
REMARK    6  A    between atoms: C_9  and  C_16
REMARK    7  A    between atoms: C_17  and  C_18
REMARK    8  A    between atoms: C_17  and  C_19
REMARK                            x       y       z     vdW  Elec       q    Type
REMARK                         _______ _______ _______ _____ _____    ______ ____
ROOT
ATOM      1  O   UNL     1      11.276   7.063  21.058  0.00  0.00    -0.371 OA
ATOM      6  C   UNL     1      13.645   7.158  20.911  0.00  0.00    +0.111 C 
ATOM      7  C   UNL     1      13.140   8.422  21.582  0.00  0.00    +0.164 C 
ATOM      8  C   UNL     1      11.766   7.971  22.059  0.00  0.00    +0.165 C 
ATOM     12  C   UNL     1      12.381   6.651  20.235  0.00  0.00    +0.181 C 
ENDROOT
BRANCH   7   2
ATOM      2  O   UNL     1      13.961   8.835  22.657  0.00  0.00    -0.388 OA
ATOM     22  H   UNL     1      13.501   9.541  23.139  0.00  0.00    +0.210 HD
ENDBRANCH   7   2
BRANCH   6   4
ATOM      4  N   UNL     1      14.733   7.389  19.976  0.00  0.00    -0.307 NA
ATOM     20  H   UNL     1      15.033   8.362  20.019  0.00  0.00    +0.123 HD
BRANCH   4  17
ATOM     17  C   UNL     1      15.862   6.508  20.254  0.00  0.00    +0.048 C 
ATOM     18  C   UNL     1      16.501   6.072  18.941  0.00  0.00    +0.023 C 
ATOM     19  C   UNL     1      16.875   7.215  21.150  0.00  0.00    +0.023 C 
ENDBRANCH   4  17
ENDBRANCH   6   4
BRANCH   8  15
ATOM     15  C   UNL     1      10.786   9.118  22.235  0.00  0.00    +0.138 C 
BRANCH  15   5
ATOM      3  O   UNL     1      11.062  11.981  21.835  0.00  0.00    -0.276 OA
ATOM      5  N   UNL     1      11.279  10.086  23.173  0.00  0.00    -0.313 N 
ATOM     16  C   UNL     1      11.377  11.444  22.894  0.00  0.00    +0.216 C 
ATOM     21  H   UNL     1      11.566   9.747  24.087  0.00  0.00    +0.149 HD
BRANCH  16   9
ATOM      9  C   UNL     1      11.899  12.234  24.057  0.00  0.00    +0.075 C 
ATOM     10  C   UNL     1      11.892  13.730  23.738  0.00  0.00    +0.013 C 
ATOM     11  C   UNL     1      10.988  12.051  25.276  0.00  0.00    +0.013 C 
ATOM     13  C   UNL     1      10.631  14.259  24.406  0.00  0.00    +0.001 C 
ATOM     14  C   UNL     1      10.561  13.455  25.691  0.00  0.00    +0.001 C 
ENDBRANCH  16   9
ENDBRANCH  15   5
ENDBRANCH   8  15
TORSDOF 6
ENDMDL
MODEL 4
REMARK VINA RESULT:      -5.6     16.717     18.767
REMARK  Name = 75536553
REMARK  8 active torsions:
REMARK  status: ('A' for Active; 'I' for Inactive)
REMARK    1  A    between atoms: O_2  and  C_7
REMARK    2  A    between atoms: N_4  and  C_6
REMARK    3  A    between atoms: N_4  and  C_17
REMARK    4  A    between atoms: N_5  and  C_15
REMARK    5  A    between atoms: C_8  and  C_15
REMARK    6  A    between atoms: C_9  and  C_16
REMARK    7  A    between atoms: C_17  and  C_18
REMARK    8  A    between atoms: C_17  and  C_19
REMARK                            x       y       z     vdW  Elec       q    Type
REMARK                         _______ _______ _______ _____ _____    ______ ____
ROOT
ATOM      1  O   UNL     1      13.262   8.742  18.226  0.00  0.00    -0.371 OA
ATOM      6  C   UNL     1      14.152   6.727  19.114  0.00  0.00    +0.111 C 
ATOM      7  C   UNL     1      12.811   7.004  19.766  0.00  0.00    +0.164 C 
ATOM      8  C   UNL     1      12.183   7.952  18.753  0.00  0.00    +0.165 C 
ATOM     12  C   UNL     1      14.504   8.095  18.555  0.00  0.00    +0.181 C 
ENDROOT
BRANCH   7   2
ATOM      2  O   UNL     1      12.036   5.834  19.943  0.00  0.00    -0.388 OA
ATOM     22  H   UNL     1      11.278   5.875  19.338  0.00  0.00    +0.210 HD
ENDBRANCH   7   2
BRANCH   6   4
ATOM      4  N   UNL     1      15.154   6.216  20.035  0.00  0.00    -0.307 NA
ATOM     20  H   UNL     1      15.165   5.198  20.014  0.00  0.00    +0.123 HD
BRANCH   4  17
ATOM     17  C   UNL     1      16.479   6.735  19.711  0.00  0.00    +0.048 C 
ATOM     18  C   UNL     1      17.208   7.105  20.998  0.00  0.00    +0.023 C 
ATOM     19  C   UNL     1      17.268   5.703  18.910  0.00  0.00    +0.023 C 
ENDBRANCH   4  17
ENDBRANCH   6   4
BRANCH   8  15
ATOM     15  C   UNL     1      11.128   8.863  19.357  0.00  0.00    +0.138 C 
BRANCH  15   5
ATOM      3  O   UNL     1      12.374  11.264  20.413  0.00  0.00    -0.276 OA
ATOM      5  N   UNL     1      11.422   9.161  20.730  0.00  0.00    -0.313 N 
ATOM     16  C   UNL     1      12.023  10.343  21.147  0.00  0.00    +0.216 C 
ATOM     21  H   UNL     1      11.169   8.464  21.425  0.00  0.00    +0.149 HD
BRANCH  16   9
ATOM      9  C   UNL     1      12.192  10.409  22.635  0.00  0.00    +0.075 C 
ATOM     10  C   UNL     1      12.918  11.695  23.038  0.00  0.00    +0.013 C 
ATOM     11  C   UNL     1      10.824  10.455  23.324  0.00  0.00    +0.013 C 
ATOM     13  C   UNL     1      11.809  12.638  23.482  0.00  0.00    +0.001 C 
ATOM     14  C   UNL     1      10.833  11.712  24.186  0.00  0.00    +0.001 C 
ENDBRANCH  16   9
ENDBRANCH  15   5
ENDBRANCH   8  15
TORSDOF 6
ENDMDL
MODEL 5
REMARK VINA RESULT:      -5.6     12.293     13.921
REMARK  Name = 75536553
REMARK  8 active torsions:
REMARK  status: ('A' for Active; 'I' for Inactive)
REMARK    1  A    between atoms: O_2  and  C_7
REMARK    2  A    between atoms: N_4  and  C_6
REMARK    3  A    between atoms: N_4  and  C_17
REMARK    4  A    between atoms: N_5  and  C_15
REMARK    5  A    between atoms: C_8  and  C_15
REMARK    6  A    between atoms: C_9  and  C_16
REMARK    7  A    between atoms: C_17  and  C_18
REMARK    8  A    between atoms: C_17  and  C_19
REMARK                            x       y       z     vdW  Elec       q    Type
REMARK                         _______ _______ _______ _____ _____    ______ ____
ROOT
ATOM      1  O   UNL     1     -16.000   6.741  22.944  0.00  0.00    -0.371 OA
ATOM      6  C   UNL     1     -15.255   4.518  23.326  0.00  0.00    +0.111 C 
ATOM      7  C   UNL     1     -14.524   5.085  22.122  0.00  0.00    +0.164 C 
ATOM      8  C   UNL     1     -14.701   6.580  22.349  0.00  0.00    +0.165 C 
ATOM     12  C   UNL     1     -16.442   5.461  23.429  0.00  0.00    +0.181 C 
ENDROOT
BRANCH   7   2
ATOM      2  O   UNL     1     -13.160   4.715  22.087  0.00  0.00    -0.388 OA
ATOM     22  H   UNL     1     -12.860   4.740  21.164  0.00  0.00    +0.210 HD
ENDBRANCH   7   2
BRANCH   6   4
ATOM      4  N   UNL     1     -15.647   3.128  23.169  0.00  0.00    -0.307 NA
ATOM     20  H   UNL     1     -14.900   2.513  23.489  0.00  0.00    +0.123 HD
BRANCH   4  17
ATOM     17  C   UNL     1     -16.875   2.842  23.904  0.00  0.00    +0.048 C 
ATOM     18  C   UNL     1     -17.775   1.947  23.059  0.00  0.00    +0.023 C 
ATOM     19  C   UNL     1     -16.548   2.186  25.242  0.00  0.00    +0.023 C 
ENDBRANCH   4  17
ENDBRANCH   6   4
BRANCH   8  15
ATOM     15  C   UNL     1     -14.617   7.394  21.070  0.00  0.00    +0.138 C 
BRANCH  15   5
ATOM      3  O   UNL     1     -12.578   9.461  21.154  0.00  0.00    -0.276 OA
ATOM      5  N   UNL     1     -13.300   7.342  20.505  0.00  0.00    -0.313 N 
ATOM     16  C   UNL     1     -12.384   8.385  20.593  0.00  0.00    +0.216 C 
ATOM     21  H   UNL     1     -13.033   6.491  20.017  0.00  0.00    +0.149 HD
BRANCH  16   9
ATOM      9  C   UNL     1     -11.075   8.059  19.939  0.00  0.00    +0.075 C 
ATOM     10  C   UNL     1     -11.298   7.245  18.663  0.00  0.00    +0.013 C 
ATOM     11  C   UNL     1     -10.362   9.346  19.508  0.00  0.00    +0.013 C 
ATOM     13  C   UNL     1     -11.198   8.263  17.536  0.00  0.00    +0.001 C 
ATOM     14  C   UNL     1     -10.100   9.196  18.014  0.00  0.00    +0.001 C 
ENDBRANCH  16   9
ENDBRANCH  15   5
ENDBRANCH   8  15
TORSDOF 6
ENDMDL
MODEL 6
REMARK VINA RESULT:      -5.4     14.660     17.141
REMARK  Name = 75536553
REMARK  8 active torsions:
REMARK  status: ('A' for Active; 'I' for Inactive)
REMARK    1  A    between atoms: O_2  and  C_7
REMARK    2  A    between atoms: N_4  and  C_6
REMARK    3  A    between atoms: N_4  and  C_17
REMARK    4  A    between atoms: N_5  and  C_15
REMARK    5  A    between atoms: C_8  and  C_15
REMARK    6  A    between atoms: C_9  and  C_16
REMARK    7  A    between atoms: C_17  and  C_18
REMARK    8  A    between atoms: C_17  and  C_19
REMARK                            x       y       z     vdW  Elec       q    Type
REMARK                         _______ _______ _______ _____ _____    ______ ____
ROOT
ATOM      1  O   UNL     1      -1.225 -11.343  15.115  0.00  0.00    -0.371 OA
ATOM      6  C   UNL     1      -3.392 -10.944  16.002  0.00  0.00    +0.111 C 
ATOM      7  C   UNL     1      -3.478 -10.988  14.487  0.00  0.00    +0.164 C 
ATOM      8  C   UNL     1      -2.205 -11.749  14.144  0.00  0.00    +0.165 C 
ATOM     12  C   UNL     1      -1.906 -10.709  16.212  0.00  0.00    +0.181 C 
ENDROOT
BRANCH   7   2
ATOM      2  O   UNL     1      -4.634 -11.660  14.025  0.00  0.00    -0.388 OA
ATOM     22  H   UNL     1      -4.357 -12.493  13.609  0.00  0.00    +0.210 HD
ENDBRANCH   7   2
BRANCH   6   4
ATOM      4  N   UNL     1      -4.220  -9.911  16.603  0.00  0.00    -0.307 NA
ATOM     20  H   UNL     1      -4.769  -9.439  15.886  0.00  0.00    +0.123 HD
BRANCH   4  17
ATOM     17  C   UNL     1      -5.104 -10.472  17.619  0.00  0.00    +0.048 C 
ATOM     18  C   UNL     1      -6.353 -11.036  16.949  0.00  0.00    +0.023 C 
ATOM     19  C   UNL     1      -4.376 -11.549  18.418  0.00  0.00    +0.023 C 
ENDBRANCH   4  17
ENDBRANCH   6   4
BRANCH   8  15
ATOM     15  C   UNL     1      -1.691 -11.457  12.745  0.00  0.00    +0.138 C 
BRANCH  15   5
ATOM      3  O   UNL     1      -1.829  -9.367  10.733  0.00  0.00    -0.276 OA
ATOM      5  N   UNL     1      -2.771 -11.189  11.839  0.00  0.00    -0.313 N 
ATOM     16  C   UNL     1      -2.751 -10.161  10.903  0.00  0.00    +0.216 C 
ATOM     21  H   UNL     1      -3.588 -11.792  11.892  0.00  0.00    +0.149 HD
BRANCH  16   9
ATOM      9  C   UNL     1      -3.994 -10.119  10.067  0.00  0.00    +0.075 C 
ATOM     10  C   UNL     1      -5.240 -10.230  10.948  0.00  0.00    +0.013 C 
ATOM     11  C   UNL     1      -4.101  -8.773   9.340  0.00  0.00    +0.013 C 
ATOM     13  C   UNL     1      -5.728  -8.796  11.104  0.00  0.00    +0.001 C 
ATOM     14  C   UNL     1      -5.451  -8.190   9.740  0.00  0.00    +0.001 C 
ENDBRANCH  16   9
ENDBRANCH  15   5
ENDBRANCH   8  15
TORSDOF 6
ENDMDL
MODEL 7
REMARK VINA RESULT:      -5.4     24.312     26.390
REMARK  Name = 75536553
REMARK  8 active torsions:
REMARK  status: ('A' for Active; 'I' for Inactive)
REMARK    1  A    between atoms: O_2  and  C_7
REMARK    2  A    between atoms: N_4  and  C_6
REMARK    3  A    between atoms: N_4  and  C_17
REMARK    4  A    between atoms: N_5  and  C_15
REMARK    5  A    between atoms: C_8  and  C_15
REMARK    6  A    between atoms: C_9  and  C_16
REMARK    7  A    between atoms: C_17  and  C_18
REMARK    8  A    between atoms: C_17  and  C_19
REMARK                            x       y       z     vdW  Elec       q    Type
REMARK                         _______ _______ _______ _____ _____    ______ ____
ROOT
ATOM      1  O   UNL     1       8.997   7.296   3.000  0.00  0.00    -0.371 OA
ATOM      6  C   UNL     1       9.601   6.315   5.077  0.00  0.00    +0.111 C 
ATOM      7  C   UNL     1      10.195   5.491   3.949  0.00  0.00    +0.164 C 
ATOM      8  C   UNL     1      10.179   6.499   2.809  0.00  0.00    +0.165 C 
ATOM     12  C   UNL     1       8.524   7.097   4.343  0.00  0.00    +0.181 C 
ENDROOT
BRANCH   7   2
ATOM      2  O   UNL     1      11.504   5.038   4.234  0.00  0.00    -0.388 OA
ATOM     22  H   UNL     1      12.113   5.439   3.591  0.00  0.00    +0.210 HD
ENDBRANCH   7   2
BRANCH   6   4
ATOM      4  N   UNL     1       9.075   5.515   6.170  0.00  0.00    -0.307 NA
ATOM     20  H   UNL     1       9.206   4.523   5.975  0.00  0.00    +0.123 HD
BRANCH   4  17
ATOM     17  C   UNL     1       9.718   5.861   7.432  0.00  0.00    +0.048 C 
ATOM     18  C   UNL     1       8.962   7.011   8.088  0.00  0.00    +0.023 C 
ATOM     19  C   UNL     1       9.770   4.644   8.350  0.00  0.00    +0.023 C 
ENDBRANCH   4  17
ENDBRANCH   6   4
BRANCH   8  15
ATOM     15  C   UNL     1      10.145   5.852   1.436  0.00  0.00    +0.138 C 
BRANCH  15   5
ATOM      3  O   UNL     1      10.614   4.078  -0.815  0.00  0.00    -0.276 OA
ATOM      5  N   UNL     1      11.210   4.902   1.281  0.00  0.00    -0.313 N 
ATOM     16  C   UNL     1      11.357   4.089   0.163  0.00  0.00    +0.216 C 
ATOM     21  H   UNL     1      11.887   4.832   2.035  0.00  0.00    +0.149 HD
BRANCH  16   9
ATOM      9  C   UNL     1      12.567   3.208   0.246  0.00  0.00    +0.075 C 
ATOM     10  C   UNL     1      13.676   3.727  -0.672  0.00  0.00    +0.013 C 
ATOM     11  C   UNL     1      13.142   3.228   1.667  0.00  0.00    +0.013 C 
ATOM     13  C   UNL     1      14.612   4.492   0.253  0.00  0.00    +0.001 C 
ATOM     14  C   UNL     1      14.597   3.659   1.522  0.00  0.00    +0.001 C 
ENDBRANCH  16   9
ENDBRANCH  15   5
ENDBRANCH   8  15
TORSDOF 6
ENDMDL
MODEL 8
REMARK VINA RESULT:      -5.3     17.613     20.232
REMARK  Name = 75536553
REMARK  8 active torsions:
REMARK  status: ('A' for Active; 'I' for Inactive)
REMARK    1  A    between atoms: O_2  and  C_7
REMARK    2  A    between atoms: N_4  and  C_6
REMARK    3  A    between atoms: N_4  and  C_17
REMARK    4  A    between atoms: N_5  and  C_15
REMARK    5  A    between atoms: C_8  and  C_15
REMARK    6  A    between atoms: C_9  and  C_16
REMARK    7  A    between atoms: C_17  and  C_18
REMARK    8  A    between atoms: C_17  and  C_19
REMARK                            x       y       z     vdW  Elec       q    Type
REMARK                         _______ _______ _______ _____ _____    ______ ____
ROOT
ATOM      1  O   UNL     1      16.084   8.414  20.505  0.00  0.00    -0.371 OA
ATOM      6  C   UNL     1      18.137   7.417  21.160  0.00  0.00    +0.111 C 
ATOM      7  C   UNL     1      17.388   6.457  20.254  0.00  0.00    +0.164 C 
ATOM      8  C   UNL     1      16.439   7.410  19.539  0.00  0.00    +0.165 C 
ATOM     12  C   UNL     1      17.022   8.354  21.593  0.00  0.00    +0.181 C 
ENDROOT
BRANCH   7   2
ATOM      2  O   UNL     1      18.241   5.785  19.347  0.00  0.00    -0.388 OA
ATOM     22  H   UNL     1      18.493   6.407  18.646  0.00  0.00    +0.210 HD
ENDBRANCH   7   2
BRANCH   6   4
ATOM      4  N   UNL     1      18.797   6.766  22.280  0.00  0.00    -0.307 NA
ATOM     20  H   UNL     1      18.779   5.754  22.160  0.00  0.00    +0.123 HD
BRANCH   4  17
ATOM     17  C   UNL     1      20.174   7.226  22.418  0.00  0.00    +0.048 C 
ATOM     18  C   UNL     1      20.501   7.414  23.896  0.00  0.00    +0.023 C 
ATOM     19  C   UNL     1      21.130   6.231  21.767  0.00  0.00    +0.023 C 
ENDBRANCH   4  17
ENDBRANCH   6   4
BRANCH   8  15
ATOM     15  C   UNL     1      15.184   6.729  19.022  0.00  0.00    +0.138 C 
BRANCH  15   5
ATOM      3  O   UNL     1      12.381   7.036  18.327  0.00  0.00    -0.276 OA
ATOM      5  N   UNL     1      14.080   6.921  19.918  0.00  0.00    -0.313 N 
ATOM     16  C   UNL     1      12.763   7.060  19.494  0.00  0.00    +0.216 C 
ATOM     21  H   UNL     1      14.285   6.953  20.913  0.00  0.00    +0.149 HD
BRANCH  16   9
ATOM      9  C   UNL     1      11.805   7.222  20.636  0.00  0.00    +0.075 C 
ATOM     10  C   UNL     1      12.551   7.612  21.913  0.00  0.00    +0.013 C 
ATOM     11  C   UNL     1      10.822   8.362  20.348  0.00  0.00    +0.013 C 
ATOM     13  C   UNL     1      12.370   9.120  22.018  0.00  0.00    +0.001 C 
ATOM     14  C   UNL     1      10.953   9.330  21.518  0.00  0.00    +0.001 C 
ENDBRANCH  16   9
ENDBRANCH  15   5
ENDBRANCH   8  15
TORSDOF 6
ENDMDL
MODEL 9
REMARK VINA RESULT:      -5.3     17.291     19.751
REMARK  Name = 75536553
REMARK  8 active torsions:
REMARK  status: ('A' for Active; 'I' for Inactive)
REMARK    1  A    between atoms: O_2  and  C_7
REMARK    2  A    between atoms: N_4  and  C_6
REMARK    3  A    between atoms: N_4  and  C_17
REMARK    4  A    between atoms: N_5  and  C_15
REMARK    5  A    between atoms: C_8  and  C_15
REMARK    6  A    between atoms: C_9  and  C_16
REMARK    7  A    between atoms: C_17  and  C_18
REMARK    8  A    between atoms: C_17  and  C_19
REMARK                            x       y       z     vdW  Elec       q    Type
REMARK                         _______ _______ _______ _____ _____    ______ ____
ROOT
ATOM      1  O   UNL     1      15.702   6.316  18.960  0.00  0.00    -0.371 OA
ATOM      6  C   UNL     1      16.384   6.798  21.184  0.00  0.00    +0.111 C 
ATOM      7  C   UNL     1      15.022   7.421  20.938  0.00  0.00    +0.164 C 
ATOM      8  C   UNL     1      14.535   6.602  19.750  0.00  0.00    +0.165 C 
ATOM     12  C   UNL     1      16.869   6.566  19.763  0.00  0.00    +0.181 C 
ENDROOT
BRANCH   7   2
ATOM      2  O   UNL     1      14.157   7.300  22.051  0.00  0.00    -0.388 OA
ATOM     22  H   UNL     1      14.276   6.416  22.436  0.00  0.00    +0.210 HD
ENDBRANCH   7   2
BRANCH   6   4
ATOM      4  N   UNL     1      17.279   7.641  21.958  0.00  0.00    -0.307 NA
ATOM     20  H   UNL     1      17.901   7.066  22.526  0.00  0.00    +0.123 HD
BRANCH   4  17
ATOM     17  C   UNL     1      18.063   8.512  21.089  0.00  0.00    +0.048 C 
ATOM     18  C   UNL     1      17.549   9.943  21.208  0.00  0.00    +0.023 C 
ATOM     19  C   UNL     1      19.543   8.428  21.454  0.00  0.00    +0.023 C 
ENDBRANCH   4  17
ENDBRANCH   6   4
BRANCH   8  15
ATOM     15  C   UNL     1      13.507   7.329  18.902  0.00  0.00    +0.138 C 
BRANCH  15   5
ATOM      3  O   UNL     1      10.913   8.167  19.904  0.00  0.00    -0.276 OA
ATOM      5  N   UNL     1      13.162   8.599  19.475  0.00  0.00    -0.313 N 
ATOM     16  C   UNL     1      11.887   8.915  19.931  0.00  0.00    +0.216 C 
ATOM     21  H   UNL     1      13.899   9.295  19.548  0.00  0.00    +0.149 HD
BRANCH  16   9
ATOM      9  C   UNL     1      11.807  10.297  20.505  0.00  0.00    +0.075 C 
ATOM     10  C   UNL     1      11.502  10.241  22.003  0.00  0.00    +0.013 C 
ATOM     11  C   UNL     1      13.158  11.009  20.369  0.00  0.00    +0.013 C 
ATOM     13  C   UNL     1      12.853  10.427  22.678  0.00  0.00    +0.001 C 
ATOM     14  C   UNL     1      13.548  11.435  21.780  0.00  0.00    +0.001 C 
ENDBRANCH  16   9
ENDBRANCH  15   5
ENDBRANCH   8  15
TORSDOF 6
ENDMDL
MODEL 10
REMARK VINA RESULT:      -5.3     14.703     17.424
REMARK  Name = 75536553
REMARK  8 active torsions:
REMARK  status: ('A' for Active; 'I' for Inactive)
REMARK    1  A    between atoms: O_2  and  C_7
REMARK    2  A    between atoms: N_4  and  C_6
REMARK    3  A    between atoms: N_4  and  C_17
REMARK    4  A    between atoms: N_5  and  C_15
REMARK    5  A    between atoms: C_8  and  C_15
REMARK    6  A    between atoms: C_9  and  C_16
REMARK    7  A    between atoms: C_17  and  C_18
REMARK    8  A    between atoms: C_17  and  C_19
REMARK                            x       y       z     vdW  Elec       q    Type
REMARK                         _______ _______ _______ _____ _____    ______ ____
ROOT
ATOM      1  O   UNL     1      -3.825 -10.340  13.970  0.00  0.00    -0.371 OA
ATOM      6  C   UNL     1      -3.211 -10.851  16.206  0.00  0.00    +0.111 C 
ATOM      7  C   UNL     1      -2.145 -11.385  15.267  0.00  0.00    +0.164 C 
ATOM      8  C   UNL     1      -2.402 -10.544  14.024  0.00  0.00    +0.165 C 
ATOM     12  C   UNL     1      -4.381 -10.660  15.256  0.00  0.00    +0.181 C 
ENDROOT
BRANCH   7   2
ATOM      2  O   UNL     1      -0.835 -11.201  15.766  0.00  0.00    -0.388 OA
ATOM     22  H   UNL     1      -0.468 -10.394  15.370  0.00  0.00    +0.210 HD
ENDBRANCH   7   2
BRANCH   6   4
ATOM      4  N   UNL     1      -3.517 -11.746  17.310  0.00  0.00    -0.307 NA
ATOM     20  H   UNL     1      -3.007 -11.462  18.145  0.00  0.00    +0.123 HD
BRANCH   4  17
ATOM     17  C   UNL     1      -4.950 -11.769  17.586  0.00  0.00    +0.048 C 
ATOM     18  C   UNL     1      -5.415 -13.213  17.736  0.00  0.00    +0.023 C 
ATOM     19  C   UNL     1      -5.258 -10.960  18.842  0.00  0.00    +0.023 C 
ENDBRANCH   4  17
ENDBRANCH   6   4
BRANCH   8  15
ATOM     15  C   UNL     1      -1.930 -11.207  12.743  0.00  0.00    +0.138 C 
BRANCH  15   5
ATOM      3  O   UNL     1      -3.484 -12.676  10.778  0.00  0.00    -0.276 OA
ATOM      5  N   UNL     1      -2.613 -10.676  11.598  0.00  0.00    -0.313 N 
ATOM     16  C   UNL     1      -3.338 -11.458  10.705  0.00  0.00    +0.216 C 
ATOM     21  H   UNL     1      -2.559  -9.673  11.444  0.00  0.00    +0.149 HD
BRANCH  16   9
ATOM      9  C   UNL     1      -3.972 -10.650   9.615  0.00  0.00    +0.075 C 
ATOM     10  C   UNL     1      -5.497 -10.701   9.723  0.00  0.00    +0.013 C 
ATOM     11  C   UNL     1      -3.582  -9.174   9.751  0.00  0.00    +0.013 C 
ATOM     13  C   UNL     1      -5.877  -9.401  10.417  0.00  0.00    +0.001 C 
ATOM     14  C   UNL     1      -4.894  -8.402   9.832  0.00  0.00    +0.001 C 
ENDBRANCH  16   9
ENDBRANCH  15   5
ENDBRANCH   8  15
TORSDOF 6
ENDMDL
