MODEL 1
REMARK VINA RESULT:      -6.2      0.000      0.000
REMARK  Name = 86769373
REMARK  11 active torsions:
REMARK  status: ('A' for Active; 'I' for Inactive)
REMARK    1  A    between atoms: O_2  and  C_8
REMARK    2  A    between atoms: O_4  and  C_20
REMARK    3  A    between atoms: O_4  and  C_21
REMARK    4  A    between atoms: N_5  and  C_12
REMARK    5  A    between atoms: N_5  and  C_15
REMARK    6  A    between atoms: C_7  and  C_12
REMARK    7  A    between atoms: C_9  and  C_13
REMARK    8  A    between atoms: C_13  and  C_14
REMARK    9  A    between atoms: C_15  and  C_17
REMARK   10  A    between atoms: C_15  and  C_18
REMARK   11  A    between atoms: C_19  and  C_20
REMARK                            x       y       z     vdW  Elec       q    Type
REMARK                         _______ _______ _______ _____ _____    ______ ____
ROOT
ATOM      1  O   UNL     1      10.518   8.202  20.129  0.00  0.00    -0.369 OA
ATOM      7  C   UNL     1      10.887   7.791  21.453  0.00  0.00    +0.161 C 
ATOM      8  C   UNL     1      11.780   6.545  21.422  0.00  0.00    +0.145 C 
ATOM      9  C   UNL     1      11.612   8.438  19.239  0.00  0.00    +0.125 C 
ATOM     10  C   UNL     1      12.946   6.689  20.449  0.00  0.00    +0.036 C 
ATOM     11  C   UNL     1      12.464   7.179  19.087  0.00  0.00    +0.034 C 
ENDROOT
BRANCH   8   2
ATOM      2  O   UNL     1      10.995   5.426  20.999  0.00  0.00    -0.389 OA
ATOM     23  H   UNL     1      10.604   5.650  20.138  0.00  0.00    +0.210 HD
ENDBRANCH   8   2
BRANCH   7  12
ATOM     12  C   UNL     1      11.505   8.948  22.236  0.00  0.00    +0.115 C 
BRANCH  12   5
ATOM      5  N   UNL     1      10.501   9.948  22.564  0.00  0.00    -0.311 NA
ATOM     22  H   UNL     1       9.724   9.858  21.910  0.00  0.00    +0.122 HD
BRANCH   5  15
ATOM     15  C   UNL     1      11.058  11.292  22.493  0.00  0.00    +0.048 C 
ATOM     17  C   UNL     1      12.060  11.389  21.346  0.00  0.00    +0.023 C 
ATOM     18  C   UNL     1      11.714  11.642  23.825  0.00  0.00    +0.023 C 
ENDBRANCH   5  15
ENDBRANCH  12   5
ENDBRANCH   7  12
BRANCH   9  13
ATOM     13  C   UNL     1      11.027   8.863  17.898  0.00  0.00    +0.090 C 
BRANCH  13  14
ATOM      3  O   UNL     1      13.181   9.207  15.029  0.00  0.00    -0.357 OA
ATOM      6  N   UNL     1      12.061   8.693  15.671  0.00  0.00    -0.083 NA
ATOM     14  C   UNL     1      12.104   9.208  16.904  0.00  0.00    +0.086 A 
ATOM     16  C   UNL     1      13.217  10.046  17.094  0.00  0.00    +0.073 A 
ATOM     19  C   UNL     1      13.860  10.012  15.886  0.00  0.00    +0.163 A 
BRANCH  19  20
ATOM     20  C   UNL     1      15.079  10.643  15.366  0.00  0.00    +0.236 C 
BRANCH  20   4
ATOM      4  O   UNL     1      14.960  10.867  13.959  0.00  0.00    -0.375 OA
ATOM     21  C   UNL     1      14.511  12.185  13.686  0.00  0.00    +0.194 C 
ENDBRANCH  20   4
ENDBRANCH  19  20
ENDBRANCH  13  14
ENDBRANCH   9  13
TORSDOF 8
ENDMDL
MODEL 2
REMARK VINA RESULT:      -5.8      3.593      6.596
REMARK  Name = 86769373
REMARK  11 active torsions:
REMARK  status: ('A' for Active; 'I' for Inactive)
REMARK    1  A    between atoms: O_2  and  C_8
REMARK    2  A    between atoms: O_4  and  C_20
REMARK    3  A    between atoms: O_4  and  C_21
REMARK    4  A    between atoms: N_5  and  C_12
REMARK    5  A    between atoms: N_5  and  C_15
REMARK    6  A    between atoms: C_7  and  C_12
REMARK    7  A    between atoms: C_9  and  C_13
REMARK    8  A    between atoms: C_13  and  C_14
REMARK    9  A    between atoms: C_15  and  C_17
REMARK   10  A    between atoms: C_15  and  C_18
REMARK   11  A    between atoms: C_19  and  C_20
REMARK                            x       y       z     vdW  Elec       q    Type
REMARK                         _______ _______ _______ _____ _____    ______ ____
ROOT
ATOM      1  O   UNL     1      12.659   7.635  21.779  0.00  0.00    -0.369 OA
ATOM      7  C   UNL     1      13.545   7.159  20.757  0.00  0.00    +0.161 C 
ATOM      8  C   UNL     1      12.802   6.930  19.435  0.00  0.00    +0.145 C 
ATOM      9  C   UNL     1      11.928   8.818  21.448  0.00  0.00    +0.125 C 
ATOM     10  C   UNL     1      11.947   8.129  19.033  0.00  0.00    +0.036 C 
ATOM     11  C   UNL     1      11.078   8.595  20.197  0.00  0.00    +0.034 C 
ENDROOT
BRANCH   8   2
ATOM      2  O   UNL     1      11.932   5.805  19.584  0.00  0.00    -0.389 OA
ATOM     23  H   UNL     1      11.022   6.141  19.637  0.00  0.00    +0.210 HD
ENDBRANCH   8   2
BRANCH   7  12
ATOM     12  C   UNL     1      14.756   8.078  20.609  0.00  0.00    +0.115 C 
BRANCH  12   5
ATOM      5  N   UNL     1      15.646   7.601  19.561  0.00  0.00    -0.311 NA
ATOM     22  H   UNL     1      15.080   7.226  18.800  0.00  0.00    +0.122 HD
BRANCH   5  15
ATOM     15  C   UNL     1      16.545   6.573  20.067  0.00  0.00    +0.048 C 
ATOM     17  C   UNL     1      17.623   7.199  20.948  0.00  0.00    +0.023 C 
ATOM     18  C   UNL     1      17.166   5.819  18.895  0.00  0.00    +0.023 C 
ENDBRANCH   5  15
ENDBRANCH  12   5
ENDBRANCH   7  12
BRANCH   9  13
ATOM     13  C   UNL     1      11.052   9.166  22.645  0.00  0.00    +0.090 C 
BRANCH  13  14
ATOM      3  O   UNL     1      10.693  12.498  23.968  0.00  0.00    -0.357 OA
ATOM      6  N   UNL     1      10.620  11.116  24.082  0.00  0.00    -0.083 NA
ATOM     14  C   UNL     1      11.006  10.650  22.890  0.00  0.00    +0.086 A 
ATOM     16  C   UNL     1      11.333  11.683  21.994  0.00  0.00    +0.073 A 
ATOM     19  C   UNL     1      11.119  12.824  22.721  0.00  0.00    +0.163 A 
BRANCH  19  20
ATOM     20  C   UNL     1      11.255  14.255  22.427  0.00  0.00    +0.236 C 
BRANCH  20   4
ATOM      4  O   UNL     1      10.035  14.940  22.723  0.00  0.00    -0.375 OA
ATOM     21  C   UNL     1       9.094  14.787  21.672  0.00  0.00    +0.194 C 
ENDBRANCH  20   4
ENDBRANCH  19  20
ENDBRANCH  13  14
ENDBRANCH   9  13
TORSDOF 8
ENDMDL
MODEL 3
REMARK VINA RESULT:      -5.5      2.861      3.993
REMARK  Name = 86769373
REMARK  11 active torsions:
REMARK  status: ('A' for Active; 'I' for Inactive)
REMARK    1  A    between atoms: O_2  and  C_8
REMARK    2  A    between atoms: O_4  and  C_20
REMARK    3  A    between atoms: O_4  and  C_21
REMARK    4  A    between atoms: N_5  and  C_12
REMARK    5  A    between atoms: N_5  and  C_15
REMARK    6  A    between atoms: C_7  and  C_12
REMARK    7  A    between atoms: C_9  and  C_13
REMARK    8  A    between atoms: C_13  and  C_14
REMARK    9  A    between atoms: C_15  and  C_17
REMARK   10  A    between atoms: C_15  and  C_18
REMARK   11  A    between atoms: C_19  and  C_20
REMARK                            x       y       z     vdW  Elec       q    Type
REMARK                         _______ _______ _______ _____ _____    ______ ____
ROOT
ATOM      1  O   UNL     1      13.768   9.445  19.733  0.00  0.00    -0.369 OA
ATOM      7  C   UNL     1      14.513   9.028  20.885  0.00  0.00    +0.161 C 
ATOM      8  C   UNL     1      13.727   8.008  21.720  0.00  0.00    +0.145 C 
ATOM      9  C   UNL     1      13.329   8.386  18.878  0.00  0.00    +0.125 C 
ATOM     10  C   UNL     1      13.171   6.868  20.872  0.00  0.00    +0.036 C 
ATOM     11  C   UNL     1      12.442   7.406  19.644  0.00  0.00    +0.034 C 
ENDROOT
BRANCH   8   2
ATOM      2  O   UNL     1      12.621   8.673  22.337  0.00  0.00    -0.389 OA
ATOM     23  H   UNL     1      12.483   9.512  21.868  0.00  0.00    +0.210 HD
ENDBRANCH   8   2
BRANCH   7  12
ATOM     12  C   UNL     1      15.903   8.533  20.492  0.00  0.00    +0.115 C 
BRANCH  12   5
ATOM      5  N   UNL     1      16.498   7.749  21.563  0.00  0.00    -0.311 NA
ATOM     22  H   UNL     1      17.173   8.332  22.057  0.00  0.00    +0.122 HD
BRANCH   5  15
ATOM     15  C   UNL     1      17.155   6.560  21.039  0.00  0.00    +0.048 C 
ATOM     17  C   UNL     1      18.671   6.704  21.145  0.00  0.00    +0.023 C 
ATOM     18  C   UNL     1      16.726   6.337  19.593  0.00  0.00    +0.023 C 
ENDBRANCH   5  15
ENDBRANCH  12   5
ENDBRANCH   7  12
BRANCH   9  13
ATOM     13  C   UNL     1      12.566   9.019  17.720  0.00  0.00    +0.090 C 
BRANCH  13  14
ATOM      3  O   UNL     1      14.573   9.109  14.729  0.00  0.00    -0.357 OA
ATOM      6  N   UNL     1      13.706   8.474  15.609  0.00  0.00    -0.083 NA
ATOM     14  C   UNL     1      13.478   9.369  16.575  0.00  0.00    +0.086 A 
ATOM     16  C   UNL     1      14.167  10.575  16.359  0.00  0.00    +0.073 A 
ATOM     19  C   UNL     1      14.839  10.360  15.185  0.00  0.00    +0.163 A 
BRANCH  19  20
ATOM     20  C   UNL     1      15.744  11.177  14.369  0.00  0.00    +0.236 C 
BRANCH  20   4
ATOM      4  O   UNL     1      15.426  11.036  12.982  0.00  0.00    -0.375 OA
ATOM     21  C   UNL     1      16.042  12.053  12.209  0.00  0.00    +0.194 C 
ENDBRANCH  20   4
ENDBRANCH  19  20
ENDBRANCH  13  14
ENDBRANCH   9  13
TORSDOF 8
ENDMDL
MODEL 4
REMARK VINA RESULT:      -5.4      4.875      6.691
REMARK  Name = 86769373
REMARK  11 active torsions:
REMARK  status: ('A' for Active; 'I' for Inactive)
REMARK    1  A    between atoms: O_2  and  C_8
REMARK    2  A    between atoms: O_4  and  C_20
REMARK    3  A    between atoms: O_4  and  C_21
REMARK    4  A    between atoms: N_5  and  C_12
REMARK    5  A    between atoms: N_5  and  C_15
REMARK    6  A    between atoms: C_7  and  C_12
REMARK    7  A    between atoms: C_9  and  C_13
REMARK    8  A    between atoms: C_13  and  C_14
REMARK    9  A    between atoms: C_15  and  C_17
REMARK   10  A    between atoms: C_15  and  C_18
REMARK   11  A    between atoms: C_19  and  C_20
REMARK                            x       y       z     vdW  Elec       q    Type
REMARK                         _______ _______ _______ _____ _____    ______ ____
ROOT
ATOM      1  O   UNL     1      14.713   7.400  17.617  0.00  0.00    -0.369 OA
ATOM      7  C   UNL     1      13.729   8.356  17.200  0.00  0.00    +0.161 C 
ATOM      8  C   UNL     1      12.399   8.146  17.934  0.00  0.00    +0.145 C 
ATOM      9  C   UNL     1      14.962   7.360  19.024  0.00  0.00    +0.125 C 
ATOM     10  C   UNL     1      12.580   8.034  19.445  0.00  0.00    +0.036 C 
ATOM     11  C   UNL     1      13.680   7.035  19.790  0.00  0.00    +0.034 C 
ENDROOT
BRANCH   8   2
ATOM      2  O   UNL     1      11.806   6.928  17.474  0.00  0.00    -0.389 OA
ATOM     23  H   UNL     1      10.906   7.135  17.171  0.00  0.00    +0.210 HD
ENDBRANCH   8   2
BRANCH   7  12
ATOM     12  C   UNL     1      14.260   9.783  17.325  0.00  0.00    +0.115 C 
BRANCH  12   5
ATOM      5  N   UNL     1      13.168  10.735  17.453  0.00  0.00    -0.311 NA
ATOM     22  H   UNL     1      12.887  11.035  16.520  0.00  0.00    +0.122 HD
BRANCH   5  15
ATOM     15  C   UNL     1      13.569  11.888  18.248  0.00  0.00    +0.048 C 
ATOM     17  C   UNL     1      15.078  12.097  18.152  0.00  0.00    +0.023 C 
ATOM     18  C   UNL     1      13.136  11.682  19.696  0.00  0.00    +0.023 C 
ENDBRANCH   5  15
ENDBRANCH  12   5
ENDBRANCH   7  12
BRANCH   9  13
ATOM     13  C   UNL     1      16.026   6.297  19.271  0.00  0.00    +0.090 C 
BRANCH  13  14
ATOM      3  O   UNL     1      18.084   8.071  21.638  0.00  0.00    -0.357 OA
ATOM      6  N   UNL     1      16.910   7.901  20.915  0.00  0.00    -0.083 NA
ATOM     14  C   UNL     1      17.109   6.795  20.191  0.00  0.00    +0.086 A 
ATOM     16  C   UNL     1      18.377   6.231  20.415  0.00  0.00    +0.073 A 
ATOM     19  C   UNL     1      18.949   7.071  21.333  0.00  0.00    +0.163 A 
BRANCH  19  20
ATOM     20  C   UNL     1      20.249   7.097  22.013  0.00  0.00    +0.236 C 
BRANCH  20   4
ATOM      4  O   UNL     1      20.432   5.902  22.778  0.00  0.00    -0.375 OA
ATOM     21  C   UNL     1      21.805   5.677  23.056  0.00  0.00    +0.194 C 
ENDBRANCH  20   4
ENDBRANCH  19  20
ENDBRANCH  13  14
ENDBRANCH   9  13
TORSDOF 8
ENDMDL
MODEL 5
REMARK VINA RESULT:      -5.3     11.759     14.751
REMARK  Name = 86769373
REMARK  11 active torsions:
REMARK  status: ('A' for Active; 'I' for Inactive)
REMARK    1  A    between atoms: O_2  and  C_8
REMARK    2  A    between atoms: O_4  and  C_20
REMARK    3  A    between atoms: O_4  and  C_21
REMARK    4  A    between atoms: N_5  and  C_12
REMARK    5  A    between atoms: N_5  and  C_15
REMARK    6  A    between atoms: C_7  and  C_12
REMARK    7  A    between atoms: C_9  and  C_13
REMARK    8  A    between atoms: C_13  and  C_14
REMARK    9  A    between atoms: C_15  and  C_17
REMARK   10  A    between atoms: C_15  and  C_18
REMARK   11  A    between atoms: C_19  and  C_20
REMARK                            x       y       z     vdW  Elec       q    Type
REMARK                         _______ _______ _______ _____ _____    ______ ____
ROOT
ATOM      1  O   UNL     1      10.788   7.234   5.503  0.00  0.00    -0.369 OA
ATOM      7  C   UNL     1      10.805   7.279   6.936  0.00  0.00    +0.161 C 
ATOM      8  C   UNL     1       9.530   7.928   7.490  0.00  0.00    +0.145 C 
ATOM      9  C   UNL     1       9.650   6.585   4.929  0.00  0.00    +0.125 C 
ATOM     10  C   UNL     1       8.263   7.332   6.885  0.00  0.00    +0.036 C 
ATOM     11  C   UNL     1       8.359   7.277   5.363  0.00  0.00    +0.034 C 
ENDROOT
BRANCH   8   2
ATOM      2  O   UNL     1       9.550   9.323   7.175  0.00  0.00    -0.389 OA
ATOM     23  H   UNL     1       8.807   9.499   6.573  0.00  0.00    +0.210 HD
ENDBRANCH   8   2
BRANCH   7  12
ATOM     12  C   UNL     1      11.075   5.896   7.527  0.00  0.00    +0.115 C 
BRANCH  12   5
ATOM      5  N   UNL     1      10.661   5.836   8.920  0.00  0.00    -0.311 NA
ATOM     22  H   UNL     1      11.483   5.956   9.510  0.00  0.00    +0.122 HD
BRANCH   5  15
ATOM     15  C   UNL     1      10.013   4.567   9.219  0.00  0.00    +0.048 C 
ATOM     17  C   UNL     1       9.554   3.890   7.930  0.00  0.00    +0.023 C 
ATOM     18  C   UNL     1       8.837   4.805  10.161  0.00  0.00    +0.023 C 
ENDBRANCH   5  15
ENDBRANCH  12   5
ENDBRANCH   7  12
BRANCH   9  13
ATOM     13  C   UNL     1       9.810   6.634   3.415  0.00  0.00    +0.090 C 
BRANCH  13  14
ATOM      3  O   UNL     1      11.396   3.455   2.810  0.00  0.00    -0.357 OA
ATOM      6  N   UNL     1      10.557   4.293   3.535  0.00  0.00    -0.083 NA
ATOM     14  C   UNL     1      10.611   5.468   2.900  0.00  0.00    +0.086 A 
ATOM     16  C   UNL     1      11.457   5.431   1.778  0.00  0.00    +0.073 A 
ATOM     19  C   UNL     1      11.925   4.143   1.766  0.00  0.00    +0.163 A 
BRANCH  19  20
ATOM     20  C   UNL     1      12.840   3.404   0.889  0.00  0.00    +0.236 C 
BRANCH  20   4
ATOM      4  O   UNL     1      13.991   2.976   1.621  0.00  0.00    -0.375 OA
ATOM     21  C   UNL     1      14.986   3.986   1.647  0.00  0.00    +0.194 C 
ENDBRANCH  20   4
ENDBRANCH  19  20
ENDBRANCH  13  14
ENDBRANCH   9  13
TORSDOF 8
ENDMDL
MODEL 6
REMARK VINA RESULT:      -5.2      4.093      6.614
REMARK  Name = 86769373
REMARK  11 active torsions:
REMARK  status: ('A' for Active; 'I' for Inactive)
REMARK    1  A    between atoms: O_2  and  C_8
REMARK    2  A    between atoms: O_4  and  C_20
REMARK    3  A    between atoms: O_4  and  C_21
REMARK    4  A    between atoms: N_5  and  C_12
REMARK    5  A    between atoms: N_5  and  C_15
REMARK    6  A    between atoms: C_7  and  C_12
REMARK    7  A    between atoms: C_9  and  C_13
REMARK    8  A    between atoms: C_13  and  C_14
REMARK    9  A    between atoms: C_15  and  C_17
REMARK   10  A    between atoms: C_15  and  C_18
REMARK   11  A    between atoms: C_19  and  C_20
REMARK                            x       y       z     vdW  Elec       q    Type
REMARK                         _______ _______ _______ _____ _____    ______ ____
ROOT
ATOM      1  O   UNL     1      13.866   7.375  18.010  0.00  0.00    -0.369 OA
ATOM      7  C   UNL     1      13.340   8.336  17.086  0.00  0.00    +0.161 C 
ATOM      8  C   UNL     1      11.845   8.581  17.325  0.00  0.00    +0.145 C 
ATOM      9  C   UNL     1      13.663   7.685  19.391  0.00  0.00    +0.125 C 
ATOM     10  C   UNL     1      11.529   8.864  18.790  0.00  0.00    +0.036 C 
ATOM     11  C   UNL     1      12.172   7.821  19.699  0.00  0.00    +0.034 C 
ENDROOT
BRANCH   8   2
ATOM      2  O   UNL     1      11.119   7.410  16.941  0.00  0.00    -0.389 OA
ATOM     23  H   UNL     1      10.188   7.663  16.831  0.00  0.00    +0.210 HD
ENDBRANCH   8   2
BRANCH   7  12
ATOM     12  C   UNL     1      14.165   9.622  17.100  0.00  0.00    +0.115 C 
BRANCH  12   5
ATOM      5  N   UNL     1      13.494  10.678  16.359  0.00  0.00    -0.311 NA
ATOM     22  H   UNL     1      12.769  10.258  15.778  0.00  0.00    +0.122 HD
BRANCH   5  15
ATOM     15  C   UNL     1      14.437  11.412  15.526  0.00  0.00    +0.048 C 
ATOM     17  C   UNL     1      13.690  12.221  14.469  0.00  0.00    +0.023 C 
ATOM     18  C   UNL     1      15.413  10.434  14.879  0.00  0.00    +0.023 C 
ENDBRANCH   5  15
ENDBRANCH  12   5
ENDBRANCH   7  12
BRANCH   9  13
ATOM     13  C   UNL     1      14.286   6.561  20.210  0.00  0.00    +0.090 C 
BRANCH  13  14
ATOM      3  O   UNL     1      17.734   6.139  19.252  0.00  0.00    -0.357 OA
ATOM      6  N   UNL     1      16.371   5.965  19.047  0.00  0.00    -0.083 NA
ATOM     14  C   UNL     1      15.787   6.553  20.096  0.00  0.00    +0.086 A 
ATOM     16  C   UNL     1      16.722   7.110  20.985  0.00  0.00    +0.073 A 
ATOM     19  C   UNL     1      17.931   6.823  20.408  0.00  0.00    +0.163 A 
BRANCH  19  20
ATOM     20  C   UNL     1      19.324   7.096  20.780  0.00  0.00    +0.236 C 
BRANCH  20   4
ATOM      4  O   UNL     1      19.745   6.205  21.816  0.00  0.00    -0.375 OA
ATOM     21  C   UNL     1      20.109   6.917  22.988  0.00  0.00    +0.194 C 
ENDBRANCH  20   4
ENDBRANCH  19  20
ENDBRANCH  13  14
ENDBRANCH   9  13
TORSDOF 8
ENDMDL
MODEL 7
REMARK VINA RESULT:      -5.2     22.820     24.949
REMARK  Name = 86769373
REMARK  11 active torsions:
REMARK  status: ('A' for Active; 'I' for Inactive)
REMARK    1  A    between atoms: O_2  and  C_8
REMARK    2  A    between atoms: O_4  and  C_20
REMARK    3  A    between atoms: O_4  and  C_21
REMARK    4  A    between atoms: N_5  and  C_12
REMARK    5  A    between atoms: N_5  and  C_15
REMARK    6  A    between atoms: C_7  and  C_12
REMARK    7  A    between atoms: C_9  and  C_13
REMARK    8  A    between atoms: C_13  and  C_14
REMARK    9  A    between atoms: C_15  and  C_17
REMARK   10  A    between atoms: C_15  and  C_18
REMARK   11  A    between atoms: C_19  and  C_20
REMARK                            x       y       z     vdW  Elec       q    Type
REMARK                         _______ _______ _______ _____ _____    ______ ____
ROOT
ATOM      1  O   UNL     1      -9.927   9.027  18.079  0.00  0.00    -0.369 OA
ATOM      7  C   UNL     1     -10.035   9.537  16.744  0.00  0.00    +0.161 C 
ATOM      8  C   UNL     1     -10.982   8.681  15.893  0.00  0.00    +0.145 C 
ATOM      9  C   UNL     1     -11.167   8.877  18.775  0.00  0.00    +0.125 C 
ATOM     10  C   UNL     1     -12.315   8.423  16.588  0.00  0.00    +0.036 C 
ATOM     11  C   UNL     1     -12.101   7.934  18.017  0.00  0.00    +0.034 C 
ENDROOT
BRANCH   8   2
ATOM      2  O   UNL     1     -10.364   7.414  15.650  0.00  0.00    -0.389 OA
ATOM     23  H   UNL     1     -10.614   7.132  14.754  0.00  0.00    +0.210 HD
ENDBRANCH   8   2
BRANCH   7  12
ATOM     12  C   UNL     1     -10.413  11.017  16.750  0.00  0.00    +0.115 C 
BRANCH  12   5
ATOM      5  N   UNL     1      -9.384  11.813  17.401  0.00  0.00    -0.311 NA
ATOM     22  H   UNL     1      -9.664  11.980  18.367  0.00  0.00    +0.122 HD
BRANCH   5  15
ATOM     15  C   UNL     1      -9.190  13.082  16.712  0.00  0.00    +0.048 C 
ATOM     17  C   UNL     1      -7.702  13.338  16.485  0.00  0.00    +0.023 C 
ATOM     18  C   UNL     1      -9.821  14.206  17.527  0.00  0.00    +0.023 C 
ENDBRANCH   5  15
ENDBRANCH  12   5
ENDBRANCH   7  12
BRANCH   9  13
ATOM     13  C   UNL     1     -10.852   8.331  20.162  0.00  0.00    +0.090 C 
BRANCH  13  14
ATOM      3  O   UNL     1     -14.023   7.464  21.638  0.00  0.00    -0.357 OA
ATOM      6  N   UNL     1     -13.125   8.379  21.102  0.00  0.00    -0.083 NA
ATOM     14  C   UNL     1     -12.047   7.657  20.781  0.00  0.00    +0.086 A 
ATOM     16  C   UNL     1     -12.206   6.294  21.088  0.00  0.00    +0.073 A 
ATOM     19  C   UNL     1     -13.465   6.226  21.624  0.00  0.00    +0.163 A 
BRANCH  19  20
ATOM     20  C   UNL     1     -14.283   5.131  22.158  0.00  0.00    +0.236 C 
BRANCH  20   4
ATOM      4  O   UNL     1     -15.416   4.903  21.316  0.00  0.00    -0.375 OA
ATOM     21  C   UNL     1     -16.627   5.009  22.047  0.00  0.00    +0.194 C 
ENDBRANCH  20   4
ENDBRANCH  19  20
ENDBRANCH  13  14
ENDBRANCH   9  13
TORSDOF 8
ENDMDL
MODEL 8
REMARK VINA RESULT:      -5.1     25.373     27.379
REMARK  Name = 86769373
REMARK  11 active torsions:
REMARK  status: ('A' for Active; 'I' for Inactive)
REMARK    1  A    between atoms: O_2  and  C_8
REMARK    2  A    between atoms: O_4  and  C_20
REMARK    3  A    between atoms: O_4  and  C_21
REMARK    4  A    between atoms: N_5  and  C_12
REMARK    5  A    between atoms: N_5  and  C_15
REMARK    6  A    between atoms: C_7  and  C_12
REMARK    7  A    between atoms: C_9  and  C_13
REMARK    8  A    between atoms: C_13  and  C_14
REMARK    9  A    between atoms: C_15  and  C_17
REMARK   10  A    between atoms: C_15  and  C_18
REMARK   11  A    between atoms: C_19  and  C_20
REMARK                            x       y       z     vdW  Elec       q    Type
REMARK                         _______ _______ _______ _____ _____    ______ ____
ROOT
ATOM      1  O   UNL     1      -2.121 -10.711  13.954  0.00  0.00    -0.369 OA
ATOM      7  C   UNL     1      -2.220 -11.084  12.573  0.00  0.00    +0.161 C 
ATOM      8  C   UNL     1      -2.475 -12.589  12.419  0.00  0.00    +0.145 C 
ATOM      9  C   UNL     1      -3.240 -11.076  14.764  0.00  0.00    +0.125 C 
ATOM     10  C   UNL     1      -3.623 -13.077  13.297  0.00  0.00    +0.036 C 
ATOM     11  C   UNL     1      -3.459 -12.588  14.733  0.00  0.00    +0.034 C 
ENDROOT
BRANCH   8   2
ATOM      2  O   UNL     1      -1.296 -13.299  12.808  0.00  0.00    -0.389 OA
ATOM     23  H   UNL     1      -0.565 -12.660  12.838  0.00  0.00    +0.210 HD
ENDBRANCH   8   2
BRANCH   7  12
ATOM     12  C   UNL     1      -3.252 -10.227  11.844  0.00  0.00    +0.115 C 
BRANCH  12   5
ATOM      5  N   UNL     1      -2.670  -9.601  10.667  0.00  0.00    -0.311 NA
ATOM     22  H   UNL     1      -2.179  -8.755  10.956  0.00  0.00    +0.122 HD
BRANCH   5  15
ATOM     15  C   UNL     1      -3.696  -9.272   9.687  0.00  0.00    +0.048 C 
ATOM     17  C   UNL     1      -4.776  -8.402  10.325  0.00  0.00    +0.023 C 
ATOM     18  C   UNL     1      -4.292 -10.557   9.122  0.00  0.00    +0.023 C 
ENDBRANCH   5  15
ENDBRANCH  12   5
ENDBRANCH   7  12
BRANCH   9  13
ATOM     13  C   UNL     1      -2.955 -10.598  16.183  0.00  0.00    +0.090 C 
BRANCH  13  14
ATOM      3  O   UNL     1      -6.189 -10.299  17.744  0.00  0.00    -0.357 OA
ATOM      6  N   UNL     1      -5.271  -9.988  16.749  0.00  0.00    -0.083 NA
ATOM     14  C   UNL     1      -4.176 -10.690  17.059  0.00  0.00    +0.086 A 
ATOM     16  C   UNL     1      -4.344 -11.454  18.226  0.00  0.00    +0.073 A 
ATOM     19  C   UNL     1      -5.626 -11.173  18.617  0.00  0.00    +0.163 A 
BRANCH  19  20
ATOM     20  C   UNL     1      -6.465 -11.611  19.739  0.00  0.00    +0.236 C 
BRANCH  20   4
ATOM      4  O   UNL     1      -7.665 -10.835  19.794  0.00  0.00    -0.375 OA
ATOM     21  C   UNL     1      -8.810 -11.649  19.600  0.00  0.00    +0.194 C 
ENDBRANCH  20   4
ENDBRANCH  19  20
ENDBRANCH  13  14
ENDBRANCH   9  13
TORSDOF 8
ENDMDL
MODEL 9
REMARK VINA RESULT:      -5.1     23.893     26.047
REMARK  Name = 86769373
REMARK  11 active torsions:
REMARK  status: ('A' for Active; 'I' for Inactive)
REMARK    1  A    between atoms: O_2  and  C_8
REMARK    2  A    between atoms: O_4  and  C_20
REMARK    3  A    between atoms: O_4  and  C_21
REMARK    4  A    between atoms: N_5  and  C_12
REMARK    5  A    between atoms: N_5  and  C_15
REMARK    6  A    between atoms: C_7  and  C_12
REMARK    7  A    between atoms: C_9  and  C_13
REMARK    8  A    between atoms: C_13  and  C_14
REMARK    9  A    between atoms: C_15  and  C_17
REMARK   10  A    between atoms: C_15  and  C_18
REMARK   11  A    between atoms: C_19  and  C_20
REMARK                            x       y       z     vdW  Elec       q    Type
REMARK                         _______ _______ _______ _____ _____    ______ ____
ROOT
ATOM      1  O   UNL     1     -10.990   9.061  20.164  0.00  0.00    -0.369 OA
ATOM      7  C   UNL     1     -11.029  10.181  19.270  0.00  0.00    +0.161 C 
ATOM      8  C   UNL     1     -10.731   9.754  17.827  0.00  0.00    +0.145 C 
ATOM      9  C   UNL     1     -11.850   7.974  19.815  0.00  0.00    +0.125 C 
ATOM     10  C   UNL     1     -11.569   8.557  17.389  0.00  0.00    +0.036 C 
ATOM     11  C   UNL     1     -11.508   7.439  18.425  0.00  0.00    +0.034 C 
ENDROOT
BRANCH   8   2
ATOM      2  O   UNL     1      -9.354   9.381  17.732  0.00  0.00    -0.389 OA
ATOM     23  H   UNL     1      -9.317   8.415  17.627  0.00  0.00    +0.210 HD
ENDBRANCH   8   2
BRANCH   7  12
ATOM     12  C   UNL     1     -12.344  10.947  19.406  0.00  0.00    +0.115 C 
BRANCH  12   5
ATOM      5  N   UNL     1     -12.233  11.996  20.408  0.00  0.00    -0.311 NA
ATOM     22  H   UNL     1     -11.265  12.040  20.727  0.00  0.00    +0.122 HD
BRANCH   5  15
ATOM     15  C   UNL     1     -13.119  11.738  21.535  0.00  0.00    +0.048 C 
ATOM     17  C   UNL     1     -12.331  11.156  22.705  0.00  0.00    +0.023 C 
ATOM     18  C   UNL     1     -14.233  10.792  21.100  0.00  0.00    +0.023 C 
ENDBRANCH   5  15
ENDBRANCH  12   5
ENDBRANCH   7  12
BRANCH   9  13
ATOM     13  C   UNL     1     -11.672   6.891  20.872  0.00  0.00    +0.090 C 
BRANCH  13  14
ATOM      3  O   UNL     1     -15.127   6.357  21.749  0.00  0.00    -0.357 OA
ATOM      6  N   UNL     1     -14.108   7.092  21.156  0.00  0.00    -0.083 NA
ATOM     14  C   UNL     1     -12.996   6.387  21.383  0.00  0.00    +0.086 A 
ATOM     16  C   UNL     1     -13.249   5.209  22.107  0.00  0.00    +0.073 A 
ATOM     19  C   UNL     1     -14.603   5.238  22.311  0.00  0.00    +0.163 A 
BRANCH  19  20
ATOM     20  C   UNL     1     -15.547   4.339  22.986  0.00  0.00    +0.236 C 
BRANCH  20   4
ATOM      4  O   UNL     1     -15.229   4.241  24.377  0.00  0.00    -0.375 OA
ATOM     21  C   UNL     1     -15.847   3.107  24.965  0.00  0.00    +0.194 C 
ENDBRANCH  20   4
ENDBRANCH  19  20
ENDBRANCH  13  14
ENDBRANCH   9  13
TORSDOF 8
ENDMDL
MODEL 10
REMARK VINA RESULT:      -5.1     16.761     20.225
REMARK  Name = 86769373
REMARK  11 active torsions:
REMARK  status: ('A' for Active; 'I' for Inactive)
REMARK    1  A    between atoms: O_2  and  C_8
REMARK    2  A    between atoms: O_4  and  C_20
REMARK    3  A    between atoms: O_4  and  C_21
REMARK    4  A    between atoms: N_5  and  C_12
REMARK    5  A    between atoms: N_5  and  C_15
REMARK    6  A    between atoms: C_7  and  C_12
REMARK    7  A    between atoms: C_9  and  C_13
REMARK    8  A    between atoms: C_13  and  C_14
REMARK    9  A    between atoms: C_15  and  C_17
REMARK   10  A    between atoms: C_15  and  C_18
REMARK   11  A    between atoms: C_19  and  C_20
REMARK                            x       y       z     vdW  Elec       q    Type
REMARK                         _______ _______ _______ _____ _____    ______ ____
ROOT
ATOM      1  O   UNL     1      12.798   2.774   0.572  0.00  0.00    -0.369 OA
ATOM      7  C   UNL     1      13.088   3.574   1.726  0.00  0.00    +0.161 C 
ATOM      8  C   UNL     1      14.480   4.210   1.628  0.00  0.00    +0.145 C 
ATOM      9  C   UNL     1      12.910   3.452  -0.682  0.00  0.00    +0.125 C 
ATOM     10  C   UNL     1      14.708   4.910   0.292  0.00  0.00    +0.036 C 
ATOM     11  C   UNL     1      14.323   4.002  -0.872  0.00  0.00    +0.034 C 
ENDROOT
BRANCH   8   2
ATOM      2  O   UNL     1      15.466   3.182   1.756  0.00  0.00    -0.389 OA
ATOM     23  H   UNL     1      15.570   2.990   2.703  0.00  0.00    +0.210 HD
ENDBRANCH   8   2
BRANCH   7  12
ATOM     12  C   UNL     1      11.982   4.597   1.978  0.00  0.00    +0.115 C 
BRANCH  12   5
ATOM      5  N   UNL     1      12.283   5.411   3.145  0.00  0.00    -0.311 NA
ATOM     22  H   UNL     1      12.859   4.863   3.785  0.00  0.00    +0.122 HD
BRANCH   5  15
ATOM     15  C   UNL     1      11.062   5.838   3.815  0.00  0.00    +0.048 C 
ATOM     17  C   UNL     1      10.392   4.651   4.502  0.00  0.00    +0.023 C 
ATOM     18  C   UNL     1      10.125   6.484   2.800  0.00  0.00    +0.023 C 
ENDBRANCH   5  15
ENDBRANCH  12   5
ENDBRANCH   7  12
BRANCH   9  13
ATOM     13  C   UNL     1      12.566   2.450  -1.777  0.00  0.00    +0.090 C 
BRANCH  13  14
ATOM      3  O   UNL     1       9.315   2.535  -3.329  0.00  0.00    -0.357 OA
ATOM      6  N   UNL     1      10.344   1.878  -2.667  0.00  0.00    -0.083 NA
ATOM     14  C   UNL     1      11.283   2.810  -2.479  0.00  0.00    +0.086 A 
ATOM     16  C   UNL     1      10.905   4.061  -2.996  0.00  0.00    +0.073 A 
ATOM     19  C   UNL     1       9.659   3.834  -3.518  0.00  0.00    +0.163 A 
BRANCH  19  20
ATOM     20  C   UNL     1       8.678   4.680  -4.208  0.00  0.00    +0.236 C 
BRANCH  20   4
ATOM      4  O   UNL     1       8.765   6.027  -3.735  0.00  0.00    -0.375 OA
ATOM     21  C   UNL     1       7.616   6.380  -2.982  0.00  0.00    +0.194 C 
ENDBRANCH  20   4
ENDBRANCH  19  20
ENDBRANCH  13  14
ENDBRANCH   9  13
TORSDOF 8
ENDMDL
