MODEL 1
REMARK VINA RESULT:      -7.1      0.000      0.000
REMARK  Name = 26745476
REMARK  8 active torsions:
REMARK  status: ('A' for Active; 'I' for Inactive)
REMARK    1  A    between atoms: S_2  and  N_7
REMARK    2  A    between atoms: S_2  and  C_19
REMARK    3  A    between atoms: O_5  and  C_16
REMARK    4  A    between atoms: O_5  and  C_28
REMARK    5  A    between atoms: N_8  and  C_17
REMARK    6  A    between atoms: C_11  and  C_16
REMARK    7  A    between atoms: C_17  and  C_20
REMARK    8  A    between atoms: C_27  and  C_32
REMARK                            x       y       z     vdW  Elec       q    Type
REMARK                         _______ _______ _______ _____ _____    ______ ____
ROOT
ATOM      7  N   UNL     1      13.550   8.340  20.021  0.00  0.00    -0.157 NA
ATOM      8  N   UNL     1      11.912  10.544  22.560  0.00  0.00    -0.328 N 
ATOM      9  N   UNL     1      10.626   8.759  22.950  0.00  0.00    -0.240 NA
ATOM     11  C   UNL     1      12.338   7.465  19.817  0.00  0.00    +0.194 C 
ATOM     12  C   UNL     1      13.293   9.715  20.583  0.00  0.00    +0.165 C 
ATOM     13  C   UNL     1      11.549   7.260  21.128  0.00  0.00    +0.089 C 
ATOM     14  C   UNL     1      12.274   9.602  21.644  0.00  0.00    +0.057 A 
ATOM     15  C   UNL     1      11.469   8.520  21.901  0.00  0.00    +0.066 A 
ATOM     18  C   UNL     1      10.917   9.989  23.325  0.00  0.00    +0.200 A 
ENDROOT
BRANCH   7   2
ATOM      2  S   UNL     1      14.767   8.254  18.819  0.00  0.00    +0.062 S 
ATOM      3  O   UNL     1      15.017   9.584  18.306  0.00  0.00    -0.153 OA
ATOM      4  O   UNL     1      14.470   7.154  17.927  0.00  0.00    -0.153 OA
BRANCH   2  19
ATOM     19  C   UNL     1      16.149   7.790  19.814  0.00  0.00    +0.106 A 
ATOM     21  C   UNL     1      16.670   8.686  20.747  0.00  0.00    +0.030 A 
ATOM     22  C   UNL     1      16.721   6.525  19.666  0.00  0.00    +0.030 A 
ATOM     25  C   UNL     1      17.762   8.319  21.533  0.00  0.00    +0.021 A 
ATOM     26  C   UNL     1      17.813   6.158  20.453  0.00  0.00    +0.021 A 
ATOM     27  C   UNL     1      18.333   7.055  21.386  0.00  0.00    +0.052 A 
BRANCH  27  32
ATOM     10  N   UNL     1      20.361   6.373  22.846  0.00  0.00    -0.191 NA
ATOM     32  C   UNL     1      19.453   6.678  22.191  0.00  0.00    +0.099 C 
ENDBRANCH  27  32
ENDBRANCH   2  19
ENDBRANCH   7   2
BRANCH  11  16
ATOM      6  O   UNL     1      10.478   8.714  18.945  0.00  0.00    -0.249 OA
ATOM     16  C   UNL     1      11.490   8.057  18.738  0.00  0.00    +0.326 C 
BRANCH  16   5
ATOM      5  O   UNL     1      12.020   7.750  17.520  0.00  0.00    -0.467 OA
ATOM     28  C   UNL     1      11.803   8.722  16.492  0.00  0.00    +0.280 C 
ENDBRANCH  16   5
ENDBRANCH  11  16
BRANCH   8  17
ATOM     17  C   UNL     1      12.453  11.873  22.707  0.00  0.00    +0.158 C 
BRANCH  17  20
ATOM      1 CL   UNL     1      15.011  12.829  28.071  0.00  0.00    -0.084 Cl
ATOM     20  C   UNL     1      13.093  12.113  24.052  0.00  0.00    -0.028 A 
ATOM     23  C   UNL     1      14.265  11.438  24.396  0.00  0.00    +0.007 A 
ATOM     24  C   UNL     1      12.514  13.007  24.951  0.00  0.00    +0.007 A 
ATOM     29  C   UNL     1      14.858  11.659  25.639  0.00  0.00    +0.020 A 
ATOM     30  C   UNL     1      13.107  13.229  26.195  0.00  0.00    +0.020 A 
ATOM     31  C   UNL     1      14.279  12.554  26.538  0.00  0.00    +0.041 A 
ENDBRANCH  17  20
ENDBRANCH   8  17
TORSDOF 7
ENDMDL
MODEL 2
REMARK VINA RESULT:      -7.0      4.183      6.626
REMARK  Name = 26745476
REMARK  8 active torsions:
REMARK  status: ('A' for Active; 'I' for Inactive)
REMARK    1  A    between atoms: S_2  and  N_7
REMARK    2  A    between atoms: S_2  and  C_19
REMARK    3  A    between atoms: O_5  and  C_16
REMARK    4  A    between atoms: O_5  and  C_28
REMARK    5  A    between atoms: N_8  and  C_17
REMARK    6  A    between atoms: C_11  and  C_16
REMARK    7  A    between atoms: C_17  and  C_20
REMARK    8  A    between atoms: C_27  and  C_32
REMARK                            x       y       z     vdW  Elec       q    Type
REMARK                         _______ _______ _______ _____ _____    ______ ____
ROOT
ATOM      7  N   UNL     1      14.501   8.315  19.026  0.00  0.00    -0.157 NA
ATOM      8  N   UNL     1      17.318   9.507  21.180  0.00  0.00    -0.328 N 
ATOM      9  N   UNL     1      17.832   7.337  21.318  0.00  0.00    -0.240 NA
ATOM     11  C   UNL     1      14.447   6.940  19.644  0.00  0.00    +0.194 C 
ATOM     12  C   UNL     1      15.137   9.398  19.862  0.00  0.00    +0.165 C 
ATOM     13  C   UNL     1      15.850   6.426  20.029  0.00  0.00    +0.089 C 
ATOM     14  C   UNL     1      16.330   8.836  20.524  0.00  0.00    +0.057 A 
ATOM     15  C   UNL     1      16.666   7.508  20.626  0.00  0.00    +0.066 A 
ATOM     18  C   UNL     1      18.199   8.562  21.640  0.00  0.00    +0.200 A 
ENDROOT
BRANCH   7   2
ATOM      2  S   UNL     1      13.135   8.800  18.114  0.00  0.00    +0.062 S 
ATOM      3  O   UNL     1      12.187   9.448  18.994  0.00  0.00    -0.153 OA
ATOM      4  O   UNL     1      12.731   7.707  17.257  0.00  0.00    -0.153 OA
BRANCH   2  19
ATOM     19  C   UNL     1      13.869  10.044  17.099  0.00  0.00    +0.106 A 
ATOM     21  C   UNL     1      13.836  11.380  17.499  0.00  0.00    +0.030 A 
ATOM     22  C   UNL     1      14.482   9.691  15.896  0.00  0.00    +0.030 A 
ATOM     25  C   UNL     1      14.416  12.363  16.696  0.00  0.00    +0.021 A 
ATOM     26  C   UNL     1      15.063  10.674  15.095  0.00  0.00    +0.021 A 
ATOM     27  C   UNL     1      15.029  12.009  15.495  0.00  0.00    +0.052 A 
BRANCH  27  32
ATOM     10  N   UNL     1      16.107  13.833  14.005  0.00  0.00    -0.191 NA
ATOM     32  C   UNL     1      15.623  13.016  14.673  0.00  0.00    +0.099 C 
ENDBRANCH  27  32
ENDBRANCH   2  19
ENDBRANCH   7   2
BRANCH  11  16
ATOM      6  O   UNL     1      13.822   7.417  21.916  0.00  0.00    -0.249 OA
ATOM     16  C   UNL     1      13.520   6.974  20.816  0.00  0.00    +0.326 C 
BRANCH  16   5
ATOM      5  O   UNL     1      12.316   6.442  20.461  0.00  0.00    -0.467 OA
ATOM     28  C   UNL     1      11.305   6.477  21.473  0.00  0.00    +0.280 C 
ENDBRANCH  16   5
ENDBRANCH  11  16
BRANCH   8  17
ATOM     17  C   UNL     1      17.426  10.933  21.371  0.00  0.00    +0.158 C 
BRANCH  17  20
ATOM      1 CL   UNL     1      19.921  13.780  16.690  0.00  0.00    -0.084 Cl
ATOM     20  C   UNL     1      18.050  11.647  20.198  0.00  0.00    -0.028 A 
ATOM     23  C   UNL     1      19.439  11.685  20.063  0.00  0.00    +0.007 A 
ATOM     24  C   UNL     1      17.241  12.269  19.248  0.00  0.00    +0.007 A 
ATOM     29  C   UNL     1      20.017  12.345  18.980  0.00  0.00    +0.020 A 
ATOM     30  C   UNL     1      17.819  12.930  18.164  0.00  0.00    +0.020 A 
ATOM     31  C   UNL     1      19.207  12.967  18.030  0.00  0.00    +0.041 A 
ENDBRANCH  17  20
ENDBRANCH   8  17
TORSDOF 7
ENDMDL
MODEL 3
REMARK VINA RESULT:      -6.8      3.308      6.550
REMARK  Name = 26745476
REMARK  8 active torsions:
REMARK  status: ('A' for Active; 'I' for Inactive)
REMARK    1  A    between atoms: S_2  and  N_7
REMARK    2  A    between atoms: S_2  and  C_19
REMARK    3  A    between atoms: O_5  and  C_16
REMARK    4  A    between atoms: O_5  and  C_28
REMARK    5  A    between atoms: N_8  and  C_17
REMARK    6  A    between atoms: C_11  and  C_16
REMARK    7  A    between atoms: C_17  and  C_20
REMARK    8  A    between atoms: C_27  and  C_32
REMARK                            x       y       z     vdW  Elec       q    Type
REMARK                         _______ _______ _______ _____ _____    ______ ____
ROOT
ATOM      7  N   UNL     1      14.155   8.759  19.240  0.00  0.00    -0.157 NA
ATOM      8  N   UNL     1      17.391   8.840  21.114  0.00  0.00    -0.328 N 
ATOM      9  N   UNL     1      17.576   6.718  20.439  0.00  0.00    -0.240 NA
ATOM     11  C   UNL     1      13.973   7.269  19.373  0.00  0.00    +0.194 C 
ATOM     12  C   UNL     1      15.060   9.414  20.253  0.00  0.00    +0.165 C 
ATOM     13  C   UNL     1      15.318   6.515  19.307  0.00  0.00    +0.089 C 
ATOM     14  C   UNL     1      16.230   8.541  20.466  0.00  0.00    +0.057 A 
ATOM     15  C   UNL     1      16.366   7.234  20.065  0.00  0.00    +0.066 A 
ATOM     18  C   UNL     1      18.170   7.711  21.070  0.00  0.00    +0.200 A 
ENDROOT
BRANCH   7   2
ATOM      2  S   UNL     1      12.769   9.665  18.802  0.00  0.00    +0.062 S 
ATOM      3  O   UNL     1      11.752   8.761  18.309  0.00  0.00    -0.153 OA
ATOM      4  O   UNL     1      13.184  10.814  18.028  0.00  0.00    -0.153 OA
BRANCH   2  19
ATOM     19  C   UNL     1      12.259  10.236  20.393  0.00  0.00    +0.106 A 
ATOM     21  C   UNL     1      11.275   9.546  21.100  0.00  0.00    +0.030 A 
ATOM     22  C   UNL     1      12.842  11.379  20.942  0.00  0.00    +0.030 A 
ATOM     25  C   UNL     1      10.873   9.998  22.357  0.00  0.00    +0.021 A 
ATOM     26  C   UNL     1      12.440  11.830  22.199  0.00  0.00    +0.021 A 
ATOM     27  C   UNL     1      11.456  11.140  22.906  0.00  0.00    +0.052 A 
BRANCH  27  32
ATOM     10  N   UNL     1      10.707  11.979  25.240  0.00  0.00    -0.191 NA
ATOM     32  C   UNL     1      11.044  11.603  24.194  0.00  0.00    +0.099 C 
ENDBRANCH  27  32
ENDBRANCH   2  19
ENDBRANCH   7   2
BRANCH  11  16
ATOM      6  O   UNL     1      13.643   7.276  21.755  0.00  0.00    -0.249 OA
ATOM     16  C   UNL     1      13.232   6.983  20.641  0.00  0.00    +0.326 C 
BRANCH  16   5
ATOM      5  O   UNL     1      12.054   6.361  20.350  0.00  0.00    -0.467 OA
ATOM     28  C   UNL     1      11.283   5.945  21.482  0.00  0.00    +0.280 C 
ENDBRANCH  16   5
ENDBRANCH  11  16
BRANCH   8  17
ATOM     17  C   UNL     1      17.746  10.091  21.737  0.00  0.00    +0.158 C 
BRANCH  17  20
ATOM      1 CL   UNL     1      20.858  13.759  18.118  0.00  0.00    -0.084 Cl
ATOM     20  C   UNL     1      18.525  11.011  20.830  0.00  0.00    -0.028 A 
ATOM     23  C   UNL     1      19.920  10.966  20.824  0.00  0.00    +0.007 A 
ATOM     24  C   UNL     1      17.853  11.907  20.000  0.00  0.00    +0.007 A 
ATOM     29  C   UNL     1      20.641  11.816  19.986  0.00  0.00    +0.020 A 
ATOM     30  C   UNL     1      18.574  12.757  19.161  0.00  0.00    +0.020 A 
ATOM     31  C   UNL     1      19.968  12.712  19.155  0.00  0.00    +0.041 A 
ENDBRANCH  17  20
ENDBRANCH   8  17
TORSDOF 7
ENDMDL
MODEL 4
REMARK VINA RESULT:      -6.7     28.078     30.175
REMARK  Name = 26745476
REMARK  8 active torsions:
REMARK  status: ('A' for Active; 'I' for Inactive)
REMARK    1  A    between atoms: S_2  and  N_7
REMARK    2  A    between atoms: S_2  and  C_19
REMARK    3  A    between atoms: O_5  and  C_16
REMARK    4  A    between atoms: O_5  and  C_28
REMARK    5  A    between atoms: N_8  and  C_17
REMARK    6  A    between atoms: C_11  and  C_16
REMARK    7  A    between atoms: C_17  and  C_20
REMARK    8  A    between atoms: C_27  and  C_32
REMARK                            x       y       z     vdW  Elec       q    Type
REMARK                         _______ _______ _______ _____ _____    ______ ____
ROOT
ATOM      7  N   UNL     1      -5.807 -11.832  15.466  0.00  0.00    -0.157 NA
ATOM      8  N   UNL     1      -2.666 -13.317  14.080  0.00  0.00    -0.328 N 
ATOM      9  N   UNL     1      -3.475 -15.230  14.902  0.00  0.00    -0.240 NA
ATOM     11  C   UNL     1      -5.986 -12.890  16.525  0.00  0.00    +0.194 C 
ATOM     12  C   UNL     1      -4.410 -11.659  14.925  0.00  0.00    +0.165 C 
ATOM     13  C   UNL     1      -5.533 -14.281  16.034  0.00  0.00    +0.089 C 
ATOM     14  C   UNL     1      -3.810 -12.995  14.747  0.00  0.00    +0.057 A 
ATOM     15  C   UNL     1      -4.284 -14.184  15.245  0.00  0.00    +0.066 A 
ATOM     18  C   UNL     1      -2.507 -14.674  14.201  0.00  0.00    +0.200 A 
ENDROOT
BRANCH   7   2
ATOM      2  S   UNL     1      -6.699 -10.385  15.669  0.00  0.00    +0.062 S 
ATOM      3  O   UNL     1      -5.817  -9.354  16.174  0.00  0.00    -0.153 OA
ATOM      4  O   UNL     1      -7.946 -10.692  16.335  0.00  0.00    -0.153 OA
BRANCH   2  19
ATOM     19  C   UNL     1      -7.062 -10.008  13.983  0.00  0.00    +0.106 A 
ATOM     21  C   UNL     1      -8.342 -10.232  13.477  0.00  0.00    +0.030 A 
ATOM     22  C   UNL     1      -6.066  -9.486  13.156  0.00  0.00    +0.030 A 
ATOM     25  C   UNL     1      -8.627  -9.934  12.144  0.00  0.00    +0.021 A 
ATOM     26  C   UNL     1      -6.353  -9.187  11.824  0.00  0.00    +0.021 A 
ATOM     27  C   UNL     1      -7.633  -9.411  11.318  0.00  0.00    +0.052 A 
BRANCH  27  32
ATOM     10  N   UNL     1      -8.164  -8.858   8.844  0.00  0.00    -0.191 NA
ATOM     32  C   UNL     1      -7.925  -9.106   9.953  0.00  0.00    +0.099 C 
ENDBRANCH  27  32
ENDBRANCH   2  19
ENDBRANCH   7   2
BRANCH  11  16
ATOM      6  O   UNL     1      -4.084 -12.113  17.775  0.00  0.00    -0.249 OA
ATOM     16  C   UNL     1      -5.256 -12.466  17.760  0.00  0.00    +0.326 C 
BRANCH  16   5
ATOM      5  O   UNL     1      -6.094 -12.536  18.832  0.00  0.00    -0.467 OA
ATOM     28  C   UNL     1      -6.258 -11.318  19.566  0.00  0.00    +0.280 C 
ENDBRANCH  16   5
ENDBRANCH  11  16
BRANCH   8  17
ATOM     17  C   UNL     1      -1.778 -12.417  13.384  0.00  0.00    +0.158 C 
BRANCH  17  20
ATOM      1 CL   UNL     1      -4.367  -9.677   8.691  0.00  0.00    -0.084 Cl
ATOM     20  C   UNL     1      -2.426 -11.730  12.208  0.00  0.00    -0.028 A 
ATOM     23  C   UNL     1      -3.287 -12.442  11.372  0.00  0.00    +0.007 A 
ATOM     24  C   UNL     1      -2.166 -10.384  11.956  0.00  0.00    +0.007 A 
ATOM     29  C   UNL     1      -3.886 -11.808  10.284  0.00  0.00    +0.020 A 
ATOM     30  C   UNL     1      -2.765  -9.748  10.868  0.00  0.00    +0.020 A 
ATOM     31  C   UNL     1      -3.625 -10.461  10.032  0.00  0.00    +0.041 A 
ENDBRANCH  17  20
ENDBRANCH   8  17
TORSDOF 7
ENDMDL
MODEL 5
REMARK VINA RESULT:      -6.6     16.263     19.479
REMARK  Name = 26745476
REMARK  8 active torsions:
REMARK  status: ('A' for Active; 'I' for Inactive)
REMARK    1  A    between atoms: S_2  and  N_7
REMARK    2  A    between atoms: S_2  and  C_19
REMARK    3  A    between atoms: O_5  and  C_16
REMARK    4  A    between atoms: O_5  and  C_28
REMARK    5  A    between atoms: N_8  and  C_17
REMARK    6  A    between atoms: C_11  and  C_16
REMARK    7  A    between atoms: C_17  and  C_20
REMARK    8  A    between atoms: C_27  and  C_32
REMARK                            x       y       z     vdW  Elec       q    Type
REMARK                         _______ _______ _______ _____ _____    ______ ____
ROOT
ATOM      7  N   UNL     1      12.193   5.381   1.501  0.00  0.00    -0.157 NA
ATOM      8  N   UNL     1      15.161   7.330   2.675  0.00  0.00    -0.328 N 
ATOM      9  N   UNL     1      15.288   7.990   0.545  0.00  0.00    -0.240 NA
ATOM     11  C   UNL     1      12.666   5.284   0.073  0.00  0.00    +0.194 C 
ATOM     12  C   UNL     1      13.255   5.642   2.540  0.00  0.00    +0.165 C 
ATOM     13  C   UNL     1      13.410   6.560  -0.375  0.00  0.00    +0.089 C 
ATOM     14  C   UNL     1      14.196   6.643   2.002  0.00  0.00    +0.057 A 
ATOM     15  C   UNL     1      14.297   7.061   0.698  0.00  0.00    +0.066 A 
ATOM     18  C   UNL     1      15.791   8.129   1.755  0.00  0.00    +0.200 A 
ENDROOT
BRANCH   7   2
ATOM      2  S   UNL     1      10.956   4.295   1.974  0.00  0.00    +0.062 S 
ATOM      3  O   UNL     1      11.561   3.064   2.436  0.00  0.00    -0.153 OA
ATOM      4  O   UNL     1       9.927   4.284   0.957  0.00  0.00    -0.153 OA
BRANCH   2  19
ATOM     19  C   UNL     1      10.320   5.147   3.383  0.00  0.00    +0.106 A 
ATOM     21  C   UNL     1      10.307   4.522   4.629  0.00  0.00    +0.030 A 
ATOM     22  C   UNL     1       9.831   6.447   3.248  0.00  0.00    +0.030 A 
ATOM     25  C   UNL     1       9.804   5.196   5.742  0.00  0.00    +0.021 A 
ATOM     26  C   UNL     1       9.329   7.121   4.362  0.00  0.00    +0.021 A 
ATOM     27  C   UNL     1       9.316   6.496   5.608  0.00  0.00    +0.052 A 
BRANCH  27  32
ATOM     10  N   UNL     1       8.384   7.748   7.675  0.00  0.00    -0.191 NA
ATOM     32  C   UNL     1       8.801   7.186   6.749  0.00  0.00    +0.099 C 
ENDBRANCH  27  32
ENDBRANCH   2  19
ENDBRANCH   7   2
BRANCH  11  16
ATOM      6  O   UNL     1      14.680   3.988   0.285  0.00  0.00    -0.249 OA
ATOM     16  C   UNL     1      13.513   4.060  -0.074  0.00  0.00    +0.326 C 
BRANCH  16   5
ATOM      5  O   UNL     1      12.783   3.068  -0.659  0.00  0.00    -0.467 OA
ATOM     28  C   UNL     1      12.627   3.173  -2.077  0.00  0.00    +0.280 C 
ENDBRANCH  16   5
ENDBRANCH  11  16
BRANCH   8  17
ATOM     17  C   UNL     1      15.478   7.241   4.080  0.00  0.00    +0.158 C 
BRANCH  17  20
ATOM      1 CL   UNL     1      11.304   9.731   7.632  0.00  0.00    -0.084 Cl
ATOM     20  C   UNL     1      14.432   7.866   4.969  0.00  0.00    -0.028 A 
ATOM     23  C   UNL     1      13.835   7.111   5.980  0.00  0.00    +0.007 A 
ATOM     24  C   UNL     1      14.060   9.196   4.782  0.00  0.00    +0.007 A 
ATOM     29  C   UNL     1      12.868   7.687   6.802  0.00  0.00    +0.020 A 
ATOM     30  C   UNL     1      13.092   9.774   5.604  0.00  0.00    +0.020 A 
ATOM     31  C   UNL     1      12.496   9.018   6.615  0.00  0.00    +0.041 A 
ENDBRANCH  17  20
ENDBRANCH   8  17
TORSDOF 7
ENDMDL
MODEL 6
REMARK VINA RESULT:      -6.6     15.618     19.699
REMARK  Name = 26745476
REMARK  8 active torsions:
REMARK  status: ('A' for Active; 'I' for Inactive)
REMARK    1  A    between atoms: S_2  and  N_7
REMARK    2  A    between atoms: S_2  and  C_19
REMARK    3  A    between atoms: O_5  and  C_16
REMARK    4  A    between atoms: O_5  and  C_28
REMARK    5  A    between atoms: N_8  and  C_17
REMARK    6  A    between atoms: C_11  and  C_16
REMARK    7  A    between atoms: C_17  and  C_20
REMARK    8  A    between atoms: C_27  and  C_32
REMARK                            x       y       z     vdW  Elec       q    Type
REMARK                         _______ _______ _______ _____ _____    ______ ____
ROOT
ATOM      7  N   UNL     1      11.719   6.390   5.310  0.00  0.00    -0.157 NA
ATOM      8  N   UNL     1      14.769   8.196   4.115  0.00  0.00    -0.328 N 
ATOM      9  N   UNL     1      15.537   7.795   6.175  0.00  0.00    -0.240 NA
ATOM     11  C   UNL     1      11.944   6.715   6.764  0.00  0.00    +0.194 C 
ATOM     12  C   UNL     1      12.389   7.299   4.310  0.00  0.00    +0.165 C 
ATOM     13  C   UNL     1      13.445   6.728   7.125  0.00  0.00    +0.089 C 
ATOM     14  C   UNL     1      13.747   7.606   4.798  0.00  0.00    +0.057 A 
ATOM     15  C   UNL     1      14.241   7.375   6.059  0.00  0.00    +0.066 A 
ATOM     18  C   UNL     1      15.825   8.287   4.987  0.00  0.00    +0.200 A 
ENDROOT
BRANCH   7   2
ATOM      2  S   UNL     1      10.149   5.858   4.878  0.00  0.00    +0.062 S 
ATOM      3  O   UNL     1       9.266   7.002   4.808  0.00  0.00    -0.153 OA
ATOM      4  O   UNL     1       9.809   4.701   5.677  0.00  0.00    -0.153 OA
BRANCH   2  19
ATOM     19  C   UNL     1      10.454   5.309   3.228  0.00  0.00    +0.106 A 
ATOM     21  C   UNL     1      11.182   4.141   3.004  0.00  0.00    +0.030 A 
ATOM     22  C   UNL     1       9.965   6.045   2.147  0.00  0.00    +0.030 A 
ATOM     25  C   UNL     1      11.423   3.708   1.700  0.00  0.00    +0.021 A 
ATOM     26  C   UNL     1      10.205   5.611   0.844  0.00  0.00    +0.021 A 
ATOM     27  C   UNL     1      10.934   4.443   0.620  0.00  0.00    +0.052 A 
BRANCH  27  32
ATOM     10  N   UNL     1      11.379   3.638  -1.801  0.00  0.00    -0.191 NA
ATOM     32  C   UNL     1      11.180   3.999  -0.716  0.00  0.00    +0.099 C 
ENDBRANCH  27  32
ENDBRANCH   2  19
ENDBRANCH   7   2
BRANCH  11  16
ATOM      6  O   UNL     1      11.638   9.096   6.621  0.00  0.00    -0.249 OA
ATOM     16  C   UNL     1      11.281   8.018   7.077  0.00  0.00    +0.326 C 
BRANCH  16   5
ATOM      5  O   UNL     1      10.240   7.806   7.931  0.00  0.00    -0.467 OA
ATOM     28  C   UNL     1       9.188   8.775   7.873  0.00  0.00    +0.280 C 
ENDBRANCH  16   5
ENDBRANCH  11  16
BRANCH   8  17
ATOM     17  C   UNL     1      14.757   8.650   2.746  0.00  0.00    +0.158 C 
BRANCH  17  20
ATOM      1 CL   UNL     1      16.379   4.393  -1.190  0.00  0.00    -0.084 Cl
ATOM     20  C   UNL     1      15.162   7.583   1.760  0.00  0.00    -0.028 A 
ATOM     23  C   UNL     1      16.420   7.632   1.157  0.00  0.00    +0.007 A 
ATOM     24  C   UNL     1      14.281   6.548   1.449  0.00  0.00    +0.007 A 
ATOM     29  C   UNL     1      16.796   6.647   0.245  0.00  0.00    +0.020 A 
ATOM     30  C   UNL     1      14.656   5.562   0.536  0.00  0.00    +0.020 A 
ATOM     31  C   UNL     1      15.914   5.611  -0.065  0.00  0.00    +0.041 A 
ENDBRANCH  17  20
ENDBRANCH   8  17
TORSDOF 7
ENDMDL
MODEL 7
REMARK VINA RESULT:      -6.6      3.639      6.445
REMARK  Name = 26745476
REMARK  8 active torsions:
REMARK  status: ('A' for Active; 'I' for Inactive)
REMARK    1  A    between atoms: S_2  and  N_7
REMARK    2  A    between atoms: S_2  and  C_19
REMARK    3  A    between atoms: O_5  and  C_16
REMARK    4  A    between atoms: O_5  and  C_28
REMARK    5  A    between atoms: N_8  and  C_17
REMARK    6  A    between atoms: C_11  and  C_16
REMARK    7  A    between atoms: C_17  and  C_20
REMARK    8  A    between atoms: C_27  and  C_32
REMARK                            x       y       z     vdW  Elec       q    Type
REMARK                         _______ _______ _______ _____ _____    ______ ____
ROOT
ATOM      7  N   UNL     1      14.703   9.045  20.272  0.00  0.00    -0.157 NA
ATOM      8  N   UNL     1      17.435   6.490  20.320  0.00  0.00    -0.328 N 
ATOM      9  N   UNL     1      16.526   5.811  18.395  0.00  0.00    -0.240 NA
ATOM     11  C   UNL     1      13.772   8.214  19.426  0.00  0.00    +0.194 C 
ATOM     12  C   UNL     1      15.773   8.292  21.023  0.00  0.00    +0.165 C 
ATOM     13  C   UNL     1      14.537   7.381  18.376  0.00  0.00    +0.089 C 
ATOM     14  C   UNL     1      16.315   7.244  20.137  0.00  0.00    +0.057 A 
ATOM     15  C   UNL     1      15.773   6.806  18.953  0.00  0.00    +0.066 A 
ATOM     18  C   UNL     1      17.520   5.643  19.244  0.00  0.00    +0.200 A 
ENDROOT
BRANCH   7   2
ATOM      2  S   UNL     1      14.003  10.360  21.116  0.00  0.00    +0.062 S 
ATOM      3  O   UNL     1      13.436   9.876  22.357  0.00  0.00    -0.153 OA
ATOM      4  O   UNL     1      13.214  11.145  20.191  0.00  0.00    -0.153 OA
BRANCH   2  19
ATOM     19  C   UNL     1      15.457  11.282  21.510  0.00  0.00    +0.106 A 
ATOM     21  C   UNL     1      15.795  11.515  22.842  0.00  0.00    +0.030 A 
ATOM     22  C   UNL     1      16.266  11.777  20.486  0.00  0.00    +0.030 A 
ATOM     25  C   UNL     1      16.944  12.244  23.152  0.00  0.00    +0.021 A 
ATOM     26  C   UNL     1      17.415  12.504  20.797  0.00  0.00    +0.021 A 
ATOM     27  C   UNL     1      17.754  12.738  22.129  0.00  0.00    +0.052 A 
BRANCH  27  32
ATOM     10  N   UNL     1      19.887  14.089  22.704  0.00  0.00    -0.191 NA
ATOM     32  C   UNL     1      18.931  13.484  22.447  0.00  0.00    +0.099 C 
ENDBRANCH  27  32
ENDBRANCH   2  19
ENDBRANCH   7   2
BRANCH  11  16
ATOM      6  O   UNL     1      13.360   6.810  21.334  0.00  0.00    -0.249 OA
ATOM     16  C   UNL     1      12.938   7.356  20.324  0.00  0.00    +0.326 C 
BRANCH  16   5
ATOM      5  O   UNL     1      11.666   7.291  19.839  0.00  0.00    -0.467 OA
ATOM     28  C   UNL     1      10.998   8.548  19.693  0.00  0.00    +0.280 C 
ENDBRANCH  16   5
ENDBRANCH  11  16
BRANCH   8  17
ATOM     17  C   UNL     1      18.358   6.552  21.426  0.00  0.00    +0.158 C 
BRANCH  17  20
ATOM      1 CL   UNL     1      22.865  10.448  20.559  0.00  0.00    -0.084 Cl
ATOM     20  C   UNL     1      19.488   7.528  21.208  0.00  0.00    -0.028 A 
ATOM     23  C   UNL     1      19.304   8.882  21.490  0.00  0.00    +0.007 A 
ATOM     24  C   UNL     1      20.716   7.078  20.725  0.00  0.00    +0.007 A 
ATOM     29  C   UNL     1      20.347   9.785  21.288  0.00  0.00    +0.020 A 
ATOM     30  C   UNL     1      21.760   7.980  20.523  0.00  0.00    +0.020 A 
ATOM     31  C   UNL     1      21.575   9.334  20.805  0.00  0.00    +0.041 A 
ENDBRANCH  17  20
ENDBRANCH   8  17
TORSDOF 7
ENDMDL
MODEL 8
REMARK VINA RESULT:      -6.5     27.288     30.299
REMARK  Name = 26745476
REMARK  8 active torsions:
REMARK  status: ('A' for Active; 'I' for Inactive)
REMARK    1  A    between atoms: S_2  and  N_7
REMARK    2  A    between atoms: S_2  and  C_19
REMARK    3  A    between atoms: O_5  and  C_16
REMARK    4  A    between atoms: O_5  and  C_28
REMARK    5  A    between atoms: N_8  and  C_17
REMARK    6  A    between atoms: C_11  and  C_16
REMARK    7  A    between atoms: C_17  and  C_20
REMARK    8  A    between atoms: C_27  and  C_32
REMARK                            x       y       z     vdW  Elec       q    Type
REMARK                         _______ _______ _______ _____ _____    ______ ____
ROOT
ATOM      7  N   UNL     1      -8.519 -10.466  17.756  0.00  0.00    -0.157 NA
ATOM      8  N   UNL     1      -9.705 -10.147  14.222  0.00  0.00    -0.328 N 
ATOM      9  N   UNL     1     -10.921  -8.451  15.021  0.00  0.00    -0.240 NA
ATOM     11  C   UNL     1      -9.753  -9.841  18.356  0.00  0.00    +0.194 C 
ATOM     12  C   UNL     1      -8.672 -11.049  16.373  0.00  0.00    +0.165 C 
ATOM     13  C   UNL     1     -10.318  -8.713  17.468  0.00  0.00    +0.089 C 
ATOM     14  C   UNL     1      -9.503 -10.132  15.570  0.00  0.00    +0.057 A 
ATOM     15  C   UNL     1     -10.263  -9.086  16.037  0.00  0.00    +0.066 A 
ATOM     18  C   UNL     1     -10.565  -9.116  13.940  0.00  0.00    +0.200 A 
ENDROOT
BRANCH   7   2
ATOM      2  S   UNL     1      -7.516 -11.357  18.819  0.00  0.00    +0.062 S 
ATOM      3  O   UNL     1      -7.861 -12.760  18.729  0.00  0.00    -0.153 OA
ATOM      4  O   UNL     1      -7.469 -10.681  20.097  0.00  0.00    -0.153 OA
BRANCH   2  19
ATOM     19  C   UNL     1      -5.953 -11.134  18.028  0.00  0.00    +0.106 A 
ATOM     21  C   UNL     1      -5.810 -10.176  17.025  0.00  0.00    +0.030 A 
ATOM     22  C   UNL     1      -4.862 -11.917  18.406  0.00  0.00    +0.030 A 
ATOM     25  C   UNL     1      -4.575 -10.000  16.400  0.00  0.00    +0.021 A 
ATOM     26  C   UNL     1      -3.628 -11.740  17.781  0.00  0.00    +0.021 A 
ATOM     27  C   UNL     1      -3.484 -10.782  16.779  0.00  0.00    +0.052 A 
BRANCH  27  32
ATOM     10  N   UNL     1      -1.192 -10.454  15.618  0.00  0.00    -0.191 NA
ATOM     32  C   UNL     1      -2.219 -10.602  16.138  0.00  0.00    +0.099 C 
ENDBRANCH  27  32
ENDBRANCH   2  19
ENDBRANCH   7   2
BRANCH  11  16
ATOM      6  O   UNL     1     -11.340 -11.535  17.729  0.00  0.00    -0.249 OA
ATOM     16  C   UNL     1     -10.763 -10.914  18.612  0.00  0.00    +0.326 C 
BRANCH  16   5
ATOM      5  O   UNL     1     -10.926 -11.077  19.955  0.00  0.00    -0.467 OA
ATOM     28  C   UNL     1     -10.902 -12.431  20.418  0.00  0.00    +0.280 C 
ENDBRANCH  16   5
ENDBRANCH  11  16
BRANCH   8  17
ATOM     17  C   UNL     1      -9.140 -11.067  13.266  0.00  0.00    +0.158 C 
BRANCH  17  20
ATOM      1 CL   UNL     1      -3.198 -10.409  12.556  0.00  0.00    -0.084 Cl
ATOM     20  C   UNL     1      -7.650 -10.903  13.088  0.00  0.00    -0.028 A 
ATOM     23  C   UNL     1      -7.134  -9.698  12.611  0.00  0.00    +0.007 A 
ATOM     24  C   UNL     1      -6.790 -11.955  13.399  0.00  0.00    +0.007 A 
ATOM     29  C   UNL     1      -5.758  -9.545  12.445  0.00  0.00    +0.020 A 
ATOM     30  C   UNL     1      -5.413 -11.803  13.234  0.00  0.00    +0.020 A 
ATOM     31  C   UNL     1      -4.897 -10.598  12.757  0.00  0.00    +0.041 A 
ENDBRANCH  17  20
ENDBRANCH   8  17
TORSDOF 7
ENDMDL
MODEL 9
REMARK VINA RESULT:      -6.4      4.216      7.150
REMARK  Name = 26745476
REMARK  8 active torsions:
REMARK  status: ('A' for Active; 'I' for Inactive)
REMARK    1  A    between atoms: S_2  and  N_7
REMARK    2  A    between atoms: S_2  and  C_19
REMARK    3  A    between atoms: O_5  and  C_16
REMARK    4  A    between atoms: O_5  and  C_28
REMARK    5  A    between atoms: N_8  and  C_17
REMARK    6  A    between atoms: C_11  and  C_16
REMARK    7  A    between atoms: C_17  and  C_20
REMARK    8  A    between atoms: C_27  and  C_32
REMARK                            x       y       z     vdW  Elec       q    Type
REMARK                         _______ _______ _______ _____ _____    ______ ____
ROOT
ATOM      7  N   UNL     1      13.411  11.640  21.868  0.00  0.00    -0.157 NA
ATOM      8  N   UNL     1      11.907   8.215  21.865  0.00  0.00    -0.328 N 
ATOM      9  N   UNL     1      10.200   9.209  22.909  0.00  0.00    -0.240 NA
ATOM     11  C   UNL     1      12.644  12.110  23.078  0.00  0.00    +0.194 C 
ATOM     12  C   UNL     1      13.565  10.147  21.714  0.00  0.00    +0.165 C 
ATOM     13  C   UNL     1      11.219  11.518  23.122  0.00  0.00    +0.089 C 
ATOM     14  C   UNL     1      12.285   9.507  22.074  0.00  0.00    +0.057 A 
ATOM     15  C   UNL     1      11.223  10.094  22.719  0.00  0.00    +0.066 A 
ATOM     18  C   UNL     1      10.644   8.084  22.384  0.00  0.00    +0.200 A 
ENDROOT
BRANCH   7   2
ATOM      2  S   UNL     1      14.779  12.567  21.420  0.00  0.00    +0.062 S 
ATOM      3  O   UNL     1      15.978  11.854  21.802  0.00  0.00    -0.153 OA
ATOM      4  O   UNL     1      14.567  13.941  21.823  0.00  0.00    -0.153 OA
BRANCH   2  19
ATOM     19  C   UNL     1      14.640  12.489  19.661  0.00  0.00    +0.106 A 
ATOM     21  C   UNL     1      15.254  11.453  18.959  0.00  0.00    +0.030 A 
ATOM     22  C   UNL     1      13.916  13.465  18.976  0.00  0.00    +0.030 A 
ATOM     25  C   UNL     1      15.144  11.393  17.569  0.00  0.00    +0.021 A 
ATOM     26  C   UNL     1      13.805  13.403  17.586  0.00  0.00    +0.021 A 
ATOM     27  C   UNL     1      14.420  12.367  16.884  0.00  0.00    +0.052 A 
BRANCH  27  32
ATOM     10  N   UNL     1      14.218  12.254  14.304  0.00  0.00    -0.191 NA
ATOM     32  C   UNL     1      14.307  12.305  15.460  0.00  0.00    +0.099 C 
ENDBRANCH  27  32
ENDBRANCH   2  19
ENDBRANCH   7   2
BRANCH  11  16
ATOM      6  O   UNL     1      14.392  11.025  24.322  0.00  0.00    -0.249 OA
ATOM     16  C   UNL     1      13.428  11.778  24.307  0.00  0.00    +0.326 C 
BRANCH  16   5
ATOM      5  O   UNL     1      12.901  12.439  25.377  0.00  0.00    -0.467 OA
ATOM     28  C   UNL     1      12.977  13.867  25.314  0.00  0.00    +0.280 C 
ENDBRANCH  16   5
ENDBRANCH  11  16
BRANCH   8  17
ATOM     17  C   UNL     1      12.677   7.172  21.232  0.00  0.00    +0.158 C 
BRANCH  17  20
ATOM      1 CL   UNL     1      14.233   8.472  15.564  0.00  0.00    -0.084 Cl
ATOM     20  C   UNL     1      13.068   7.497  19.811  0.00  0.00    -0.028 A 
ATOM     23  C   UNL     1      12.124   8.034  18.934  0.00  0.00    +0.007 A 
ATOM     24  C   UNL     1      14.370   7.261  19.374  0.00  0.00    +0.007 A 
ATOM     29  C   UNL     1      12.484   8.334  17.621  0.00  0.00    +0.020 A 
ATOM     30  C   UNL     1      14.731   7.561  18.060  0.00  0.00    +0.020 A 
ATOM     31  C   UNL     1      13.788   8.098  17.184  0.00  0.00    +0.041 A 
ENDBRANCH  17  20
ENDBRANCH   8  17
TORSDOF 7
ENDMDL
MODEL 10
REMARK VINA RESULT:      -6.3      3.218      6.084
REMARK  Name = 26745476
REMARK  8 active torsions:
REMARK  status: ('A' for Active; 'I' for Inactive)
REMARK    1  A    between atoms: S_2  and  N_7
REMARK    2  A    between atoms: S_2  and  C_19
REMARK    3  A    between atoms: O_5  and  C_16
REMARK    4  A    between atoms: O_5  and  C_28
REMARK    5  A    between atoms: N_8  and  C_17
REMARK    6  A    between atoms: C_11  and  C_16
REMARK    7  A    between atoms: C_17  and  C_20
REMARK    8  A    between atoms: C_27  and  C_32
REMARK                            x       y       z     vdW  Elec       q    Type
REMARK                         _______ _______ _______ _____ _____    ______ ____
ROOT
ATOM      7  N   UNL     1      12.878   9.916  21.143  0.00  0.00    -0.157 NA
ATOM      8  N   UNL     1      15.472   7.297  20.510  0.00  0.00    -0.328 N 
ATOM      9  N   UNL     1      14.473   7.108  18.521  0.00  0.00    -0.240 NA
ATOM     11  C   UNL     1      11.880   9.339  20.171  0.00  0.00    +0.194 C 
ATOM     12  C   UNL     1      13.929   8.967  21.664  0.00  0.00    +0.165 C 
ATOM     13  C   UNL     1      12.569   8.729  18.932  0.00  0.00    +0.089 C 
ATOM     14  C   UNL     1      14.388   8.122  20.546  0.00  0.00    +0.057 A 
ATOM     15  C   UNL     1      13.790   7.985  19.317  0.00  0.00    +0.066 A 
ATOM     18  C   UNL     1      15.481   6.709  19.270  0.00  0.00    +0.200 A 
ENDROOT
BRANCH   7   2
ATOM      2  S   UNL     1      12.273  11.038  22.286  0.00  0.00    +0.062 S 
ATOM      3  O   UNL     1      11.909  10.330  23.495  0.00  0.00    -0.153 OA
ATOM      4  O   UNL     1      11.335  11.920  21.627  0.00  0.00    -0.153 OA
BRANCH   2  19
ATOM     19  C   UNL     1      13.742  11.959  22.621  0.00  0.00    +0.106 A 
ATOM     21  C   UNL     1      14.278  11.973  23.908  0.00  0.00    +0.030 A 
ATOM     22  C   UNL     1      14.365  12.672  21.597  0.00  0.00    +0.030 A 
ATOM     25  C   UNL     1      15.439  12.701  24.171  0.00  0.00    +0.021 A 
ATOM     26  C   UNL     1      15.527  13.399  21.861  0.00  0.00    +0.021 A 
ATOM     27  C   UNL     1      16.063  13.413  23.147  0.00  0.00    +0.052 A 
BRANCH  27  32
ATOM     10  N   UNL     1      18.217  14.765  23.638  0.00  0.00    -0.191 NA
ATOM     32  C   UNL     1      17.252  14.158  23.418  0.00  0.00    +0.099 C 
ENDBRANCH  27  32
ENDBRANCH   2  19
ENDBRANCH   7   2
BRANCH  11  16
ATOM      6  O   UNL     1      10.224   8.629  21.764  0.00  0.00    -0.249 OA
ATOM     16  C   UNL     1      11.029   8.340  20.888  0.00  0.00    +0.326 C 
BRANCH  16   5
ATOM      5  O   UNL     1      11.294   7.090  20.413  0.00  0.00    -0.467 OA
ATOM     28  C   UNL     1      11.336   6.053  21.398  0.00  0.00    +0.280 C 
ENDBRANCH  16   5
ENDBRANCH  11  16
BRANCH   8  17
ATOM     17  C   UNL     1      16.429   7.067  21.565  0.00  0.00    +0.158 C 
BRANCH  17  20
ATOM      1 CL   UNL     1      21.306  10.573  21.162  0.00  0.00    -0.084 Cl
ATOM     20  C   UNL     1      17.652   7.945  21.463  0.00  0.00    -0.028 A 
ATOM     23  C   UNL     1      17.523   9.332  21.540  0.00  0.00    +0.007 A 
ATOM     24  C   UNL     1      18.911   7.371  21.293  0.00  0.00    +0.007 A 
ATOM     29  C   UNL     1      18.652  10.145  21.446  0.00  0.00    +0.020 A 
ATOM     30  C   UNL     1      20.042   8.184  21.199  0.00  0.00    +0.020 A 
ATOM     31  C   UNL     1      19.912   9.570  21.275  0.00  0.00    +0.041 A 
ENDBRANCH  17  20
ENDBRANCH   8  17
TORSDOF 7
ENDMDL
