REMARK  Name = 11912767
REMARK  5 active torsions:
REMARK  status: ('A' for Active; 'I' for Inactive)
REMARK    1  A    between atoms: O_3  and  C_14
REMARK    2  A    between atoms: O_3  and  C_18
REMARK    3  A    between atoms: N_7  and  C_13
REMARK    4  A    between atoms: N_10  and  C_23
REMARK    5  A    between atoms: C_19  and  C_22
REMARK                            x       y       z     vdW  Elec       q    Type
REMARK                         _______ _______ _______ _____ _____    ______ ____
ROOT
ATOM      1  O   UNL     1       2.191  -0.211   1.573  0.00  0.00    -0.368 OA
ATOM      2  O   UNL     1       0.180   1.901   0.618  0.00  0.00    -0.368 OA
ATOM     11  C   UNL     1       0.308   0.495   0.315  0.00  0.00    +0.173 C 
ATOM     12  C   UNL     1       1.792   0.194   0.253  0.00  0.00    +0.192 C 
ATOM     13  C   UNL     1      -0.184  -0.332   1.480  0.00  0.00    +0.130 C 
ATOM     14  C   UNL     1       2.383   1.532  -0.124  0.00  0.00    +0.235 C 
ATOM     15  C   UNL     1       1.025  -0.348   2.400  0.00  0.00    +0.185 C 
ATOM     16  C   UNL     1       1.486   2.496   0.619  0.00  0.00    +0.207 C 
ENDROOT
BRANCH  13   7
ATOM      7  N   UNL     1      -0.501  -1.675   1.044  0.00  0.00    -0.306 N 
ATOM      8  N   UNL     1      -2.669  -1.067   0.383  0.00  0.00    -0.214 NA
ATOM      9  N   UNL     1      -1.888  -3.333   0.132  0.00  0.00    -0.223 NA
ATOM     17  C   UNL     1      -1.722  -2.036   0.503  0.00  0.00    +0.216 A 
ATOM     19  C   UNL     1      -3.847  -1.454  -0.148  0.00  0.00    +0.076 A 
ATOM     20  C   UNL     1      -3.091  -3.651  -0.391  0.00  0.00    +0.116 A 
ATOM     21  C   UNL     1      -4.118  -2.744  -0.557  0.00  0.00    +0.048 A 
ATOM     35  H   UNL     1       0.215  -2.392   1.080  0.00  0.00    +0.149 HD
BRANCH  19  22
ATOM      5  O   UNL     1      -8.461   0.184  -0.258  0.00  0.00    -0.453 OA
ATOM      6  O   UNL     1      -7.756   2.463  -0.595  0.00  0.00    -0.453 OA
ATOM     22  C   UNL     1      -4.837  -0.411  -0.268  0.00  0.00    +0.004 A 
ATOM     24  C   UNL     1      -6.198  -0.728  -0.187  0.00  0.00    +0.059 A 
ATOM     25  C   UNL     1      -4.429   0.922  -0.465  0.00  0.00    +0.014 A 
ATOM     26  C   UNL     1      -7.106   0.303  -0.308  0.00  0.00    +0.167 A 
ATOM     29  C   UNL     1      -6.704   1.605  -0.501  0.00  0.00    +0.166 A 
ATOM     30  C   UNL     1      -5.370   1.948  -0.584  0.00  0.00    +0.050 A 
ATOM     31  C   UNL     1      -8.866   1.556  -0.440  0.00  0.00    +0.466 C 
ENDBRANCH  19  22
ENDBRANCH  13   7
BRANCH  14   3
ATOM      3  O   UNL     1       3.736   1.674   0.246  0.00  0.00    -0.442 OA
BRANCH   3  18
ATOM      4  O   UNL     1       4.302  -0.043  -1.154  0.00  0.00    -0.226 OA
ATOM     10  N   UNL     1       5.909   1.084   0.122  0.00  0.00    -0.251 N 
ATOM     18  C   UNL     1       4.637   0.813  -0.344  0.00  0.00    +0.405 C 
ATOM     36  H   UNL     1       5.987   1.841   0.797  0.00  0.00    +0.158 HD
BRANCH  10  23
ATOM     23  C   UNL     1       7.119   0.440  -0.224  0.00  0.00    +0.036 A 
ATOM     27  C   UNL     1       8.303   0.862   0.358  0.00  0.00    +0.023 A 
ATOM     28  C   UNL     1       7.097  -0.602  -1.137  0.00  0.00    +0.023 A 
ATOM     32  C   UNL     1       9.497   0.226   0.018  0.00  0.00    +0.002 A 
ATOM     33  C   UNL     1       8.290  -1.238  -1.478  0.00  0.00    +0.002 A 
ATOM     34  C   UNL     1       9.491  -0.824  -0.900  0.00  0.00    +0.000 A 
ENDBRANCH  10  23
ENDBRANCH   3  18
ENDBRANCH  14   3
TORSDOF 5
