MODEL 1
REMARK VINA RESULT:      -7.3      0.000      0.000
REMARK  Name = 11866364
REMARK  13 active torsions:
REMARK  status: ('A' for Active; 'I' for Inactive)
REMARK    1  A    between atoms: O_1  and  C_11
REMARK    2  A    between atoms: O_2  and  C_14
REMARK    3  A    between atoms: O_3  and  C_16
REMARK    4  A    between atoms: N_7  and  C_12
REMARK    5  A    between atoms: N_8  and  C_18
REMARK    6  A    between atoms: N_10  and  C_20
REMARK    7  A    between atoms: N_10  and  C_29
REMARK    8  A    between atoms: C_11  and  C_17
REMARK    9  A    between atoms: C_19  and  C_20
REMARK   10  A    between atoms: C_20  and  C_22
REMARK   11  A    between atoms: C_22  and  C_25
REMARK   12  A    between atoms: C_25  and  C_27
REMARK   13  A    between atoms: C_25  and  C_28
REMARK                            x       y       z     vdW  Elec       q    Type
REMARK                         _______ _______ _______ _____ _____    ______ ____
ROOT
ATOM     11  C   UNL     1      13.736   8.360  20.229  0.00  0.00    +0.146 C 
ATOM     12  C   UNL     1      11.925   9.375  21.695  0.00  0.00    +0.107 C 
ATOM     13  C   UNL     1      13.395   9.432  21.265  0.00  0.00    +0.069 C 
ATOM     14  C   UNL     1      11.523   7.973  22.171  0.00  0.00    +0.163 C 
ATOM     15  C   UNL     1      13.350   6.967  20.724  0.00  0.00    +0.078 C 
ATOM     16  C   UNL     1      11.882   6.894  21.146  0.00  0.00    +0.148 C 
ENDROOT
BRANCH  11  17
ATOM      4  O   UNL     1      15.718   9.395  19.389  0.00  0.00    -0.273 OA
ATOM      8  N   UNL     1      15.835   7.206  20.173  0.00  0.00    -0.302 N 
ATOM     17  C   UNL     1      15.196   8.401  19.885  0.00  0.00    +0.245 C 
ATOM     32  H   UNL     1      15.315   6.439  20.586  0.00  0.00    +0.150 HD
BRANCH   8  18
ATOM      6  O   UNL     1      16.518   5.607  18.064  0.00  0.00    -0.274 OA
ATOM      9  N   UNL     1      18.498   5.045  19.054  0.00  0.00    -0.314 N 
ATOM     18  C   UNL     1      17.234   6.980  19.916  0.00  0.00    +0.159 C 
ATOM     21  C   UNL     1      18.003   6.801  21.218  0.00  0.00    +0.033 C 
ATOM     23  C   UNL     1      19.435   6.392  20.914  0.00  0.00    +0.021 C 
ATOM     24  C   UNL     1      17.351   5.804  18.953  0.00  0.00    +0.233 C 
ATOM     26  C   UNL     1      19.424   5.067  20.173  0.00  0.00    +0.104 C 
ATOM     35  H   UNL     1      18.614   4.295  18.380  0.00  0.00    +0.149 HD
ENDBRANCH   8  18
ENDBRANCH  11  17
BRANCH  12   7
ATOM      5  O   UNL     1      11.347  12.180  21.336  0.00  0.00    -0.274 OA
ATOM      7  N   UNL     1      11.680  10.354  22.731  0.00  0.00    -0.309 N 
ATOM     19  C   UNL     1      11.409  11.687  22.460  0.00  0.00    +0.230 C 
ATOM     30  H   UNL     1      11.763  10.052  23.697  0.00  0.00    +0.149 HD
BRANCH  19  20
ATOM     20  C   UNL     1      11.222  12.514  23.728  0.00  0.00    +0.140 C 
BRANCH  20  10
ATOM     10  N   UNL     1       9.785  12.782  23.817  0.00  0.00    -0.309 NA
ATOM     29  C   UNL     1       9.518  14.202  23.653  0.00  0.00    +0.101 C 
ATOM     36  H   UNL     1       9.267  12.233  23.134  0.00  0.00    +0.122 HD
ENDBRANCH  20  10
BRANCH  20  22
ATOM     22  C   UNL     1      11.699  11.770  24.987  0.00  0.00    +0.031 C 
BRANCH  22  25
ATOM     25  C   UNL     1      12.954  12.376  25.651  0.00  0.00    -0.015 C 
ATOM     27  C   UNL     1      13.008  13.881  25.375  0.00  0.00    +0.007 C 
ATOM     28  C   UNL     1      14.248  11.717  25.169  0.00  0.00    +0.007 C 
ENDBRANCH  22  25
ENDBRANCH  20  22
ENDBRANCH  19  20
ENDBRANCH  12   7
BRANCH  11   1
ATOM      1  O   UNL     1      13.062   8.621  19.002  0.00  0.00    -0.379 OA
ATOM     31  H   UNL     1      12.126   8.796  19.200  0.00  0.00    +0.211 HD
ENDBRANCH  11   1
BRANCH  14   2
ATOM      2  O   UNL     1      10.107   7.932  22.364  0.00  0.00    -0.387 OA
ATOM     33  H   UNL     1       9.718   8.693  21.901  0.00  0.00    +0.210 HD
ENDBRANCH  14   2
BRANCH  16   3
ATOM      3  O   UNL     1      11.635   5.614  21.731  0.00  0.00    -0.389 OA
ATOM     34  H   UNL     1      10.773   5.304  21.405  0.00  0.00    +0.210 HD
ENDBRANCH  16   3
TORSDOF 10
ENDMDL
MODEL 2
REMARK VINA RESULT:      -7.1      1.441      2.122
REMARK  Name = 11866364
REMARK  13 active torsions:
REMARK  status: ('A' for Active; 'I' for Inactive)
REMARK    1  A    between atoms: O_1  and  C_11
REMARK    2  A    between atoms: O_2  and  C_14
REMARK    3  A    between atoms: O_3  and  C_16
REMARK    4  A    between atoms: N_7  and  C_12
REMARK    5  A    between atoms: N_8  and  C_18
REMARK    6  A    between atoms: N_10  and  C_20
REMARK    7  A    between atoms: N_10  and  C_29
REMARK    8  A    between atoms: C_11  and  C_17
REMARK    9  A    between atoms: C_19  and  C_20
REMARK   10  A    between atoms: C_20  and  C_22
REMARK   11  A    between atoms: C_22  and  C_25
REMARK   12  A    between atoms: C_25  and  C_27
REMARK   13  A    between atoms: C_25  and  C_28
REMARK                            x       y       z     vdW  Elec       q    Type
REMARK                         _______ _______ _______ _____ _____    ______ ____
ROOT
ATOM     11  C   UNL     1      13.040   7.892  19.883  0.00  0.00    +0.146 C 
ATOM     12  C   UNL     1      11.013   8.774  21.137  0.00  0.00    +0.107 C 
ATOM     13  C   UNL     1      12.447   9.057  20.679  0.00  0.00    +0.069 C 
ATOM     14  C   UNL     1      10.909   7.448  21.903  0.00  0.00    +0.163 C 
ATOM     15  C   UNL     1      12.950   6.583  20.665  0.00  0.00    +0.078 C 
ATOM     16  C   UNL     1      11.520   6.283  21.120  0.00  0.00    +0.148 C 
ENDROOT
BRANCH  11  17
ATOM      4  O   UNL     1      14.760   8.978  18.632  0.00  0.00    -0.273 OA
ATOM      8  N   UNL     1      15.360   7.422  20.256  0.00  0.00    -0.302 N 
ATOM     17  C   UNL     1      14.467   8.176  19.513  0.00  0.00    +0.245 C 
ATOM     32  H   UNL     1      15.017   6.783  20.966  0.00  0.00    +0.150 HD
BRANCH   8  18
ATOM      6  O   UNL     1      16.543   5.607  18.588  0.00  0.00    -0.274 OA
ATOM      9  N   UNL     1      18.525   5.781  19.709  0.00  0.00    -0.314 N 
ATOM     18  C   UNL     1      16.787   7.491  20.077  0.00  0.00    +0.159 C 
ATOM     21  C   UNL     1      17.484   7.801  21.395  0.00  0.00    +0.033 C 
ATOM     23  C   UNL     1      18.990   7.695  21.214  0.00  0.00    +0.021 C 
ATOM     24  C   UNL     1      17.242   6.195  19.417  0.00  0.00    +0.233 C 
ATOM     26  C   UNL     1      19.340   6.277  20.803  0.00  0.00    +0.104 C 
ATOM     35  H   UNL     1      18.860   4.950  19.230  0.00  0.00    +0.149 HD
ENDBRANCH   8  18
ENDBRANCH  11  17
BRANCH  12   7
ATOM      5  O   UNL     1      12.534  10.328  23.035  0.00  0.00    -0.274 OA
ATOM      7  N   UNL     1      10.533   9.870  21.950  0.00  0.00    -0.309 N 
ATOM     19  C   UNL     1      11.343  10.561  22.839  0.00  0.00    +0.230 C 
ATOM     30  H   UNL     1       9.545  10.101  21.897  0.00  0.00    +0.149 HD
BRANCH  19  20
ATOM     20  C   UNL     1      10.586  11.646  23.596  0.00  0.00    +0.140 C 
BRANCH  20  10
ATOM     10  N   UNL     1      10.918  11.447  25.009  0.00  0.00    -0.309 NA
ATOM     29  C   UNL     1      10.939  12.719  25.714  0.00  0.00    +0.101 C 
ATOM     36  H   UNL     1      10.270  10.797  25.450  0.00  0.00    +0.122 HD
ENDBRANCH  20  10
BRANCH  20  22
ATOM     22  C   UNL     1      10.994  13.062  23.152  0.00  0.00    +0.031 C 
BRANCH  22  25
ATOM     25  C   UNL     1      10.870  13.317  21.635  0.00  0.00    -0.015 C 
ATOM     27  C   UNL     1      12.265  13.469  21.022  0.00  0.00    +0.007 C 
ATOM     28  C   UNL     1      10.030  14.556  21.317  0.00  0.00    +0.007 C 
ENDBRANCH  22  25
ENDBRANCH  20  22
ENDBRANCH  19  20
ENDBRANCH  12   7
BRANCH  11   1
ATOM      1  O   UNL     1      12.361   7.741  18.642  0.00  0.00    -0.379 OA
ATOM     31  H   UNL     1      11.429   7.988  18.772  0.00  0.00    +0.211 HD
ENDBRANCH  11   1
BRANCH  14   2
ATOM      2  O   UNL     1       9.530   7.142  22.126  0.00  0.00    -0.387 OA
ATOM     33  H   UNL     1       9.110   7.922  22.529  0.00  0.00    +0.210 HD
ENDBRANCH  14   2
BRANCH  16   3
ATOM      3  O   UNL     1      11.538   5.131  21.963  0.00  0.00    -0.389 OA
ATOM     34  H   UNL     1      11.280   5.416  22.856  0.00  0.00    +0.210 HD
ENDBRANCH  16   3
TORSDOF 10
ENDMDL
MODEL 3
REMARK VINA RESULT:      -6.4     26.369     28.515
REMARK  Name = 11866364
REMARK  13 active torsions:
REMARK  status: ('A' for Active; 'I' for Inactive)
REMARK    1  A    between atoms: O_1  and  C_11
REMARK    2  A    between atoms: O_2  and  C_14
REMARK    3  A    between atoms: O_3  and  C_16
REMARK    4  A    between atoms: N_7  and  C_12
REMARK    5  A    between atoms: N_8  and  C_18
REMARK    6  A    between atoms: N_10  and  C_20
REMARK    7  A    between atoms: N_10  and  C_29
REMARK    8  A    between atoms: C_11  and  C_17
REMARK    9  A    between atoms: C_19  and  C_20
REMARK   10  A    between atoms: C_20  and  C_22
REMARK   11  A    between atoms: C_22  and  C_25
REMARK   12  A    between atoms: C_25  and  C_27
REMARK   13  A    between atoms: C_25  and  C_28
REMARK                            x       y       z     vdW  Elec       q    Type
REMARK                         _______ _______ _______ _____ _____    ______ ____
ROOT
ATOM     11  C   UNL     1      -2.684 -10.898  13.019  0.00  0.00    +0.146 C 
ATOM     12  C   UNL     1      -4.051 -11.175  15.143  0.00  0.00    +0.107 C 
ATOM     13  C   UNL     1      -4.019 -10.623  13.714  0.00  0.00    +0.069 C 
ATOM     14  C   UNL     1      -2.860 -10.678  15.974  0.00  0.00    +0.163 C 
ATOM     15  C   UNL     1      -1.510 -10.379  13.846  0.00  0.00    +0.078 C 
ATOM     16  C   UNL     1      -1.524 -10.931  15.272  0.00  0.00    +0.148 C 
ENDROOT
BRANCH  11  17
ATOM      4  O   UNL     1      -1.716  -9.612  11.254  0.00  0.00    -0.273 OA
ATOM      8  N   UNL     1      -3.823 -10.547  10.940  0.00  0.00    -0.302 N 
ATOM     17  C   UNL     1      -2.664 -10.282  11.650  0.00  0.00    +0.245 C 
ATOM     32  H   UNL     1      -4.555 -11.116  11.355  0.00  0.00    +0.150 HD
BRANCH   8  18
ATOM      6  O   UNL     1      -4.952  -8.072  10.668  0.00  0.00    -0.274 OA
ATOM      9  N   UNL     1      -5.824  -8.628   8.632  0.00  0.00    -0.314 N 
ATOM     18  C   UNL     1      -4.063 -10.051   9.610  0.00  0.00    +0.159 C 
ATOM     21  C   UNL     1      -4.566 -11.162   8.699  0.00  0.00    +0.033 C 
ATOM     23  C   UNL     1      -4.975 -10.577   7.357  0.00  0.00    +0.021 C 
ATOM     24  C   UNL     1      -5.001  -8.854   9.716  0.00  0.00    +0.233 C 
ATOM     26  C   UNL     1      -6.100  -9.582   7.573  0.00  0.00    +0.104 C 
ATOM     35  H   UNL     1      -6.412  -7.801   8.667  0.00  0.00    +0.149 HD
ENDBRANCH   8  18
ENDBRANCH  11  17
BRANCH  12   7
ATOM      5  O   UNL     1      -5.617 -12.802  16.941  0.00  0.00    -0.274 OA
ATOM      7  N   UNL     1      -5.300 -10.817  15.779  0.00  0.00    -0.309 N 
ATOM     19  C   UNL     1      -5.984 -11.670  16.632  0.00  0.00    +0.230 C 
ATOM     30  H   UNL     1      -5.711  -9.919  15.541  0.00  0.00    +0.149 HD
BRANCH  19  20
ATOM     20  C   UNL     1      -7.289 -11.066  17.139  0.00  0.00    +0.140 C 
BRANCH  20  10
ATOM     10  N   UNL     1      -7.340 -11.380  18.569  0.00  0.00    -0.309 NA
ATOM     29  C   UNL     1      -6.533 -10.439  19.329  0.00  0.00    +0.101 C 
ATOM     36  H   UNL     1      -8.300 -11.393  18.908  0.00  0.00    +0.122 HD
ENDBRANCH  20  10
BRANCH  20  22
ATOM     22  C   UNL     1      -7.348  -9.543  16.931  0.00  0.00    +0.031 C 
BRANCH  22  25
ATOM     25  C   UNL     1      -8.653  -9.036  16.281  0.00  0.00    -0.015 C 
ATOM     27  C   UNL     1      -9.492  -8.290  17.324  0.00  0.00    +0.007 C 
ATOM     28  C   UNL     1      -9.480 -10.168  15.669  0.00  0.00    +0.007 C 
ENDBRANCH  22  25
ENDBRANCH  20  22
ENDBRANCH  19  20
ENDBRANCH  12   7
BRANCH  11   1
ATOM      1  O   UNL     1      -2.517 -12.293  12.797  0.00  0.00    -0.379 OA
ATOM     31  H   UNL     1      -1.686 -12.427  12.310  0.00  0.00    +0.211 HD
ENDBRANCH  11   1
BRANCH  14   2
ATOM      2  O   UNL     1      -2.834 -11.379  17.221  0.00  0.00    -0.387 OA
ATOM     33  H   UNL     1      -2.010 -11.143  17.681  0.00  0.00    +0.210 HD
ENDBRANCH  14   2
BRANCH  16   3
ATOM      3  O   UNL     1      -0.490 -10.292  16.023  0.00  0.00    -0.389 OA
ATOM     34  H   UNL     1       0.134 -10.981  16.308  0.00  0.00    +0.210 HD
ENDBRANCH  16   3
TORSDOF 10
ENDMDL
MODEL 4
REMARK VINA RESULT:      -6.4      4.480      8.378
REMARK  Name = 11866364
REMARK  13 active torsions:
REMARK  status: ('A' for Active; 'I' for Inactive)
REMARK    1  A    between atoms: O_1  and  C_11
REMARK    2  A    between atoms: O_2  and  C_14
REMARK    3  A    between atoms: O_3  and  C_16
REMARK    4  A    between atoms: N_7  and  C_12
REMARK    5  A    between atoms: N_8  and  C_18
REMARK    6  A    between atoms: N_10  and  C_20
REMARK    7  A    between atoms: N_10  and  C_29
REMARK    8  A    between atoms: C_11  and  C_17
REMARK    9  A    between atoms: C_19  and  C_20
REMARK   10  A    between atoms: C_20  and  C_22
REMARK   11  A    between atoms: C_22  and  C_25
REMARK   12  A    between atoms: C_25  and  C_27
REMARK   13  A    between atoms: C_25  and  C_28
REMARK                            x       y       z     vdW  Elec       q    Type
REMARK                         _______ _______ _______ _____ _____    ______ ____
ROOT
ATOM     11  C   UNL     1      13.085   8.768  19.287  0.00  0.00    +0.146 C 
ATOM     12  C   UNL     1      13.764   9.508  16.953  0.00  0.00    +0.107 C 
ATOM     13  C   UNL     1      13.864   9.789  18.456  0.00  0.00    +0.069 C 
ATOM     14  C   UNL     1      12.307   9.388  16.489  0.00  0.00    +0.163 C 
ATOM     15  C   UNL     1      11.630   8.674  18.829  0.00  0.00    +0.078 C 
ATOM     16  C   UNL     1      11.517   8.383  17.332  0.00  0.00    +0.148 C 
ENDROOT
BRANCH  11  17
ATOM      4  O   UNL     1      13.785   8.440  21.547  0.00  0.00    -0.273 OA
ATOM      8  N   UNL     1      12.396  10.239  21.048  0.00  0.00    -0.302 N 
ATOM     17  C   UNL     1      13.146   9.115  20.746  0.00  0.00    +0.245 C 
ATOM     32  H   UNL     1      11.901  10.733  20.312  0.00  0.00    +0.150 HD
BRANCH   8  18
ATOM      6  O   UNL     1      10.301   9.389  22.584  0.00  0.00    -0.274 OA
ATOM      9  N   UNL     1      10.333  11.320  23.803  0.00  0.00    -0.314 N 
ATOM     18  C   UNL     1      12.272  10.768  22.382  0.00  0.00    +0.159 C 
ATOM     21  C   UNL     1      12.616  12.251  22.413  0.00  0.00    +0.033 C 
ATOM     23  C   UNL     1      12.309  12.818  23.789  0.00  0.00    +0.021 C 
ATOM     24  C   UNL     1      10.873  10.438  22.890  0.00  0.00    +0.233 C 
ATOM     26  C   UNL     1      10.826  12.660  24.070  0.00  0.00    +0.104 C 
ATOM     35  H   UNL     1       9.426  11.081  24.192  0.00  0.00    +0.149 HD
ENDBRANCH   8  18
ENDBRANCH  11  17
BRANCH  12   7
ATOM      5  O   UNL     1      15.150   9.229  14.436  0.00  0.00    -0.274 OA
ATOM      7  N   UNL     1      14.449  10.547  16.215  0.00  0.00    -0.309 N 
ATOM     19  C   UNL     1      15.091  10.316  15.007  0.00  0.00    +0.230 C 
ATOM     30  H   UNL     1      14.501  11.470  16.635  0.00  0.00    +0.149 HD
BRANCH  19  20
ATOM     20  C   UNL     1      15.763  11.568  14.454  0.00  0.00    +0.140 C 
BRANCH  20  10
ATOM     10  N   UNL     1      17.178  11.222  14.300  0.00  0.00    -0.309 NA
ATOM     29  C   UNL     1      18.021  12.210  14.955  0.00  0.00    +0.101 C 
ATOM     36  H   UNL     1      17.367  10.287  14.657  0.00  0.00    +0.122 HD
ENDBRANCH  20  10
BRANCH  20  22
ATOM     22  C   UNL     1      15.175  11.998  13.099  0.00  0.00    +0.031 C 
BRANCH  22  25
ATOM     25  C   UNL     1      14.041  13.041  13.196  0.00  0.00    -0.015 C 
ATOM     27  C   UNL     1      14.216  13.876  14.468  0.00  0.00    +0.007 C 
ATOM     28  C   UNL     1      12.652  12.399  13.189  0.00  0.00    +0.007 C 
ENDBRANCH  22  25
ENDBRANCH  20  22
ENDBRANCH  19  20
ENDBRANCH  12   7
BRANCH  11   1
ATOM      1  O   UNL     1      13.688   7.483  19.189  0.00  0.00    -0.379 OA
ATOM     31  H   UNL     1      13.255   6.997  18.467  0.00  0.00    +0.211 HD
ENDBRANCH  11   1
BRANCH  14   2
ATOM      2  O   UNL     1      12.282   8.930  15.135  0.00  0.00    -0.387 OA
ATOM     33  H   UNL     1      11.881   8.044  15.124  0.00  0.00    +0.210 HD
ENDBRANCH  14   2
BRANCH  16   3
ATOM      3  O   UNL     1      10.142   8.455  16.952  0.00  0.00    -0.389 OA
ATOM     34  H   UNL     1       9.709   9.100  17.537  0.00  0.00    +0.210 HD
ENDBRANCH  16   3
TORSDOF 10
ENDMDL
MODEL 5
REMARK VINA RESULT:      -6.4      3.176      4.549
REMARK  Name = 11866364
REMARK  13 active torsions:
REMARK  status: ('A' for Active; 'I' for Inactive)
REMARK    1  A    between atoms: O_1  and  C_11
REMARK    2  A    between atoms: O_2  and  C_14
REMARK    3  A    between atoms: O_3  and  C_16
REMARK    4  A    between atoms: N_7  and  C_12
REMARK    5  A    between atoms: N_8  and  C_18
REMARK    6  A    between atoms: N_10  and  C_20
REMARK    7  A    between atoms: N_10  and  C_29
REMARK    8  A    between atoms: C_11  and  C_17
REMARK    9  A    between atoms: C_19  and  C_20
REMARK   10  A    between atoms: C_20  and  C_22
REMARK   11  A    between atoms: C_22  and  C_25
REMARK   12  A    between atoms: C_25  and  C_27
REMARK   13  A    between atoms: C_25  and  C_28
REMARK                            x       y       z     vdW  Elec       q    Type
REMARK                         _______ _______ _______ _____ _____    ______ ____
ROOT
ATOM     11  C   UNL     1      12.416   8.388  19.340  0.00  0.00    +0.146 C 
ATOM     12  C   UNL     1      10.855   9.051  21.233  0.00  0.00    +0.107 C 
ATOM     13  C   UNL     1      12.054   9.460  20.371  0.00  0.00    +0.069 C 
ATOM     14  C   UNL     1      11.062   7.678  21.885  0.00  0.00    +0.163 C 
ATOM     15  C   UNL     1      12.640   7.032  20.004  0.00  0.00    +0.078 C 
ATOM     16  C   UNL     1      11.445   6.607  20.860  0.00  0.00    +0.148 C 
ENDROOT
BRANCH  11  17
ATOM      4  O   UNL     1      14.686   8.161  18.632  0.00  0.00    -0.273 OA
ATOM      8  N   UNL     1      13.423   9.935  17.813  0.00  0.00    -0.302 N 
ATOM     17  C   UNL     1      13.635   8.792  18.563  0.00  0.00    +0.245 C 
ATOM     32  H   UNL     1      12.514  10.387  17.820  0.00  0.00    +0.150 HD
BRANCH   8  18
ATOM      6  O   UNL     1      13.841  12.626  18.055  0.00  0.00    -0.274 OA
ATOM      9  N   UNL     1      14.649  12.753  15.923  0.00  0.00    -0.314 N 
ATOM     18  C   UNL     1      14.442  10.542  16.996  0.00  0.00    +0.159 C 
ATOM     21  C   UNL     1      14.437   9.950  15.593  0.00  0.00    +0.033 C 
ATOM     23  C   UNL     1      15.399  10.726  14.708  0.00  0.00    +0.021 C 
ATOM     24  C   UNL     1      14.243  12.053  17.040  0.00  0.00    +0.233 C 
ATOM     26  C   UNL     1      14.940  12.170  14.625  0.00  0.00    +0.104 C 
ATOM     35  H   UNL     1      14.575  13.765  15.963  0.00  0.00    +0.149 HD
ENDBRANCH   8  18
ENDBRANCH  11  17
BRANCH  12   7
ATOM      5  O   UNL     1      12.812  10.347  22.912  0.00  0.00    -0.274 OA
ATOM      7  N   UNL     1      10.609  10.060  22.239  0.00  0.00    -0.309 N 
ATOM     19  C   UNL     1      11.619  10.628  23.001  0.00  0.00    +0.230 C 
ATOM     30  H   UNL     1       9.644  10.320  22.423  0.00  0.00    +0.149 HD
BRANCH  19  20
ATOM     20  C   UNL     1      11.090  11.640  24.012  0.00  0.00    +0.140 C 
BRANCH  20  10
ATOM     10  N   UNL     1      11.830  11.386  25.250  0.00  0.00    -0.309 NA
ATOM     29  C   UNL     1      12.621  12.549  25.620  0.00  0.00    +0.101 C 
ATOM     36  H   UNL     1      11.202  11.117  26.004  0.00  0.00    +0.122 HD
ENDBRANCH  20  10
BRANCH  20  22
ATOM     22  C   UNL     1      11.309  13.092  23.554  0.00  0.00    +0.031 C 
BRANCH  22  25
ATOM     25  C   UNL     1      10.010  13.886  23.301  0.00  0.00    -0.015 C 
ATOM     27  C   UNL     1       9.926  14.282  21.824  0.00  0.00    +0.007 C 
ATOM     28  C   UNL     1       9.908  15.138  24.176  0.00  0.00    +0.007 C 
ENDBRANCH  22  25
ENDBRANCH  20  22
ENDBRANCH  19  20
ENDBRANCH  12   7
BRANCH  11   1
ATOM      1  O   UNL     1      11.384   8.265  18.367  0.00  0.00    -0.379 OA
ATOM     31  H   UNL     1      10.532   8.440  18.802  0.00  0.00    +0.211 HD
ENDBRANCH  11   1
BRANCH  14   2
ATOM      2  O   UNL     1       9.841   7.265  22.505  0.00  0.00    -0.387 OA
ATOM     33  H   UNL     1       9.785   6.296  22.443  0.00  0.00    +0.210 HD
ENDBRANCH  14   2
BRANCH  16   3
ATOM      3  O   UNL     1      11.784   5.410  21.562  0.00  0.00    -0.389 OA
ATOM     34  H   UNL     1      11.774   4.680  20.919  0.00  0.00    +0.210 HD
ENDBRANCH  16   3
TORSDOF 10
ENDMDL
MODEL 6
REMARK VINA RESULT:      -6.3      4.390      8.340
REMARK  Name = 11866364
REMARK  13 active torsions:
REMARK  status: ('A' for Active; 'I' for Inactive)
REMARK    1  A    between atoms: O_1  and  C_11
REMARK    2  A    between atoms: O_2  and  C_14
REMARK    3  A    between atoms: O_3  and  C_16
REMARK    4  A    between atoms: N_7  and  C_12
REMARK    5  A    between atoms: N_8  and  C_18
REMARK    6  A    between atoms: N_10  and  C_20
REMARK    7  A    between atoms: N_10  and  C_29
REMARK    8  A    between atoms: C_11  and  C_17
REMARK    9  A    between atoms: C_19  and  C_20
REMARK   10  A    between atoms: C_20  and  C_22
REMARK   11  A    between atoms: C_22  and  C_25
REMARK   12  A    between atoms: C_25  and  C_27
REMARK   13  A    between atoms: C_25  and  C_28
REMARK                            x       y       z     vdW  Elec       q    Type
REMARK                         _______ _______ _______ _____ _____    ______ ____
ROOT
ATOM     11  C   UNL     1      15.794   7.278  20.223  0.00  0.00    +0.146 C 
ATOM     12  C   UNL     1      18.115   7.079  21.239  0.00  0.00    +0.107 C 
ATOM     13  C   UNL     1      16.930   8.005  20.947  0.00  0.00    +0.069 C 
ATOM     14  C   UNL     1      18.609   6.366  19.973  0.00  0.00    +0.163 C 
ATOM     15  C   UNL     1      16.295   6.592  18.954  0.00  0.00    +0.078 C 
ATOM     16  C   UNL     1      17.472   5.656  19.233  0.00  0.00    +0.148 C 
ENDROOT
BRANCH  11  17
ATOM      4  O   UNL     1      14.290   9.073  20.694  0.00  0.00    -0.273 OA
ATOM      8  N   UNL     1      14.174   8.021  18.621  0.00  0.00    -0.302 N 
ATOM     17  C   UNL     1      14.683   8.232  19.891  0.00  0.00    +0.245 C 
ATOM     32  H   UNL     1      14.570   7.297  18.029  0.00  0.00    +0.150 HD
BRANCH   8  18
ATOM      6  O   UNL     1      11.642   7.489  19.503  0.00  0.00    -0.274 OA
ATOM      9  N   UNL     1      10.738   8.249  17.548  0.00  0.00    -0.314 N 
ATOM     18  C   UNL     1      13.087   8.788  18.071  0.00  0.00    +0.159 C 
ATOM     21  C   UNL     1      13.284   9.015  16.578  0.00  0.00    +0.033 C 
ATOM     23  C   UNL     1      12.044   9.671  15.993  0.00  0.00    +0.021 C 
ATOM     24  C   UNL     1      11.784   8.083  18.432  0.00  0.00    +0.233 C 
ATOM     26  C   UNL     1      10.856   8.748  16.190  0.00  0.00    +0.104 C 
ATOM     35  H   UNL     1       9.849   7.833  17.807  0.00  0.00    +0.149 HD
ENDBRANCH   8  18
ENDBRANCH  11  17
BRANCH  12   7
ATOM      5  O   UNL     1      19.932   6.174  23.291  0.00  0.00    -0.274 OA
ATOM      7  N   UNL     1      19.187   7.834  21.849  0.00  0.00    -0.309 N 
ATOM     19  C   UNL     1      20.013   7.312  22.834  0.00  0.00    +0.230 C 
ATOM     30  H   UNL     1      19.298   8.805  21.574  0.00  0.00    +0.149 HD
BRANCH  19  20
ATOM     20  C   UNL     1      21.039   8.323  23.333  0.00  0.00    +0.140 C 
BRANCH  20  10
ATOM     10  N   UNL     1      22.166   7.530  23.830  0.00  0.00    -0.309 NA
ATOM     29  C   UNL     1      22.470   7.883  25.208  0.00  0.00    +0.101 C 
ATOM     36  H   UNL     1      21.979   6.533  23.742  0.00  0.00    +0.122 HD
ENDBRANCH  20  10
BRANCH  20  22
ATOM     22  C   UNL     1      21.513   9.272  22.219  0.00  0.00    +0.031 C 
BRANCH  22  25
ATOM     25  C   UNL     1      22.743   8.771  21.432  0.00  0.00    -0.015 C 
ATOM     27  C   UNL     1      23.749   9.914  21.265  0.00  0.00    +0.007 C 
ATOM     28  C   UNL     1      22.370   8.209  20.059  0.00  0.00    +0.007 C 
ENDBRANCH  22  25
ENDBRANCH  20  22
ENDBRANCH  19  20
ENDBRANCH  12   7
BRANCH  11   1
ATOM      1  O   UNL     1      15.202   6.305  21.076  0.00  0.00    -0.379 OA
ATOM     31  H   UNL     1      14.236   6.378  20.997  0.00  0.00    +0.211 HD
ENDBRANCH  11   1
BRANCH  14   2
ATOM      2  O   UNL     1      19.572   5.375  20.339  0.00  0.00    -0.387 OA
ATOM     33  H   UNL     1      19.977   5.645  21.181  0.00  0.00    +0.210 HD
ENDBRANCH  14   2
BRANCH  16   3
ATOM      3  O   UNL     1      17.977   5.168  17.989  0.00  0.00    -0.389 OA
ATOM     34  H   UNL     1      18.887   5.496  17.893  0.00  0.00    +0.210 HD
ENDBRANCH  16   3
TORSDOF 10
ENDMDL
MODEL 7
REMARK VINA RESULT:      -6.2      3.270      8.331
REMARK  Name = 11866364
REMARK  13 active torsions:
REMARK  status: ('A' for Active; 'I' for Inactive)
REMARK    1  A    between atoms: O_1  and  C_11
REMARK    2  A    between atoms: O_2  and  C_14
REMARK    3  A    between atoms: O_3  and  C_16
REMARK    4  A    between atoms: N_7  and  C_12
REMARK    5  A    between atoms: N_8  and  C_18
REMARK    6  A    between atoms: N_10  and  C_20
REMARK    7  A    between atoms: N_10  and  C_29
REMARK    8  A    between atoms: C_11  and  C_17
REMARK    9  A    between atoms: C_19  and  C_20
REMARK   10  A    between atoms: C_20  and  C_22
REMARK   11  A    between atoms: C_22  and  C_25
REMARK   12  A    between atoms: C_25  and  C_27
REMARK   13  A    between atoms: C_25  and  C_28
REMARK                            x       y       z     vdW  Elec       q    Type
REMARK                         _______ _______ _______ _____ _____    ______ ____
ROOT
ATOM     11  C   UNL     1      15.634   6.973  20.487  0.00  0.00    +0.146 C 
ATOM     12  C   UNL     1      18.040   6.889  21.300  0.00  0.00    +0.107 C 
ATOM     13  C   UNL     1      16.760   7.726  21.198  0.00  0.00    +0.069 C 
ATOM     14  C   UNL     1      18.484   6.357  19.931  0.00  0.00    +0.163 C 
ATOM     15  C   UNL     1      16.083   6.467  19.117  0.00  0.00    +0.078 C 
ATOM     16  C   UNL     1      17.354   5.622  19.206  0.00  0.00    +0.148 C 
ENDROOT
BRANCH  11  17
ATOM      4  O   UNL     1      13.913   8.075  19.250  0.00  0.00    -0.273 OA
ATOM      8  N   UNL     1      13.995   8.353  21.559  0.00  0.00    -0.302 N 
ATOM     17  C   UNL     1      14.422   7.847  20.343  0.00  0.00    +0.245 C 
ATOM     32  H   UNL     1      14.484   8.104  22.413  0.00  0.00    +0.150 HD
BRANCH   8  18
ATOM      6  O   UNL     1      14.420  10.844  22.602  0.00  0.00    -0.274 OA
ATOM      9  N   UNL     1      12.263  10.967  23.343  0.00  0.00    -0.314 N 
ATOM     18  C   UNL     1      12.866   9.237  21.691  0.00  0.00    +0.159 C 
ATOM     21  C   UNL     1      11.632   8.476  22.157  0.00  0.00    +0.033 C 
ATOM     23  C   UNL     1      10.509   9.456  22.455  0.00  0.00    +0.021 C 
ATOM     24  C   UNL     1      13.274  10.388  22.604  0.00  0.00    +0.233 C 
ATOM     26  C   UNL     1      10.950  10.390  23.567  0.00  0.00    +0.104 C 
ATOM     35  H   UNL     1      12.511  11.771  23.911  0.00  0.00    +0.149 HD
ENDBRANCH   8  18
ENDBRANCH  11  17
BRANCH  12   7
ATOM      5  O   UNL     1      20.066   5.965  23.136  0.00  0.00    -0.274 OA
ATOM      7  N   UNL     1      19.091   7.676  21.906  0.00  0.00    -0.309 N 
ATOM     19  C   UNL     1      20.024   7.141  22.782  0.00  0.00    +0.230 C 
ATOM     30  H   UNL     1      19.106   8.674  21.715  0.00  0.00    +0.149 HD
BRANCH  19  20
ATOM     20  C   UNL     1      21.002   8.188  23.305  0.00  0.00    +0.140 C 
BRANCH  20  10
ATOM     10  N   UNL     1      20.254   8.971  24.291  0.00  0.00    -0.309 NA
ATOM     29  C   UNL     1      20.631   8.588  25.642  0.00  0.00    +0.101 C 
ATOM     36  H   UNL     1      20.388   9.970  24.144  0.00  0.00    +0.122 HD
ENDBRANCH  20  10
BRANCH  20  22
ATOM     22  C   UNL     1      22.240   7.555  23.963  0.00  0.00    +0.031 C 
BRANCH  22  25
ATOM     25  C   UNL     1      23.588   8.029  23.380  0.00  0.00    -0.015 C 
ATOM     27  C   UNL     1      24.066   9.275  24.131  0.00  0.00    +0.007 C 
ATOM     28  C   UNL     1      23.504   8.331  21.882  0.00  0.00    +0.007 C 
ENDBRANCH  22  25
ENDBRANCH  20  22
ENDBRANCH  19  20
ENDBRANCH  12   7
BRANCH  11   1
ATOM      1  O   UNL     1      15.200   5.868  21.272  0.00  0.00    -0.379 OA
ATOM     31  H   UNL     1      14.741   5.241  20.688  0.00  0.00    +0.211 HD
ENDBRANCH  11   1
BRANCH  14   2
ATOM      2  O   UNL     1      19.556   5.427  20.116  0.00  0.00    -0.387 OA
ATOM     33  H   UNL     1      20.075   5.400  19.294  0.00  0.00    +0.210 HD
ENDBRANCH  14   2
BRANCH  16   3
ATOM      3  O   UNL     1      17.793   5.310  17.883  0.00  0.00    -0.389 OA
ATOM     34  H   UNL     1      17.381   4.467  17.629  0.00  0.00    +0.210 HD
ENDBRANCH  16   3
TORSDOF 10
ENDMDL
MODEL 8
REMARK VINA RESULT:      -6.0     20.096     22.704
REMARK  Name = 11866364
REMARK  13 active torsions:
REMARK  status: ('A' for Active; 'I' for Inactive)
REMARK    1  A    between atoms: O_1  and  C_11
REMARK    2  A    between atoms: O_2  and  C_14
REMARK    3  A    between atoms: O_3  and  C_16
REMARK    4  A    between atoms: N_7  and  C_12
REMARK    5  A    between atoms: N_8  and  C_18
REMARK    6  A    between atoms: N_10  and  C_20
REMARK    7  A    between atoms: N_10  and  C_29
REMARK    8  A    between atoms: C_11  and  C_17
REMARK    9  A    between atoms: C_19  and  C_20
REMARK   10  A    between atoms: C_20  and  C_22
REMARK   11  A    between atoms: C_22  and  C_25
REMARK   12  A    between atoms: C_25  and  C_27
REMARK   13  A    between atoms: C_25  and  C_28
REMARK                            x       y       z     vdW  Elec       q    Type
REMARK                         _______ _______ _______ _____ _____    ______ ____
ROOT
ATOM     11  C   UNL     1      12.951   4.131  -1.005  0.00  0.00    +0.146 C 
ATOM     12  C   UNL     1      13.079   4.455   1.513  0.00  0.00    +0.107 C 
ATOM     13  C   UNL     1      12.383   4.867   0.211  0.00  0.00    +0.069 C 
ATOM     14  C   UNL     1      14.603   4.602   1.417  0.00  0.00    +0.163 C 
ATOM     15  C   UNL     1      14.466   4.303  -1.100  0.00  0.00    +0.078 C 
ATOM     16  C   UNL     1      15.173   3.885   0.190  0.00  0.00    +0.148 C 
ENDROOT
BRANCH  11  17
ATOM      4  O   UNL     1      12.160   5.806  -2.513  0.00  0.00    -0.273 OA
ATOM      8  N   UNL     1      11.866   3.564  -3.064  0.00  0.00    -0.302 N 
ATOM     17  C   UNL     1      12.296   4.611  -2.267  0.00  0.00    +0.245 C 
ATOM     32  H   UNL     1      12.027   2.605  -2.773  0.00  0.00    +0.150 HD
BRANCH   8  18
ATOM      6  O   UNL     1       9.262   2.756  -3.260  0.00  0.00    -0.274 OA
ATOM      9  N   UNL     1       9.459   2.467  -5.517  0.00  0.00    -0.314 N 
ATOM     18  C   UNL     1      11.187   3.757  -4.319  0.00  0.00    +0.159 C 
ATOM     21  C   UNL     1      12.112   3.453  -5.490  0.00  0.00    +0.033 C 
ATOM     23  C   UNL     1      11.323   3.495  -6.789  0.00  0.00    +0.021 C 
ATOM     24  C   UNL     1       9.911   2.923  -4.296  0.00  0.00    +0.233 C 
ATOM     26  C   UNL     1      10.238   2.435  -6.742  0.00  0.00    +0.104 C 
ATOM     35  H   UNL     1       8.580   1.960  -5.521  0.00  0.00    +0.149 HD
ENDBRANCH   8  18
ENDBRANCH  11  17
BRANCH  12   7
ATOM      5  O   UNL     1      10.595   4.042   2.924  0.00  0.00    -0.274 OA
ATOM      7  N   UNL     1      12.560   5.238   2.613  0.00  0.00    -0.309 N 
ATOM     19  C   UNL     1      11.350   4.962   3.231  0.00  0.00    +0.230 C 
ATOM     30  H   UNL     1      13.090   6.055   2.903  0.00  0.00    +0.149 HD
BRANCH  19  20
ATOM     20  C   UNL     1      11.019   5.956   4.339  0.00  0.00    +0.140 C 
BRANCH  20  10
ATOM     10  N   UNL     1      12.310   6.450   4.825  0.00  0.00    -0.309 NA
ATOM     29  C   UNL     1      12.231   6.782   6.239  0.00  0.00    +0.101 C 
ATOM     36  H   UNL     1      13.051   5.773   4.650  0.00  0.00    +0.122 HD
ENDBRANCH  20  10
BRANCH  20  22
ATOM     22  C   UNL     1      10.162   7.129   3.834  0.00  0.00    +0.031 C 
BRANCH  22  25
ATOM     25  C   UNL     1       8.965   7.484   4.742  0.00  0.00    -0.015 C 
ATOM     27  C   UNL     1       8.378   6.204   5.345  0.00  0.00    +0.007 C 
ATOM     28  C   UNL     1       7.870   8.249   3.996  0.00  0.00    +0.007 C 
ENDBRANCH  22  25
ENDBRANCH  20  22
ENDBRANCH  19  20
ENDBRANCH  12   7
BRANCH  11   1
ATOM      1  O   UNL     1      12.643   2.744  -0.935  0.00  0.00    -0.379 OA
ATOM     31  H   UNL     1      11.979   2.544  -1.617  0.00  0.00    +0.211 HD
ENDBRANCH  11   1
BRANCH  14   2
ATOM      2  O   UNL     1      15.203   4.018   2.576  0.00  0.00    -0.387 OA
ATOM     33  H   UNL     1      14.493   3.653   3.132  0.00  0.00    +0.210 HD
ENDBRANCH  14   2
BRANCH  16   3
ATOM      3  O   UNL     1      16.560   4.209   0.080  0.00  0.00    -0.389 OA
ATOM     34  H   UNL     1      17.048   3.614   0.673  0.00  0.00    +0.210 HD
ENDBRANCH  16   3
TORSDOF 10
ENDMDL
MODEL 9
REMARK VINA RESULT:      -6.0     26.321     28.700
REMARK  Name = 11866364
REMARK  13 active torsions:
REMARK  status: ('A' for Active; 'I' for Inactive)
REMARK    1  A    between atoms: O_1  and  C_11
REMARK    2  A    between atoms: O_2  and  C_14
REMARK    3  A    between atoms: O_3  and  C_16
REMARK    4  A    between atoms: N_7  and  C_12
REMARK    5  A    between atoms: N_8  and  C_18
REMARK    6  A    between atoms: N_10  and  C_20
REMARK    7  A    between atoms: N_10  and  C_29
REMARK    8  A    between atoms: C_11  and  C_17
REMARK    9  A    between atoms: C_19  and  C_20
REMARK   10  A    between atoms: C_20  and  C_22
REMARK   11  A    between atoms: C_22  and  C_25
REMARK   12  A    between atoms: C_25  and  C_27
REMARK   13  A    between atoms: C_25  and  C_28
REMARK                            x       y       z     vdW  Elec       q    Type
REMARK                         _______ _______ _______ _____ _____    ______ ____
ROOT
ATOM     11  C   UNL     1      -2.856 -11.746  12.638  0.00  0.00    +0.146 C 
ATOM     12  C   UNL     1      -3.072 -12.233  15.123  0.00  0.00    +0.107 C 
ATOM     13  C   UNL     1      -3.793 -12.168  13.772  0.00  0.00    +0.069 C 
ATOM     14  C   UNL     1      -2.342 -10.922  15.443  0.00  0.00    +0.163 C 
ATOM     15  C   UNL     1      -2.152 -10.430  12.960  0.00  0.00    +0.078 C 
ATOM     16  C   UNL     1      -1.420 -10.484  14.302  0.00  0.00    +0.148 C 
ENDROOT
BRANCH  11  17
ATOM      4  O   UNL     1      -3.403 -12.381  10.401  0.00  0.00    -0.273 OA
ATOM      8  N   UNL     1      -4.515 -10.577  11.363  0.00  0.00    -0.302 N 
ATOM     17  C   UNL     1      -3.611 -11.626  11.345  0.00  0.00    +0.245 C 
ATOM     32  H   UNL     1      -4.616 -10.007  12.197  0.00  0.00    +0.150 HD
BRANCH   8  18
ATOM      6  O   UNL     1      -3.494  -8.893   9.467  0.00  0.00    -0.274 OA
ATOM      9  N   UNL     1      -5.586  -8.192   8.878  0.00  0.00    -0.314 N 
ATOM     18  C   UNL     1      -5.346 -10.236  10.239  0.00  0.00    +0.159 C 
ATOM     21  C   UNL     1      -6.788 -10.018  10.676  0.00  0.00    +0.033 C 
ATOM     23  C   UNL     1      -7.603  -9.490   9.506  0.00  0.00    +0.021 C 
ATOM     24  C   UNL     1      -4.717  -9.038   9.535  0.00  0.00    +0.233 C 
ATOM     26  C   UNL     1      -7.026  -8.159   9.062  0.00  0.00    +0.104 C 
ATOM     35  H   UNL     1      -5.174  -7.424   8.358  0.00  0.00    +0.149 HD
ENDBRANCH   8  18
ENDBRANCH  11  17
BRANCH  12   7
ATOM      5  O   UNL     1      -5.057 -10.483  16.276  0.00  0.00    -0.274 OA
ATOM      7  N   UNL     1      -4.019 -12.556  16.167  0.00  0.00    -0.309 N 
ATOM     19  C   UNL     1      -4.940 -11.644  16.660  0.00  0.00    +0.230 C 
ATOM     30  H   UNL     1      -3.963 -13.480  16.587  0.00  0.00    +0.149 HD
BRANCH  19  20
ATOM     20  C   UNL     1      -5.797 -12.226  17.779  0.00  0.00    +0.140 C 
BRANCH  20  10
ATOM     10  N   UNL     1      -4.877 -12.989  18.626  0.00  0.00    -0.309 NA
ATOM     29  C   UNL     1      -4.021 -12.093  19.388  0.00  0.00    +0.101 C 
ATOM     36  H   UNL     1      -5.384 -13.621  19.242  0.00  0.00    +0.122 HD
ENDBRANCH  20  10
BRANCH  20  22
ATOM     22  C   UNL     1      -6.496 -11.135  18.608  0.00  0.00    +0.031 C 
BRANCH  22  25
ATOM     25  C   UNL     1      -7.975 -10.899  18.238  0.00  0.00    -0.015 C 
ATOM     27  C   UNL     1      -8.129  -9.523  17.582  0.00  0.00    +0.007 C 
ATOM     28  C   UNL     1      -8.906 -10.999  19.448  0.00  0.00    +0.007 C 
ENDBRANCH  22  25
ENDBRANCH  20  22
ENDBRANCH  19  20
ENDBRANCH  12   7
BRANCH  11   1
ATOM      1  O   UNL     1      -1.878 -12.752  12.400  0.00  0.00    -0.379 OA
ATOM     31  H   UNL     1      -1.007 -12.392  12.638  0.00  0.00    +0.211 HD
ENDBRANCH  11   1
BRANCH  14   2
ATOM      2  O   UNL     1      -1.531 -11.110  16.606  0.00  0.00    -0.387 OA
ATOM     33  H   UNL     1      -0.650 -10.741  16.422  0.00  0.00    +0.210 HD
ENDBRANCH  14   2
BRANCH  16   3
ATOM      3  O   UNL     1      -0.914  -9.183  14.603  0.00  0.00    -0.389 OA
ATOM     34  H   UNL     1      -0.404  -9.250  15.427  0.00  0.00    +0.210 HD
ENDBRANCH  16   3
TORSDOF 10
ENDMDL
MODEL 10
REMARK VINA RESULT:      -5.6      4.843     11.443
REMARK  Name = 11866364
REMARK  13 active torsions:
REMARK  status: ('A' for Active; 'I' for Inactive)
REMARK    1  A    between atoms: O_1  and  C_11
REMARK    2  A    between atoms: O_2  and  C_14
REMARK    3  A    between atoms: O_3  and  C_16
REMARK    4  A    between atoms: N_7  and  C_12
REMARK    5  A    between atoms: N_8  and  C_18
REMARK    6  A    between atoms: N_10  and  C_20
REMARK    7  A    between atoms: N_10  and  C_29
REMARK    8  A    between atoms: C_11  and  C_17
REMARK    9  A    between atoms: C_19  and  C_20
REMARK   10  A    between atoms: C_20  and  C_22
REMARK   11  A    between atoms: C_22  and  C_25
REMARK   12  A    between atoms: C_25  and  C_27
REMARK   13  A    between atoms: C_25  and  C_28
REMARK                            x       y       z     vdW  Elec       q    Type
REMARK                         _______ _______ _______ _____ _____    ______ ____
ROOT
ATOM     11  C   UNL     1      19.793   6.788  21.171  0.00  0.00    +0.146 C 
ATOM     12  C   UNL     1      22.040   5.603  21.223  0.00  0.00    +0.107 C 
ATOM     13  C   UNL     1      20.664   5.692  20.554  0.00  0.00    +0.069 C 
ATOM     14  C   UNL     1      21.926   5.452  22.746  0.00  0.00    +0.163 C 
ATOM     15  C   UNL     1      19.670   6.614  22.683  0.00  0.00    +0.078 C 
ATOM     16  C   UNL     1      21.037   6.534  23.365  0.00  0.00    +0.148 C 
ENDROOT
BRANCH  11  17
ATOM      4  O   UNL     1      18.186   6.166  19.516  0.00  0.00    -0.273 OA
ATOM      8  N   UNL     1      17.540   7.602  21.230  0.00  0.00    -0.302 N 
ATOM     17  C   UNL     1      18.431   6.798  20.539  0.00  0.00    +0.245 C 
ATOM     32  H   UNL     1      17.839   8.086  22.071  0.00  0.00    +0.150 HD
BRANCH   8  18
ATOM      6  O   UNL     1      16.264   9.881  22.038  0.00  0.00    -0.274 OA
ATOM      9  N   UNL     1      14.225   8.863  21.892  0.00  0.00    -0.314 N 
ATOM     18  C   UNL     1      16.175   7.800  20.817  0.00  0.00    +0.159 C 
ATOM     21  C   UNL     1      15.395   6.494  20.876  0.00  0.00    +0.033 C 
ATOM     23  C   UNL     1      13.924   6.765  20.606  0.00  0.00    +0.021 C 
ATOM     24  C   UNL     1      15.585   8.922  21.666  0.00  0.00    +0.233 C 
ATOM     26  C   UNL     1      13.387   7.697  21.677  0.00  0.00    +0.104 C 
ATOM     35  H   UNL     1      13.812   9.634  22.407  0.00  0.00    +0.149 HD
ENDBRANCH   8  18
ENDBRANCH  11  17
BRANCH  12   7
ATOM      5  O   UNL     1      24.889   5.485  20.774  0.00  0.00    -0.274 OA
ATOM      7  N   UNL     1      22.789   4.503  20.657  0.00  0.00    -0.309 N 
ATOM     19  C   UNL     1      24.164   4.538  20.479  0.00  0.00    +0.230 C 
ATOM     30  H   UNL     1      22.268   3.693  20.331  0.00  0.00    +0.149 HD
BRANCH  19  20
ATOM     20  C   UNL     1      24.702   3.266  19.833  0.00  0.00    +0.140 C 
BRANCH  20  10
ATOM     10  N   UNL     1      26.160   3.348  19.953  0.00  0.00    -0.309 NA
ATOM     29  C   UNL     1      26.774   3.497  18.643  0.00  0.00    +0.101 C 
ATOM     36  H   UNL     1      26.434   4.107  20.573  0.00  0.00    +0.122 HD
ENDBRANCH  20  10
BRANCH  20  22
ATOM     22  C   UNL     1      24.186   1.994  20.527  0.00  0.00    +0.031 C 
BRANCH  22  25
ATOM     25  C   UNL     1      24.802   1.730  21.918  0.00  0.00    -0.015 C 
ATOM     27  C   UNL     1      25.412   0.326  21.954  0.00  0.00    +0.007 C 
ATOM     28  C   UNL     1      23.781   1.877  23.048  0.00  0.00    +0.007 C 
ENDBRANCH  22  25
ENDBRANCH  20  22
ENDBRANCH  19  20
ENDBRANCH  12   7
BRANCH  11   1
ATOM      1  O   UNL     1      20.337   8.073  20.893  0.00  0.00    -0.379 OA
ATOM     31  H   UNL     1      20.137   8.294  19.967  0.00  0.00    +0.211 HD
ENDBRANCH  11   1
BRANCH  14   2
ATOM      2  O   UNL     1      23.227   5.577  23.327  0.00  0.00    -0.387 OA
ATOM     33  H   UNL     1      23.161   6.184  24.085  0.00  0.00    +0.210 HD
ENDBRANCH  14   2
BRANCH  16   3
ATOM      3  O   UNL     1      20.845   6.225  24.746  0.00  0.00    -0.389 OA
ATOM     34  H   UNL     1      19.947   5.866  24.845  0.00  0.00    +0.210 HD
ENDBRANCH  16   3
TORSDOF 10
ENDMDL
