MODEL 1
REMARK VINA RESULT:      -7.5      0.000      0.000
REMARK  Name = 45783297
REMARK  4 active torsions:
REMARK  status: ('A' for Active; 'I' for Inactive)
REMARK    1  A    between atoms: N_3  and  C_13
REMARK    2  A    between atoms: C_9  and  C_14
REMARK    3  A    between atoms: C_13  and  C_15
REMARK    4  A    between atoms: C_16  and  C_21
REMARK                            x       y       z     vdW  Elec       q    Type
REMARK                         _______ _______ _______ _____ _____    ______ ____
ROOT
ATOM      1  O   UNL     1      16.057   5.973  18.428  0.00  0.00    -0.336 OA
ATOM      4  N   UNL     1      16.119   7.502  20.064  0.00  0.00    -0.190 NA
ATOM      6  N   UNL     1      17.315   5.847  19.032  0.00  0.00    -0.056 NA
ATOM     14  C   UNL     1      15.418   6.969  19.096  0.00  0.00    +0.245 A 
ATOM     16  C   UNL     1      17.275   6.781  19.986  0.00  0.00    +0.202 A 
ENDROOT
BRANCH  16  21
ATOM      2  O   UNL     1      23.656   3.692  22.255  0.00  0.00    -0.377 OA
ATOM      5  N   UNL     1      21.441   5.402  21.993  0.00  0.00    -0.311 N 
ATOM      8  N   UNL     1      20.513   7.489  22.614  0.00  0.00    -0.240 NA
ATOM     17  C   UNL     1      22.229   5.024  20.814  0.00  0.00    +0.134 C 
ATOM     18  C   UNL     1      22.145   5.290  23.278  0.00  0.00    +0.134 C 
ATOM     21  C   UNL     1      18.373   7.020  20.879  0.00  0.00    +0.027 A 
ATOM     22  C   UNL     1      20.428   6.359  21.877  0.00  0.00    +0.122 A 
ATOM     23  C   UNL     1      22.892   3.672  21.050  0.00  0.00    +0.178 C 
ATOM     24  C   UNL     1      22.812   3.923  23.382  0.00  0.00    +0.178 C 
ATOM     25  C   UNL     1      19.389   6.080  21.004  0.00  0.00    +0.055 A 
ATOM     27  C   UNL     1      18.426   8.195  21.620  0.00  0.00    +0.031 A 
ATOM     28  C   UNL     1      19.507   8.379  22.466  0.00  0.00    +0.113 A 
ENDBRANCH  16  21
BRANCH  14   9
ATOM      3  N   UNL     1      13.392   8.376  19.426  0.00  0.00    -0.287 NA
ATOM      9  C   UNL     1      14.017   7.303  18.626  0.00  0.00    +0.146 C 
ATOM     10  C   UNL     1      13.985   7.826  17.179  0.00  0.00    +0.030 C 
ATOM     11  C   UNL     1      13.269   9.167  17.255  0.00  0.00    +0.017 C 
ATOM     12  C   UNL     1      12.463   9.069  18.534  0.00  0.00    +0.085 C 
BRANCH   3  13
ATOM     13  C   UNL     1      12.734   7.885  20.630  0.00  0.00    +0.121 C 
BRANCH  13  15
ATOM      7  N   UNL     1      13.208  10.847  22.941  0.00  0.00    -0.263 NA
ATOM     15  C   UNL     1      12.421   9.000  21.592  0.00  0.00    -0.015 A 
ATOM     19  C   UNL     1      11.121   9.229  22.026  0.00  0.00    +0.008 A 
ATOM     20  C   UNL     1      13.421   9.830  22.075  0.00  0.00    +0.115 A 
ATOM     26  C   UNL     1      10.861  10.264  22.917  0.00  0.00    +0.020 A 
ATOM     29  C   UNL     1      11.930  11.037  23.340  0.00  0.00    +0.111 A 
ENDBRANCH  13  15
ENDBRANCH   3  13
ENDBRANCH  14   9
TORSDOF 4
ENDMDL
MODEL 2
REMARK VINA RESULT:      -7.2      1.983      2.706
REMARK  Name = 45783297
REMARK  4 active torsions:
REMARK  status: ('A' for Active; 'I' for Inactive)
REMARK    1  A    between atoms: N_3  and  C_13
REMARK    2  A    between atoms: C_9  and  C_14
REMARK    3  A    between atoms: C_13  and  C_15
REMARK    4  A    between atoms: C_16  and  C_21
REMARK                            x       y       z     vdW  Elec       q    Type
REMARK                         _______ _______ _______ _____ _____    ______ ____
ROOT
ATOM      1  O   UNL     1      14.989   8.500  19.933  0.00  0.00    -0.336 OA
ATOM      4  N   UNL     1      15.972   6.733  18.970  0.00  0.00    -0.190 NA
ATOM      6  N   UNL     1      16.200   8.310  20.612  0.00  0.00    -0.056 NA
ATOM     14  C   UNL     1      14.934   7.530  18.983  0.00  0.00    +0.245 A 
ATOM     16  C   UNL     1      16.721   7.251  19.986  0.00  0.00    +0.202 A 
ENDROOT
BRANCH  16  21
ATOM      2  O   UNL     1      22.459   8.414  24.583  0.00  0.00    -0.377 OA
ATOM      5  N   UNL     1      20.791   7.371  22.576  0.00  0.00    -0.311 N 
ATOM      8  N   UNL     1      20.453   5.579  21.068  0.00  0.00    -0.240 NA
ATOM     17  C   UNL     1      20.275   7.582  23.934  0.00  0.00    +0.134 C 
ATOM     18  C   UNL     1      22.250   7.230  22.477  0.00  0.00    +0.134 C 
ATOM     21  C   UNL     1      17.988   6.684  20.352  0.00  0.00    +0.027 A 
ATOM     22  C   UNL     1      19.999   6.726  21.621  0.00  0.00    +0.122 A 
ATOM     23  C   UNL     1      21.061   8.696  24.615  0.00  0.00    +0.178 C 
ATOM     24  C   UNL     1      22.930   8.363  23.237  0.00  0.00    +0.178 C 
ATOM     25  C   UNL     1      18.786   7.313  21.301  0.00  0.00    +0.055 A 
ATOM     27  C   UNL     1      18.421   5.503  19.761  0.00  0.00    +0.031 A 
ATOM     28  C   UNL     1      19.651   4.997  20.149  0.00  0.00    +0.113 A 
ENDBRANCH  16  21
BRANCH  14   9
ATOM      3  N   UNL     1      12.631   8.398  18.614  0.00  0.00    -0.287 NA
ATOM      9  C   UNL     1      13.703   7.520  18.102  0.00  0.00    +0.146 C 
ATOM     10  C   UNL     1      13.986   8.038  16.680  0.00  0.00    +0.030 C 
ATOM     11  C   UNL     1      12.986   9.164  16.459  0.00  0.00    +0.017 C 
ATOM     12  C   UNL     1      11.878   8.856  17.447  0.00  0.00    +0.085 C 
BRANCH   3  13
ATOM     13  C   UNL     1      11.776   7.746  19.597  0.00  0.00    +0.121 C 
BRANCH  13  15
ATOM      7  N   UNL     1      10.630   8.886  23.021  0.00  0.00    -0.263 NA
ATOM     15  C   UNL     1      11.498   8.638  20.777  0.00  0.00    -0.015 A 
ATOM     19  C   UNL     1      11.823   9.989  20.747  0.00  0.00    +0.008 A 
ATOM     20  C   UNL     1      10.907   8.140  21.928  0.00  0.00    +0.115 A 
ATOM     26  C   UNL     1      11.552  10.790  21.851  0.00  0.00    +0.020 A 
ATOM     29  C   UNL     1      10.960  10.195  22.953  0.00  0.00    +0.111 A 
ENDBRANCH  13  15
ENDBRANCH   3  13
ENDBRANCH  14   9
TORSDOF 4
ENDMDL
MODEL 3
REMARK VINA RESULT:      -7.1      2.240      4.102
REMARK  Name = 45783297
REMARK  4 active torsions:
REMARK  status: ('A' for Active; 'I' for Inactive)
REMARK    1  A    between atoms: N_3  and  C_13
REMARK    2  A    between atoms: C_9  and  C_14
REMARK    3  A    between atoms: C_13  and  C_15
REMARK    4  A    between atoms: C_16  and  C_21
REMARK                            x       y       z     vdW  Elec       q    Type
REMARK                         _______ _______ _______ _____ _____    ______ ____
ROOT
ATOM      1  O   UNL     1      14.763   6.767  19.363  0.00  0.00    -0.336 OA
ATOM      4  N   UNL     1      15.977   7.465  21.110  0.00  0.00    -0.190 NA
ATOM      6  N   UNL     1      16.031   6.193  19.210  0.00  0.00    -0.056 NA
ATOM     14  C   UNL     1      14.817   7.500  20.506  0.00  0.00    +0.245 A 
ATOM     16  C   UNL     1      16.689   6.652  20.278  0.00  0.00    +0.202 A 
ENDROOT
BRANCH  16  21
ATOM      2  O   UNL     1      22.318   8.485  24.792  0.00  0.00    -0.377 OA
ATOM      5  N   UNL     1      20.785   7.330  22.739  0.00  0.00    -0.311 N 
ATOM      8  N   UNL     1      20.726   5.661  21.062  0.00  0.00    -0.240 NA
ATOM     17  C   UNL     1      20.307   7.301  24.127  0.00  0.00    +0.134 C 
ATOM     18  C   UNL     1      22.236   7.492  22.581  0.00  0.00    +0.134 C 
ATOM     21  C   UNL     1      18.059   6.316  20.543  0.00  0.00    +0.027 A 
ATOM     22  C   UNL     1      20.086   6.635  21.747  0.00  0.00    +0.122 A 
ATOM     23  C   UNL     1      20.894   8.478  24.897  0.00  0.00    +0.178 C 
ATOM     24  C   UNL     1      22.720   8.659  23.434  0.00  0.00    +0.178 C 
ATOM     25  C   UNL     1      18.767   6.997  21.528  0.00  0.00    +0.055 A 
ATOM     27  C   UNL     1      18.684   5.308  19.818  0.00  0.00    +0.031 A 
ATOM     28  C   UNL     1      20.007   5.022  20.113  0.00  0.00    +0.113 A 
ENDBRANCH  16  21
BRANCH  14   9
ATOM      3  N   UNL     1      12.823   8.772  19.732  0.00  0.00    -0.287 NA
ATOM      9  C   UNL     1      13.550   8.230  20.899  0.00  0.00    +0.146 C 
ATOM     10  C   UNL     1      12.530   7.315  21.602  0.00  0.00    +0.030 C 
ATOM     11  C   UNL     1      11.246   7.456  20.797  0.00  0.00    +0.017 C 
ATOM     12  C   UNL     1      11.408   8.791  20.099  0.00  0.00    +0.085 C 
BRANCH   3  13
ATOM     13  C   UNL     1      13.301  10.086  19.319  0.00  0.00    +0.121 C 
BRANCH  13  15
ATOM      7  N   UNL     1      15.021  11.199  16.136  0.00  0.00    -0.263 NA
ATOM     15  C   UNL     1      13.810  10.077  17.902  0.00  0.00    -0.015 A 
ATOM     19  C   UNL     1      13.565   9.000  17.059  0.00  0.00    +0.008 A 
ATOM     20  C   UNL     1      14.537  11.144  17.397  0.00  0.00    +0.115 A 
ATOM     26  C   UNL     1      14.045   9.020  15.754  0.00  0.00    +0.020 A 
ATOM     29  C   UNL     1      14.762  10.133  15.345  0.00  0.00    +0.111 A 
ENDBRANCH  13  15
ENDBRANCH   3  13
ENDBRANCH  14   9
TORSDOF 4
ENDMDL
MODEL 4
REMARK VINA RESULT:      -7.0     16.089     20.259
REMARK  Name = 45783297
REMARK  4 active torsions:
REMARK  status: ('A' for Active; 'I' for Inactive)
REMARK    1  A    between atoms: N_3  and  C_13
REMARK    2  A    between atoms: C_9  and  C_14
REMARK    3  A    between atoms: C_13  and  C_15
REMARK    4  A    between atoms: C_16  and  C_21
REMARK                            x       y       z     vdW  Elec       q    Type
REMARK                         _______ _______ _______ _____ _____    ______ ____
ROOT
ATOM      1  O   UNL     1      10.930   6.999   3.868  0.00  0.00    -0.336 OA
ATOM      4  N   UNL     1      10.923   4.767   3.684  0.00  0.00    -0.190 NA
ATOM      6  N   UNL     1      11.473   6.710   2.610  0.00  0.00    -0.056 NA
ATOM     14  C   UNL     1      10.633   5.799   4.434  0.00  0.00    +0.245 A 
ATOM     16  C   UNL     1      11.436   5.375   2.576  0.00  0.00    +0.202 A 
ENDROOT
BRANCH  16  21
ATOM      2  O   UNL     1       9.515   3.601  -4.394  0.00  0.00    -0.377 OA
ATOM      5  N   UNL     1      10.850   3.733  -1.924  0.00  0.00    -0.311 N 
ATOM      8  N   UNL     1      12.816   3.146  -0.744  0.00  0.00    -0.240 NA
ATOM     17  C   UNL     1      10.506   4.963  -2.648  0.00  0.00    +0.134 C 
ATOM     18  C   UNL     1      10.942   2.525  -2.754  0.00  0.00    +0.134 C 
ATOM     21  C   UNL     1      11.903   4.618   1.450  0.00  0.00    +0.027 A 
ATOM     22  C   UNL     1      11.633   3.800  -0.767  0.00  0.00    +0.122 A 
ATOM     23  C   UNL     1       9.290   4.716  -3.533  0.00  0.00    +0.178 C 
ATOM     24  C   UNL     1       9.701   2.408  -3.633  0.00  0.00    +0.178 C 
ATOM     25  C   UNL     1      11.137   4.543   0.292  0.00  0.00    +0.055 A 
ATOM     27  C   UNL     1      13.125   3.958   1.511  0.00  0.00    +0.031 A 
ATOM     28  C   UNL     1      13.532   3.242   0.398  0.00  0.00    +0.113 A 
ENDBRANCH  16  21
BRANCH  14   9
ATOM      3  N   UNL     1      10.569   6.936   6.647  0.00  0.00    -0.287 NA
ATOM      9  C   UNL     1      10.023   5.841   5.819  0.00  0.00    +0.146 C 
ATOM     10  C   UNL     1       8.504   6.092   5.793  0.00  0.00    +0.030 C 
ATOM     11  C   UNL     1       8.285   7.308   6.680  0.00  0.00    +0.017 C 
ATOM     12  C   UNL     1       9.507   7.321   7.576  0.00  0.00    +0.085 C 
BRANCH   3  13
ATOM     13  C   UNL     1      11.800   6.575   7.338  0.00  0.00    +0.121 C 
BRANCH  13  15
ATOM      7  N   UNL     1      13.774   9.725   6.620  0.00  0.00    -0.263 NA
ATOM     15  C   UNL     1      12.942   7.480   6.959  0.00  0.00    -0.015 A 
ATOM     19  C   UNL     1      14.181   6.959   6.605  0.00  0.00    +0.008 A 
ATOM     20  C   UNL     1      12.791   8.858   6.951  0.00  0.00    +0.115 A 
ATOM     26  C   UNL     1      15.218   7.819   6.258  0.00  0.00    +0.020 A 
ATOM     29  C   UNL     1      14.965   9.181   6.281  0.00  0.00    +0.111 A 
ENDBRANCH  13  15
ENDBRANCH   3  13
ENDBRANCH  14   9
TORSDOF 4
ENDMDL
MODEL 5
REMARK VINA RESULT:      -7.0     27.818     30.184
REMARK  Name = 45783297
REMARK  4 active torsions:
REMARK  status: ('A' for Active; 'I' for Inactive)
REMARK    1  A    between atoms: N_3  and  C_13
REMARK    2  A    between atoms: C_9  and  C_14
REMARK    3  A    between atoms: C_13  and  C_15
REMARK    4  A    between atoms: C_16  and  C_21
REMARK                            x       y       z     vdW  Elec       q    Type
REMARK                         _______ _______ _______ _____ _____    ______ ____
ROOT
ATOM      1  O   UNL     1      -4.487 -12.291  16.619  0.00  0.00    -0.336 OA
ATOM      4  N   UNL     1      -4.718 -10.268  15.685  0.00  0.00    -0.190 NA
ATOM      6  N   UNL     1      -3.860 -12.365  15.368  0.00  0.00    -0.056 NA
ATOM     14  C   UNL     1      -4.965 -11.024  16.725  0.00  0.00    +0.245 A 
ATOM     16  C   UNL     1      -4.038 -11.135  14.880  0.00  0.00    +0.202 A 
ENDROOT
BRANCH  16  21
ATOM      2  O   UNL     1      -6.485  -8.868   8.225  0.00  0.00    -0.377 OA
ATOM      5  N   UNL     1      -4.836  -9.712  10.338  0.00  0.00    -0.311 N 
ATOM      8  N   UNL     1      -2.602  -9.963  11.078  0.00  0.00    -0.240 NA
ATOM     17  C   UNL     1      -5.784  -8.609  10.533  0.00  0.00    +0.134 C 
ATOM     18  C   UNL     1      -4.442  -9.959   8.944  0.00  0.00    +0.134 C 
ATOM     21  C   UNL     1      -3.551 -10.738  13.589  0.00  0.00    +0.027 A 
ATOM     22  C   UNL     1      -3.924 -10.035  11.348  0.00  0.00    +0.122 A 
ATOM     23  C   UNL     1      -6.954  -8.760   9.568  0.00  0.00    +0.178 C 
ATOM     24  C   UNL     1      -5.684 -10.038   8.064  0.00  0.00    +0.178 C 
ATOM     25  C   UNL     1      -4.445 -10.413  12.575  0.00  0.00    +0.055 A 
ATOM     27  C   UNL     1      -2.183 -10.676  13.349  0.00  0.00    +0.031 A 
ATOM     28  C   UNL     1      -1.764 -10.287  12.088  0.00  0.00    +0.113 A 
ENDBRANCH  16  21
BRANCH  14   9
ATOM      3  N   UNL     1      -7.152 -10.546  17.811  0.00  0.00    -0.287 NA
ATOM      9  C   UNL     1      -5.695 -10.685  18.008  0.00  0.00    +0.146 C 
ATOM     10  C   UNL     1      -5.550 -11.779  19.081  0.00  0.00    +0.030 C 
ATOM     11  C   UNL     1      -6.975 -12.148  19.470  0.00  0.00    +0.017 C 
ATOM     12  C   UNL     1      -7.780 -10.927  19.075  0.00  0.00    +0.085 C 
BRANCH   3  13
ATOM     13  C   UNL     1      -7.548  -9.210  17.382  0.00  0.00    +0.121 C 
BRANCH  13  15
ATOM      7  N   UNL     1     -10.708 -10.076  15.483  0.00  0.00    -0.263 NA
ATOM     15  C   UNL     1      -8.978  -9.173  16.912  0.00  0.00    -0.015 A 
ATOM     19  C   UNL     1      -9.879  -8.249  17.429  0.00  0.00    +0.008 A 
ATOM     20  C   UNL     1      -9.438 -10.057  15.949  0.00  0.00    +0.115 A 
ATOM     26  C   UNL     1     -11.193  -8.236  16.975  0.00  0.00    +0.020 A 
ATOM     29  C   UNL     1     -11.553  -9.162  16.010  0.00  0.00    +0.111 A 
ENDBRANCH  13  15
ENDBRANCH   3  13
ENDBRANCH  14   9
TORSDOF 4
ENDMDL
MODEL 6
REMARK VINA RESULT:      -6.8     27.201     30.644
REMARK  Name = 45783297
REMARK  4 active torsions:
REMARK  status: ('A' for Active; 'I' for Inactive)
REMARK    1  A    between atoms: N_3  and  C_13
REMARK    2  A    between atoms: C_9  and  C_14
REMARK    3  A    between atoms: C_13  and  C_15
REMARK    4  A    between atoms: C_16  and  C_21
REMARK                            x       y       z     vdW  Elec       q    Type
REMARK                         _______ _______ _______ _____ _____    ______ ____
ROOT
ATOM      1  O   UNL     1      -4.875 -12.867  15.130  0.00  0.00    -0.336 OA
ATOM      4  N   UNL     1      -4.983 -10.846  16.088  0.00  0.00    -0.190 NA
ATOM      6  N   UNL     1      -6.150 -12.775  15.703  0.00  0.00    -0.056 NA
ATOM     14  C   UNL     1      -4.255 -11.689  15.403  0.00  0.00    +0.245 A 
ATOM     16  C   UNL     1      -6.137 -11.556  16.249  0.00  0.00    +0.202 A 
ENDROOT
BRANCH  16  21
ATOM      2  O   UNL     1     -12.002  -7.080  15.260  0.00  0.00    -0.377 OA
ATOM      5  N   UNL     1     -10.060  -8.751  16.415  0.00  0.00    -0.311 N 
ATOM      8  N   UNL     1      -9.449  -9.971  18.349  0.00  0.00    -0.240 NA
ATOM     17  C   UNL     1     -10.783  -9.177  15.211  0.00  0.00    +0.134 C 
ATOM     18  C   UNL     1     -10.742  -7.734  17.227  0.00  0.00    +0.134 C 
ATOM     21  C   UNL     1      -7.260 -11.017  16.962  0.00  0.00    +0.027 A 
ATOM     22  C   UNL     1      -9.198  -9.642  17.063  0.00  0.00    +0.122 A 
ATOM     23  C   UNL     1     -11.241  -7.953  14.426  0.00  0.00    +0.178 C 
ATOM     24  C   UNL     1     -11.202  -6.587  16.334  0.00  0.00    +0.178 C 
ATOM     25  C   UNL     1      -8.128 -10.132  16.332  0.00  0.00    +0.055 A 
ATOM     27  C   UNL     1      -7.486 -11.380  18.284  0.00  0.00    +0.031 A 
ATOM     28  C   UNL     1      -8.584 -10.834  18.928  0.00  0.00    +0.113 A 
ENDBRANCH  16  21
BRANCH  14   9
ATOM      3  N   UNL     1      -2.747 -10.561  13.777  0.00  0.00    -0.287 NA
ATOM      9  C   UNL     1      -2.841 -11.537  14.881  0.00  0.00    +0.146 C 
ATOM     10  C   UNL     1      -1.867 -11.010  15.951  0.00  0.00    +0.030 C 
ATOM     11  C   UNL     1      -1.227  -9.775  15.335  0.00  0.00    +0.017 C 
ATOM     12  C   UNL     1      -1.403  -9.987  13.845  0.00  0.00    +0.085 C 
BRANCH   3  13
ATOM     13  C   UNL     1      -3.030 -11.142  12.471  0.00  0.00    +0.121 C 
BRANCH  13  15
ATOM      7  N   UNL     1      -5.718  -8.814  11.173  0.00  0.00    -0.263 NA
ATOM     15  C   UNL     1      -3.764 -10.180  11.576  0.00  0.00    -0.015 A 
ATOM     19  C   UNL     1      -3.219  -9.769  10.365  0.00  0.00    +0.008 A 
ATOM     20  C   UNL     1      -5.007  -9.679  11.931  0.00  0.00    +0.115 A 
ATOM     26  C   UNL     1      -3.921  -8.881   9.557  0.00  0.00    +0.020 A 
ATOM     29  C   UNL     1      -5.155  -8.437  10.003  0.00  0.00    +0.111 A 
ENDBRANCH  13  15
ENDBRANCH   3  13
ENDBRANCH  14   9
TORSDOF 4
ENDMDL
MODEL 7
REMARK VINA RESULT:      -6.4     15.309     19.045
REMARK  Name = 45783297
REMARK  4 active torsions:
REMARK  status: ('A' for Active; 'I' for Inactive)
REMARK    1  A    between atoms: N_3  and  C_13
REMARK    2  A    between atoms: C_9  and  C_14
REMARK    3  A    between atoms: C_13  and  C_15
REMARK    4  A    between atoms: C_16  and  C_21
REMARK                            x       y       z     vdW  Elec       q    Type
REMARK                         _______ _______ _______ _____ _____    ______ ____
ROOT
ATOM      1  O   UNL     1      12.498   7.480   5.481  0.00  0.00    -0.336 OA
ATOM      4  N   UNL     1      10.962   5.947   4.927  0.00  0.00    -0.190 NA
ATOM      6  N   UNL     1      12.806   7.073   4.177  0.00  0.00    -0.056 NA
ATOM     14  C   UNL     1      11.399   6.768   5.847  0.00  0.00    +0.245 A 
ATOM     16  C   UNL     1      11.856   6.169   3.921  0.00  0.00    +0.202 A 
ENDROOT
BRANCH  16  21
ATOM      2  O   UNL     1      16.049   4.266  -1.927  0.00  0.00    -0.377 OA
ATOM      5  N   UNL     1      13.874   4.648  -0.190  0.00  0.00    -0.311 N 
ATOM      8  N   UNL     1      11.611   4.102   0.239  0.00  0.00    -0.240 NA
ATOM     17  C   UNL     1      15.111   4.026   0.297  0.00  0.00    +0.134 C 
ATOM     18  C   UNL     1      13.659   4.560  -1.641  0.00  0.00    +0.134 C 
ATOM     21  C   UNL     1      11.773   5.469   2.671  0.00  0.00    +0.027 A 
ATOM     22  C   UNL     1      12.750   4.709   0.641  0.00  0.00    +0.122 A 
ATOM     23  C   UNL     1      16.291   4.504  -0.541  0.00  0.00    +0.178 C 
ATOM     24  C   UNL     1      14.917   5.010  -2.375  0.00  0.00    +0.178 C 
ATOM     25  C   UNL     1      12.882   5.398   1.836  0.00  0.00    +0.055 A 
ATOM     27  C   UNL     1      10.583   4.857   2.292  0.00  0.00    +0.031 A 
ATOM     28  C   UNL     1      10.555   4.193   1.077  0.00  0.00    +0.113 A 
ENDBRANCH  16  21
BRANCH  14   9
ATOM      3  N   UNL     1       9.465   7.517   7.222  0.00  0.00    -0.287 NA
ATOM      9  C   UNL     1      10.860   7.031   7.238  0.00  0.00    +0.146 C 
ATOM     10  C   UNL     1      10.821   5.763   8.109  0.00  0.00    +0.030 C 
ATOM     11  C   UNL     1       9.381   5.652   8.588  0.00  0.00    +0.017 C 
ATOM     12  C   UNL     1       8.857   7.069   8.474  0.00  0.00    +0.085 C 
BRANCH   3  13
ATOM     13  C   UNL     1       9.362   8.960   7.048  0.00  0.00    +0.121 C 
BRANCH  13  15
ATOM      7  N   UNL     1       7.905  11.037   4.237  0.00  0.00    -0.263 NA
ATOM     15  C   UNL     1       8.673   9.322   5.759  0.00  0.00    -0.015 A 
ATOM     19  C   UNL     1       8.176   8.339   4.912  0.00  0.00    +0.008 A 
ATOM     20  C   UNL     1       8.514  10.646   5.379  0.00  0.00    +0.115 A 
ATOM     26  C   UNL     1       7.542   8.702   3.729  0.00  0.00    +0.020 A 
ATOM     29  C   UNL     1       7.434  10.053   3.440  0.00  0.00    +0.111 A 
ENDBRANCH  13  15
ENDBRANCH   3  13
ENDBRANCH  14   9
TORSDOF 4
ENDMDL
MODEL 8
REMARK VINA RESULT:      -6.4     28.002     30.897
REMARK  Name = 45783297
REMARK  4 active torsions:
REMARK  status: ('A' for Active; 'I' for Inactive)
REMARK    1  A    between atoms: N_3  and  C_13
REMARK    2  A    between atoms: C_9  and  C_14
REMARK    3  A    between atoms: C_13  and  C_15
REMARK    4  A    between atoms: C_16  and  C_21
REMARK                            x       y       z     vdW  Elec       q    Type
REMARK                         _______ _______ _______ _____ _____    ______ ____
ROOT
ATOM      1  O   UNL     1      -8.130  -8.470   9.786  0.00  0.00    -0.336 OA
ATOM      4  N   UNL     1      -5.995  -8.140   9.197  0.00  0.00    -0.190 NA
ATOM      6  N   UNL     1      -7.355  -9.165  10.723  0.00  0.00    -0.056 NA
ATOM     14  C   UNL     1      -7.251  -7.895   8.924  0.00  0.00    +0.245 A 
ATOM     16  C   UNL     1      -6.109  -8.922  10.308  0.00  0.00    +0.202 A 
ENDROOT
BRANCH  16  21
ATOM      2  O   UNL     1      -4.113 -12.081  16.746  0.00  0.00    -0.377 OA
ATOM      5  N   UNL     1      -4.048 -10.914  14.191  0.00  0.00    -0.311 N 
ATOM      8  N   UNL     1      -2.708 -10.471  12.291  0.00  0.00    -0.240 NA
ATOM     17  C   UNL     1      -4.959 -12.029  14.473  0.00  0.00    +0.134 C 
ATOM     18  C   UNL     1      -2.883 -10.817  15.081  0.00  0.00    +0.134 C 
ATOM     21  C   UNL     1      -4.955  -9.446  10.981  0.00  0.00    +0.027 A 
ATOM     22  C   UNL     1      -3.921 -10.430  12.884  0.00  0.00    +0.122 A 
ATOM     23  C   UNL     1      -5.302 -12.049  15.958  0.00  0.00    +0.178 C 
ATOM     24  C   UNL     1      -3.338 -10.902  16.534  0.00  0.00    +0.178 C 
ATOM     25  C   UNL     1      -5.064  -9.933  12.279  0.00  0.00    +0.055 A 
ATOM     27  C   UNL     1      -3.723  -9.472  10.338  0.00  0.00    +0.031 A 
ATOM     28  C   UNL     1      -2.640  -9.989  11.030  0.00  0.00    +0.113 A 
ENDBRANCH  16  21
BRANCH  14   9
ATOM      3  N   UNL     1      -8.506  -7.911   6.775  0.00  0.00    -0.287 NA
ATOM      9  C   UNL     1      -7.850  -7.075   7.800  0.00  0.00    +0.146 C 
ATOM     10  C   UNL     1      -8.952  -6.116   8.287  0.00  0.00    +0.030 C 
ATOM     11  C   UNL     1     -10.170  -6.445   7.436  0.00  0.00    +0.017 C 
ATOM     12  C   UNL     1      -9.579  -7.098   6.203  0.00  0.00    +0.085 C 
BRANCH   3  13
ATOM     13  C   UNL     1      -7.585  -8.399   5.757  0.00  0.00    +0.121 C 
BRANCH  13  15
ATOM      7  N   UNL     1      -7.641 -12.113   6.491  0.00  0.00    -0.263 NA
ATOM     15  C   UNL     1      -7.107  -9.795   6.056  0.00  0.00    -0.015 A 
ATOM     19  C   UNL     1      -5.752 -10.077   6.179  0.00  0.00    +0.008 A 
ATOM     20  C   UNL     1      -8.004 -10.839   6.220  0.00  0.00    +0.115 A 
ATOM     26  C   UNL     1      -5.339 -11.376   6.459  0.00  0.00    +0.020 A 
ATOM     29  C   UNL     1      -6.315 -12.348   6.604  0.00  0.00    +0.111 A 
ENDBRANCH  13  15
ENDBRANCH   3  13
ENDBRANCH  14   9
TORSDOF 4
ENDMDL
MODEL 9
REMARK VINA RESULT:      -6.4     15.560     19.722
REMARK  Name = 45783297
REMARK  4 active torsions:
REMARK  status: ('A' for Active; 'I' for Inactive)
REMARK    1  A    between atoms: N_3  and  C_13
REMARK    2  A    between atoms: C_9  and  C_14
REMARK    3  A    between atoms: C_13  and  C_15
REMARK    4  A    between atoms: C_16  and  C_21
REMARK                            x       y       z     vdW  Elec       q    Type
REMARK                         _______ _______ _______ _____ _____    ______ ____
ROOT
ATOM      1  O   UNL     1      14.563   7.536   0.835  0.00  0.00    -0.336 OA
ATOM      4  N   UNL     1      14.840   6.027   2.466  0.00  0.00    -0.190 NA
ATOM      6  N   UNL     1      14.062   8.127   2.002  0.00  0.00    -0.056 NA
ATOM     14  C   UNL     1      15.001   6.302   1.197  0.00  0.00    +0.245 A 
ATOM     16  C   UNL     1      14.260   7.176   2.919  0.00  0.00    +0.202 A 
ENDROOT
BRANCH  16  21
ATOM      2  O   UNL     1       8.240   7.512   7.284  0.00  0.00    -0.377 OA
ATOM      5  N   UNL     1      10.890   7.574   6.349  0.00  0.00    -0.311 N 
ATOM      8  N   UNL     1      13.170   7.660   6.977  0.00  0.00    -0.240 NA
ATOM     17  C   UNL     1      10.027   6.424   6.054  0.00  0.00    +0.134 C 
ATOM     18  C   UNL     1      10.498   8.366   7.523  0.00  0.00    +0.134 C 
ATOM     21  C   UNL     1      13.890   7.341   4.295  0.00  0.00    +0.027 A 
ATOM     22  C   UNL     1      12.244   7.538   6.000  0.00  0.00    +0.122 A 
ATOM     23  C   UNL     1       8.567   6.863   6.056  0.00  0.00    +0.178 C 
ATOM     24  C   UNL     1       9.013   8.701   7.446  0.00  0.00    +0.178 C 
ATOM     25  C   UNL     1      12.549   7.378   4.658  0.00  0.00    +0.055 A 
ATOM     27  C   UNL     1      14.872   7.463   5.272  0.00  0.00    +0.031 A 
ATOM     28  C   UNL     1      14.463   7.620   6.586  0.00  0.00    +0.113 A 
ENDBRANCH  16  21
BRANCH  14   9
ATOM      3  N   UNL     1      14.569   4.839  -0.770  0.00  0.00    -0.287 NA
ATOM      9  C   UNL     1      15.598   5.450   0.096  0.00  0.00    +0.146 C 
ATOM     10  C   UNL     1      16.488   6.259  -0.865  0.00  0.00    +0.030 C 
ATOM     11  C   UNL     1      15.921   5.993  -2.252  0.00  0.00    +0.017 C 
ATOM     12  C   UNL     1      15.180   4.681  -2.089  0.00  0.00    +0.085 C 
BRANCH   3  13
ATOM     13  C   UNL     1      14.053   3.580  -0.249  0.00  0.00    +0.121 C 
BRANCH  13  15
ATOM      7  N   UNL     1      10.365   4.304   0.207  0.00  0.00    -0.263 NA
ATOM     15  C   UNL     1      12.711   3.754   0.411  0.00  0.00    -0.015 A 
ATOM     19  C   UNL     1      12.550   3.543   1.775  0.00  0.00    +0.008 A 
ATOM     20  C   UNL     1      11.597   4.130  -0.323  0.00  0.00    +0.115 A 
ATOM     26  C   UNL     1      11.299   3.713   2.358  0.00  0.00    +0.020 A 
ATOM     29  C   UNL     1      10.249   4.090   1.537  0.00  0.00    +0.111 A 
ENDBRANCH  13  15
ENDBRANCH   3  13
ENDBRANCH  14   9
TORSDOF 4
ENDMDL
MODEL 10
REMARK VINA RESULT:      -6.4      4.150      8.358
REMARK  Name = 45783297
REMARK  4 active torsions:
REMARK  status: ('A' for Active; 'I' for Inactive)
REMARK    1  A    between atoms: N_3  and  C_13
REMARK    2  A    between atoms: C_9  and  C_14
REMARK    3  A    between atoms: C_13  and  C_15
REMARK    4  A    between atoms: C_16  and  C_21
REMARK                            x       y       z     vdW  Elec       q    Type
REMARK                         _______ _______ _______ _____ _____    ______ ____
ROOT
ATOM      1  O   UNL     1      12.289  10.623  20.747  0.00  0.00    -0.336 OA
ATOM      4  N   UNL     1      13.064  10.350  18.664  0.00  0.00    -0.190 NA
ATOM      6  N   UNL     1      12.854  11.850  20.378  0.00  0.00    -0.056 NA
ATOM     14  C   UNL     1      12.455   9.797  19.681  0.00  0.00    +0.245 A 
ATOM     16  C   UNL     1      13.290  11.609  19.138  0.00  0.00    +0.202 A 
ENDROOT
BRANCH  16  21
ATOM      2  O   UNL     1      16.695  12.442  12.571  0.00  0.00    -0.377 OA
ATOM      5  N   UNL     1      15.675  12.906  15.149  0.00  0.00    -0.311 N 
ATOM      8  N   UNL     1      15.245  14.544  16.802  0.00  0.00    -0.240 NA
ATOM     17  C   UNL     1      14.808  12.368  14.094  0.00  0.00    +0.134 C 
ATOM     18  C   UNL     1      16.855  13.641  14.673  0.00  0.00    +0.134 C 
ATOM     21  C   UNL     1      13.954  12.604  18.346  0.00  0.00    +0.027 A 
ATOM     22  C   UNL     1      15.130  13.263  16.386  0.00  0.00    +0.122 A 
ATOM     23  C   UNL     1      15.648  11.611  13.073  0.00  0.00    +0.178 C 
ATOM     24  C   UNL     1      17.587  12.816  13.621  0.00  0.00    +0.178 C 
ATOM     25  C   UNL     1      14.500  12.266  17.113  0.00  0.00    +0.055 A 
ATOM     27  C   UNL     1      14.053  13.912  18.808  0.00  0.00    +0.031 A 
ATOM     28  C   UNL     1      14.703  14.835  18.005  0.00  0.00    +0.113 A 
ENDBRANCH  16  21
BRANCH  14   9
ATOM      3  N   UNL     1      12.891   7.476  20.468  0.00  0.00    -0.287 NA
ATOM      9  C   UNL     1      11.919   8.388  19.832  0.00  0.00    +0.146 C 
ATOM     10  C   UNL     1      10.672   8.320  20.732  0.00  0.00    +0.030 C 
ATOM     11  C   UNL     1      11.014   7.301  21.809  0.00  0.00    +0.017 C 
ATOM     12  C   UNL     1      12.107   6.465  21.175  0.00  0.00    +0.085 C 
BRANCH   3  13
ATOM     13  C   UNL     1      13.826   6.883  19.521  0.00  0.00    +0.121 C 
BRANCH  13  15
ATOM      7  N   UNL     1      16.854   8.090  21.447  0.00  0.00    -0.263 NA
ATOM     15  C   UNL     1      15.254   7.032  19.975  0.00  0.00    -0.015 A 
ATOM     19  C   UNL     1      16.274   6.294  19.386  0.00  0.00    +0.008 A 
ATOM     20  C   UNL     1      15.593   7.909  20.994  0.00  0.00    +0.115 A 
ATOM     26  C   UNL     1      17.584   6.454  19.824  0.00  0.00    +0.020 A 
ATOM     29  C   UNL     1      17.819   7.356  20.849  0.00  0.00    +0.111 A 
ENDBRANCH  13  15
ENDBRANCH   3  13
ENDBRANCH  14   9
TORSDOF 4
ENDMDL
