MODEL 1
REMARK VINA RESULT:      -6.9      0.000      0.000
REMARK  Name = 45361599
REMARK  13 active torsions:
REMARK  status: ('A' for Active; 'I' for Inactive)
REMARK    1  A    between atoms: O_3  and  C_12
REMARK    2  A    between atoms: O_6  and  C_27
REMARK    3  A    between atoms: O_6  and  C_31
REMARK    4  A    between atoms: N_7  and  C_16
REMARK    5  A    between atoms: N_8  and  C_26
REMARK    6  A    between atoms: C_9  and  C_19
REMARK    7  A    between atoms: C_11  and  C_21
REMARK    8  A    between atoms: C_15  and  C_20
REMARK    9  A    between atoms: C_20  and  C_22
REMARK   10  A    between atoms: C_20  and  C_23
REMARK   11  A    between atoms: C_24  and  C_25
REMARK   12  A    between atoms: C_25  and  C_27
REMARK   13  A    between atoms: C_26  and  C_28
REMARK                            x       y       z     vdW  Elec       q    Type
REMARK                         _______ _______ _______ _____ _____    ______ ____
ROOT
ATOM      9  C   UNL     1      11.819   8.364  21.334  0.00  0.00    -0.027 C 
ATOM     10  C   UNL     1      12.972   9.420  21.417  0.00  0.00    +0.028 C 
ATOM     11  C   UNL     1      12.391  10.869  21.599  0.00  0.00    +0.012 C 
ATOM     12  C   UNL     1      13.982   9.246  20.247  0.00  0.00    +0.122 C 
ATOM     13  C   UNL     1      12.426   6.943  21.270  0.00  0.00    +0.007 C 
ATOM     14  C   UNL     1      10.961   8.452  22.616  0.00  0.00    +0.009 C 
ATOM     15  C   UNL     1      14.506   7.797  20.124  0.00  0.00    +0.029 C 
ATOM     16  C   UNL     1      11.469  10.925  22.849  0.00  0.00    +0.076 C 
ATOM     17  C   UNL     1      13.386   6.758  20.101  0.00  0.00    +0.007 C 
ATOM     18  C   UNL     1      10.390   9.842  22.860  0.00  0.00    +0.023 C 
ATOM     19  C   UNL     1      10.911   8.573  20.096  0.00  0.00    +0.011 C 
ATOM     21  C   UNL     1      13.472  11.955  21.718  0.00  0.00    +0.010 C 
ENDROOT
BRANCH  16   7
ATOM      5  O   UNL     1      10.574  12.180  25.289  0.00  0.00    -0.276 OA
ATOM      7  N   UNL     1      10.823  12.216  22.981  0.00  0.00    -0.312 N 
ATOM     24  C   UNL     1      10.428  12.734  24.203  0.00  0.00    +0.215 C 
ATOM     35  H   UNL     1      10.599  12.726  22.132  0.00  0.00    +0.149 HD
BRANCH  24  25
ATOM     25  C   UNL     1       9.782  14.101  24.043  0.00  0.00    +0.124 C 
BRANCH  25  27
ATOM     27  C   UNL     1      10.781  15.193  23.691  0.00  0.00    +0.168 C 
BRANCH  27   6
ATOM      6  O   UNL     1      12.099  14.734  23.968  0.00  0.00    -0.382 OA
ATOM     31  C   UNL     1      13.055  15.351  23.119  0.00  0.00    +0.194 C 
ENDBRANCH  27   6
ENDBRANCH  25  27
ENDBRANCH  24  25
ENDBRANCH  16   7
BRANCH  12   3
ATOM      3  O   UNL     1      15.123  10.075  20.475  0.00  0.00    -0.391 OA
ATOM     36  H   UNL     1      15.675   9.651  21.152  0.00  0.00    +0.210 HD
ENDBRANCH  12   3
BRANCH  15  20
ATOM     20  C   UNL     1      15.396   7.617  18.888  0.00  0.00    +0.077 C 
ATOM     22  C   UNL     1      14.552   7.201  17.688  0.00  0.00    +0.017 C 
BRANCH  20  23
ATOM      4  O   UNL     1      16.580   5.527  18.576  0.00  0.00    -0.276 OA
ATOM      8  N   UNL     1      17.349   7.008  20.186  0.00  0.00    -0.311 N 
ATOM     23  C   UNL     1      16.490   6.595  19.179  0.00  0.00    +0.216 C 
ATOM     37  H   UNL     1      17.240   7.929  20.601  0.00  0.00    +0.149 HD
BRANCH   8  26
ATOM     26  C   UNL     1      18.464   6.209  20.640  0.00  0.00    +0.139 C 
BRANCH  26  28
ATOM      1  F   UNL     1      19.545  10.215  23.202  0.00  0.00    -0.205 F 
ATOM      2  F   UNL     1      21.989   6.241  24.010  0.00  0.00    -0.205 F 
ATOM     28  C   UNL     1      19.275   6.919  21.684  0.00  0.00    -0.025 A 
ATOM     29  C   UNL     1      20.275   6.236  22.375  0.00  0.00    +0.043 A 
ATOM     30  C   UNL     1      19.028   8.264  21.964  0.00  0.00    +0.043 A 
ATOM     32  C   UNL     1      19.782   8.925  22.933  0.00  0.00    +0.126 A 
ATOM     33  C   UNL     1      21.029   6.897  23.346  0.00  0.00    +0.126 A 
ATOM     34  C   UNL     1      20.782   8.241  23.625  0.00  0.00    +0.076 A 
ENDBRANCH  26  28
ENDBRANCH   8  26
ENDBRANCH  20  23
ENDBRANCH  15  20
TORSDOF 9
ENDMDL
MODEL 2
REMARK VINA RESULT:      -6.9      2.029      2.510
REMARK  Name = 45361599
REMARK  13 active torsions:
REMARK  status: ('A' for Active; 'I' for Inactive)
REMARK    1  A    between atoms: O_3  and  C_12
REMARK    2  A    between atoms: O_6  and  C_27
REMARK    3  A    between atoms: O_6  and  C_31
REMARK    4  A    between atoms: N_7  and  C_16
REMARK    5  A    between atoms: N_8  and  C_26
REMARK    6  A    between atoms: C_9  and  C_19
REMARK    7  A    between atoms: C_11  and  C_21
REMARK    8  A    between atoms: C_15  and  C_20
REMARK    9  A    between atoms: C_20  and  C_22
REMARK   10  A    between atoms: C_20  and  C_23
REMARK   11  A    between atoms: C_24  and  C_25
REMARK   12  A    between atoms: C_25  and  C_27
REMARK   13  A    between atoms: C_26  and  C_28
REMARK                            x       y       z     vdW  Elec       q    Type
REMARK                         _______ _______ _______ _____ _____    ______ ____
ROOT
ATOM      9  C   UNL     1      12.417   8.200  21.317  0.00  0.00    -0.027 C 
ATOM     10  C   UNL     1      13.460   9.149  21.997  0.00  0.00    +0.028 C 
ATOM     11  C   UNL     1      12.850  10.579  22.225  0.00  0.00    +0.012 C 
ATOM     12  C   UNL     1      14.824   9.116  21.250  0.00  0.00    +0.122 C 
ATOM     13  C   UNL     1      13.009   6.775  21.211  0.00  0.00    +0.007 C 
ATOM     14  C   UNL     1      11.154   8.120  22.205  0.00  0.00    +0.009 C 
ATOM     15  C   UNL     1      15.360   7.679  21.055  0.00  0.00    +0.029 C 
ATOM     16  C   UNL     1      11.539  10.478  23.055  0.00  0.00    +0.076 C 
ATOM     17  C   UNL     1      14.326   6.734  20.446  0.00  0.00    +0.007 C 
ATOM     18  C   UNL     1      10.531   9.481  22.483  0.00  0.00    +0.023 C 
ATOM     19  C   UNL     1      12.014   8.679  19.899  0.00  0.00    +0.011 C 
ATOM     21  C   UNL     1      13.813  11.557  22.917  0.00  0.00    +0.010 C 
ENDROOT
BRANCH  16   7
ATOM      5  O   UNL     1      10.803  11.813  25.506  0.00  0.00    -0.276 OA
ATOM      7  N   UNL     1      10.887  11.765  23.186  0.00  0.00    -0.312 N 
ATOM     24  C   UNL     1      10.572  12.325  24.414  0.00  0.00    +0.215 C 
ATOM     35  H   UNL     1      10.595  12.241  22.337  0.00  0.00    +0.149 HD
BRANCH  24  25
ATOM     25  C   UNL     1       9.897  13.677  24.250  0.00  0.00    +0.124 C 
BRANCH  25  27
ATOM     27  C   UNL     1      10.430  14.467  23.064  0.00  0.00    +0.168 C 
BRANCH  27   6
ATOM      6  O   UNL     1       9.520  14.355  21.976  0.00  0.00    -0.382 OA
ATOM     31  C   UNL     1       8.270  14.959  22.278  0.00  0.00    +0.194 C 
ENDBRANCH  27   6
ENDBRANCH  25  27
ENDBRANCH  24  25
ENDBRANCH  16   7
BRANCH  12   3
ATOM      3  O   UNL     1      15.805   9.818  22.015  0.00  0.00    -0.391 OA
ATOM     36  H   UNL     1      15.461   9.929  22.918  0.00  0.00    +0.210 HD
ENDBRANCH  12   3
BRANCH  15  20
ATOM     20  C   UNL     1      16.636   7.659  20.203  0.00  0.00    +0.077 C 
ATOM     22  C   UNL     1      16.739   6.342  19.442  0.00  0.00    +0.017 C 
BRANCH  20  23
ATOM      4  O   UNL     1      18.357   8.995  21.261  0.00  0.00    -0.276 OA
ATOM      8  N   UNL     1      18.320   6.712  21.666  0.00  0.00    -0.311 N 
ATOM     23  C   UNL     1      17.856   7.885  21.090  0.00  0.00    +0.216 C 
ATOM     37  H   UNL     1      17.818   5.841  21.518  0.00  0.00    +0.149 HD
BRANCH   8  26
ATOM     26  C   UNL     1      19.466   6.672  22.545  0.00  0.00    +0.139 C 
BRANCH  26  28
ATOM      1  F   UNL     1      23.364   7.789  19.835  0.00  0.00    -0.205 F 
ATOM      2  F   UNL     1      22.677   3.286  21.129  0.00  0.00    -0.205 F 
ATOM     28  C   UNL     1      20.717   6.272  21.818  0.00  0.00    -0.025 A 
ATOM     29  C   UNL     1      21.123   4.938  21.811  0.00  0.00    +0.043 A 
ATOM     30  C   UNL     1      21.474   7.235  21.151  0.00  0.00    +0.043 A 
ATOM     32  C   UNL     1      22.637   6.864  20.475  0.00  0.00    +0.126 A 
ATOM     33  C   UNL     1      22.287   4.567  21.136  0.00  0.00    +0.126 A 
ATOM     34  C   UNL     1      23.043   5.530  20.469  0.00  0.00    +0.076 A 
ENDBRANCH  26  28
ENDBRANCH   8  26
ENDBRANCH  20  23
ENDBRANCH  15  20
TORSDOF 9
ENDMDL
MODEL 3
REMARK VINA RESULT:      -6.9     28.239     30.258
REMARK  Name = 45361599
REMARK  13 active torsions:
REMARK  status: ('A' for Active; 'I' for Inactive)
REMARK    1  A    between atoms: O_3  and  C_12
REMARK    2  A    between atoms: O_6  and  C_27
REMARK    3  A    between atoms: O_6  and  C_31
REMARK    4  A    between atoms: N_7  and  C_16
REMARK    5  A    between atoms: N_8  and  C_26
REMARK    6  A    between atoms: C_9  and  C_19
REMARK    7  A    between atoms: C_11  and  C_21
REMARK    8  A    between atoms: C_15  and  C_20
REMARK    9  A    between atoms: C_20  and  C_22
REMARK   10  A    between atoms: C_20  and  C_23
REMARK   11  A    between atoms: C_24  and  C_25
REMARK   12  A    between atoms: C_25  and  C_27
REMARK   13  A    between atoms: C_26  and  C_28
REMARK                            x       y       z     vdW  Elec       q    Type
REMARK                         _______ _______ _______ _____ _____    ______ ____
ROOT
ATOM      9  C   UNL     1      -4.656 -11.048  16.923  0.00  0.00    -0.027 C 
ATOM     10  C   UNL     1      -5.489 -10.480  15.726  0.00  0.00    +0.028 C 
ATOM     11  C   UNL     1      -7.029 -10.659  15.981  0.00  0.00    +0.012 C 
ATOM     12  C   UNL     1      -4.969 -11.028  14.366  0.00  0.00    +0.122 C 
ATOM     13  C   UNL     1      -3.155 -10.754  16.692  0.00  0.00    +0.007 C 
ATOM     14  C   UNL     1      -5.082 -10.325  18.222  0.00  0.00    +0.009 C 
ATOM     15  C   UNL     1      -3.447 -10.825  14.186  0.00  0.00    +0.029 C 
ATOM     16  C   UNL     1      -7.432  -9.994  17.327  0.00  0.00    +0.076 C 
ATOM     17  C   UNL     1      -2.633 -11.324  15.379  0.00  0.00    +0.007 C 
ATOM     18  C   UNL     1      -6.572 -10.442  18.509  0.00  0.00    +0.023 C 
ATOM     19  C   UNL     1      -4.842 -12.575  17.105  0.00  0.00    +0.011 C 
ATOM     21  C   UNL     1      -7.910 -10.096  14.855  0.00  0.00    +0.010 C 
ENDROOT
BRANCH  16   7
ATOM      5  O   UNL     1      -9.537  -8.032  17.558  0.00  0.00    -0.276 OA
ATOM      7  N   UNL     1      -8.822 -10.239  17.652  0.00  0.00    -0.312 N 
ATOM     24  C   UNL     1      -9.762  -9.225  17.741  0.00  0.00    +0.215 C 
ATOM     35  H   UNL     1      -9.097 -11.189  17.885  0.00  0.00    +0.149 HD
BRANCH  24  25
ATOM     25  C   UNL     1     -11.136  -9.772  18.093  0.00  0.00    +0.124 C 
BRANCH  25  27
ATOM     27  C   UNL     1     -11.355  -9.908  19.593  0.00  0.00    +0.168 C 
BRANCH  27   6
ATOM      6  O   UNL     1     -10.272 -10.633  20.163  0.00  0.00    -0.382 OA
ATOM     31  C   UNL     1     -10.560 -12.023  20.240  0.00  0.00    +0.194 C 
ENDBRANCH  27   6
ENDBRANCH  25  27
ENDBRANCH  24  25
ENDBRANCH  16   7
BRANCH  12   3
ATOM      3  O   UNL     1      -5.604 -10.329  13.295  0.00  0.00    -0.391 OA
ATOM     36  H   UNL     1      -5.901 -10.984  12.640  0.00  0.00    +0.210 HD
ENDBRANCH  12   3
BRANCH  15  20
ATOM     20  C   UNL     1      -2.932 -11.488  12.903  0.00  0.00    +0.077 C 
ATOM     22  C   UNL     1      -1.737 -12.381  13.214  0.00  0.00    +0.017 C 
BRANCH  20  23
ATOM      4  O   UNL     1      -1.451  -9.931  11.786  0.00  0.00    -0.276 OA
ATOM      8  N   UNL     1      -3.651 -10.076  11.069  0.00  0.00    -0.311 N 
ATOM     23  C   UNL     1      -2.575 -10.420  11.874  0.00  0.00    +0.216 C 
ATOM     37  H   UNL     1      -4.536 -10.565  11.168  0.00  0.00    +0.149 HD
BRANCH   8  26
ATOM     26  C   UNL     1      -3.559  -9.085  10.021  0.00  0.00    +0.139 C 
BRANCH  26  28
ATOM      1  F   UNL     1      -8.107  -7.559   9.143  0.00  0.00    -0.205 F 
ATOM      2  F   UNL     1      -6.012 -10.452   6.034  0.00  0.00    -0.205 F 
ATOM     28  C   UNL     1      -4.792  -9.058   9.165  0.00  0.00    -0.025 A 
ATOM     29  C   UNL     1      -4.830  -9.783   7.974  0.00  0.00    +0.043 A 
ATOM     30  C   UNL     1      -5.899  -8.306   9.559  0.00  0.00    +0.043 A 
ATOM     32  C   UNL     1      -7.044  -8.281   8.764  0.00  0.00    +0.126 A 
ATOM     33  C   UNL     1      -5.976  -9.757   7.178  0.00  0.00    +0.126 A 
ATOM     34  C   UNL     1      -7.082  -9.005   7.573  0.00  0.00    +0.076 A 
ENDBRANCH  26  28
ENDBRANCH   8  26
ENDBRANCH  20  23
ENDBRANCH  15  20
TORSDOF 9
ENDMDL
MODEL 4
REMARK VINA RESULT:      -6.7      5.020      8.548
REMARK  Name = 45361599
REMARK  13 active torsions:
REMARK  status: ('A' for Active; 'I' for Inactive)
REMARK    1  A    between atoms: O_3  and  C_12
REMARK    2  A    between atoms: O_6  and  C_27
REMARK    3  A    between atoms: O_6  and  C_31
REMARK    4  A    between atoms: N_7  and  C_16
REMARK    5  A    between atoms: N_8  and  C_26
REMARK    6  A    between atoms: C_9  and  C_19
REMARK    7  A    between atoms: C_11  and  C_21
REMARK    8  A    between atoms: C_15  and  C_20
REMARK    9  A    between atoms: C_20  and  C_22
REMARK   10  A    between atoms: C_20  and  C_23
REMARK   11  A    between atoms: C_24  and  C_25
REMARK   12  A    between atoms: C_25  and  C_27
REMARK   13  A    between atoms: C_26  and  C_28
REMARK                            x       y       z     vdW  Elec       q    Type
REMARK                         _______ _______ _______ _____ _____    ______ ____
ROOT
ATOM      9  C   UNL     1      13.040   9.042  17.139  0.00  0.00    -0.027 C 
ATOM     10  C   UNL     1      13.546  10.111  18.164  0.00  0.00    +0.028 C 
ATOM     11  C   UNL     1      14.862  10.799  17.651  0.00  0.00    +0.012 C 
ATOM     12  C   UNL     1      13.615   9.525  19.603  0.00  0.00    +0.122 C 
ATOM     13  C   UNL     1      11.687   8.466  17.619  0.00  0.00    +0.007 C 
ATOM     14  C   UNL     1      12.803   9.725  15.773  0.00  0.00    +0.009 C 
ATOM     15  C   UNL     1      12.289   8.858  20.038  0.00  0.00    +0.029 C 
ATOM     16  C   UNL     1      14.632  11.417  16.243  0.00  0.00    +0.076 C 
ATOM     17  C   UNL     1      11.761   7.856  19.013  0.00  0.00    +0.007 C 
ATOM     18  C   UNL     1      14.039  10.432  15.236  0.00  0.00    +0.023 C 
ATOM     19  C   UNL     1      14.042   7.873  16.958  0.00  0.00    +0.011 C 
ATOM     21  C   UNL     1      15.399  11.884  18.598  0.00  0.00    +0.010 C 
ENDROOT
BRANCH  16   7
ATOM      5  O   UNL     1      14.945  13.914  14.829  0.00  0.00    -0.276 OA
ATOM      7  N   UNL     1      15.856  11.959  15.689  0.00  0.00    -0.312 N 
ATOM     24  C   UNL     1      15.904  13.173  15.023  0.00  0.00    +0.215 C 
ATOM     35  H   UNL     1      16.696  11.390  15.741  0.00  0.00    +0.149 HD
BRANCH  24  25
ATOM     25  C   UNL     1      17.315  13.491  14.552  0.00  0.00    +0.124 C 
BRANCH  25  27
ATOM     27  C   UNL     1      18.321  13.554  15.692  0.00  0.00    +0.168 C 
BRANCH  27   6
ATOM      6  O   UNL     1      18.854  12.255  15.922  0.00  0.00    -0.382 OA
ATOM     31  C   UNL     1      19.550  11.768  14.784  0.00  0.00    +0.194 C 
ENDBRANCH  27   6
ENDBRANCH  25  27
ENDBRANCH  24  25
ENDBRANCH  16   7
BRANCH  12   3
ATOM      3  O   UNL     1      13.868  10.576  20.535  0.00  0.00    -0.391 OA
ATOM     36  H   UNL     1      14.675  11.041  20.256  0.00  0.00    +0.210 HD
ENDBRANCH  12   3
BRANCH  15  20
ATOM     20  C   UNL     1      12.419   8.172  21.404  0.00  0.00    +0.077 C 
ATOM     22  C   UNL     1      12.140   6.679  21.271  0.00  0.00    +0.017 C 
BRANCH  20  23
ATOM      4  O   UNL     1      10.392   8.335  22.720  0.00  0.00    -0.276 OA
ATOM      8  N   UNL     1      11.974  10.020  22.907  0.00  0.00    -0.311 N 
ATOM     23  C   UNL     1      11.474   8.827  22.406  0.00  0.00    +0.216 C 
ATOM     37  H   UNL     1      12.902  10.334  22.639  0.00  0.00    +0.149 HD
BRANCH   8  26
ATOM     26  C   UNL     1      11.259  10.824  23.871  0.00  0.00    +0.139 C 
BRANCH  26  28
ATOM      1  F   UNL     1       9.367  15.287  24.413  0.00  0.00    -0.205 F 
ATOM      2  F   UNL     1      11.096  14.020  20.190  0.00  0.00    -0.205 F 
ATOM     28  C   UNL     1      10.897  12.172  23.318  0.00  0.00    -0.025 A 
ATOM     29  C   UNL     1      11.169  12.476  21.984  0.00  0.00    +0.043 A 
ATOM     30  C   UNL     1      10.288  13.122  24.138  0.00  0.00    +0.043 A 
ATOM     32  C   UNL     1       9.951  14.374  23.625  0.00  0.00    +0.126 A 
ATOM     33  C   UNL     1      10.833  13.729  21.471  0.00  0.00    +0.126 A 
ATOM     34  C   UNL     1      10.225  14.678  22.292  0.00  0.00    +0.076 A 
ENDBRANCH  26  28
ENDBRANCH   8  26
ENDBRANCH  20  23
ENDBRANCH  15  20
TORSDOF 9
ENDMDL
MODEL 5
REMARK VINA RESULT:      -6.5     28.061     30.525
REMARK  Name = 45361599
REMARK  13 active torsions:
REMARK  status: ('A' for Active; 'I' for Inactive)
REMARK    1  A    between atoms: O_3  and  C_12
REMARK    2  A    between atoms: O_6  and  C_27
REMARK    3  A    between atoms: O_6  and  C_31
REMARK    4  A    between atoms: N_7  and  C_16
REMARK    5  A    between atoms: N_8  and  C_26
REMARK    6  A    between atoms: C_9  and  C_19
REMARK    7  A    between atoms: C_11  and  C_21
REMARK    8  A    between atoms: C_15  and  C_20
REMARK    9  A    between atoms: C_20  and  C_22
REMARK   10  A    between atoms: C_20  and  C_23
REMARK   11  A    between atoms: C_24  and  C_25
REMARK   12  A    between atoms: C_25  and  C_27
REMARK   13  A    between atoms: C_26  and  C_28
REMARK                            x       y       z     vdW  Elec       q    Type
REMARK                         _______ _______ _______ _____ _____    ______ ____
ROOT
ATOM      9  C   UNL     1      -3.439 -10.693  10.807  0.00  0.00    -0.027 C 
ATOM     10  C   UNL     1      -4.682 -10.304  11.675  0.00  0.00    +0.028 C 
ATOM     11  C   UNL     1      -5.464  -9.105  11.026  0.00  0.00    +0.012 C 
ATOM     12  C   UNL     1      -4.290 -10.115  13.169  0.00  0.00    +0.122 C 
ATOM     13  C   UNL     1      -2.759 -11.943  11.412  0.00  0.00    +0.007 C 
ATOM     14  C   UNL     1      -3.913 -11.058   9.382  0.00  0.00    +0.009 C 
ATOM     15  C   UNL     1      -3.518 -11.328  13.739  0.00  0.00    +0.029 C 
ATOM     16  C   UNL     1      -5.870  -9.456   9.567  0.00  0.00    +0.076 C 
ATOM     17  C   UNL     1      -2.339 -11.748  12.863  0.00  0.00    +0.007 C 
ATOM     18  C   UNL     1      -4.701  -9.943   8.710  0.00  0.00    +0.023 C 
ATOM     19  C   UNL     1      -2.394  -9.551  10.720  0.00  0.00    +0.011 C 
ATOM     21  C   UNL     1      -6.717  -8.689  11.813  0.00  0.00    +0.010 C 
ENDROOT
BRANCH  16   7
ATOM      5  O   UNL     1      -8.410  -9.435   8.195  0.00  0.00    -0.276 OA
ATOM      7  N   UNL     1      -6.491  -8.331   8.898  0.00  0.00    -0.312 N 
ATOM     24  C   UNL     1      -7.720  -8.421   8.263  0.00  0.00    +0.215 C 
ATOM     35  H   UNL     1      -5.969  -7.461   8.842  0.00  0.00    +0.149 HD
BRANCH  24  25
ATOM     25  C   UNL     1      -8.127  -7.090   7.652  0.00  0.00    +0.124 C 
BRANCH  25  27
ATOM     27  C   UNL     1      -8.723  -7.234   6.259  0.00  0.00    +0.168 C 
BRANCH  27   6
ATOM      6  O   UNL     1      -7.723  -7.709   5.365  0.00  0.00    -0.382 OA
ATOM     31  C   UNL     1      -8.291  -8.178   4.150  0.00  0.00    +0.194 C 
ENDBRANCH  27   6
ENDBRANCH  25  27
ENDBRANCH  24  25
ENDBRANCH  16   7
BRANCH  12   3
ATOM      3  O   UNL     1      -5.472  -9.976  13.958  0.00  0.00    -0.391 OA
ATOM     36  H   UNL     1      -5.230 -10.103  14.891  0.00  0.00    +0.210 HD
ENDBRANCH  12   3
BRANCH  15  20
ATOM     20  C   UNL     1      -3.028 -11.068  15.168  0.00  0.00    +0.077 C 
ATOM     22  C   UNL     1      -1.528 -11.326  15.265  0.00  0.00    +0.017 C 
BRANCH  20  23
ATOM      4  O   UNL     1      -4.360 -12.984  15.817  0.00  0.00    -0.276 OA
ATOM      8  N   UNL     1      -3.811 -11.417  17.435  0.00  0.00    -0.311 N 
ATOM     23  C   UNL     1      -3.806 -11.939  16.150  0.00  0.00    +0.216 C 
ATOM     37  H   UNL     1      -3.284 -10.574  17.643  0.00  0.00    +0.149 HD
BRANCH   8  26
ATOM     26  C   UNL     1      -4.484 -12.062  18.539  0.00  0.00    +0.139 C 
BRANCH  26  28
ATOM      1  F   UNL     1      -9.016 -12.681  20.230  0.00  0.00    -0.205 F 
ATOM      2  F   UNL     1      -8.046  -8.867  17.596  0.00  0.00    -0.205 F 
ATOM     28  C   UNL     1      -5.909 -11.608  18.669  0.00  0.00    -0.025 A 
ATOM     29  C   UNL     1      -6.324 -10.425  18.059  0.00  0.00    +0.043 A 
ATOM     30  C   UNL     1      -6.819 -12.370  19.404  0.00  0.00    +0.043 A 
ATOM     32  C   UNL     1      -8.143 -11.949  19.525  0.00  0.00    +0.126 A 
ATOM     33  C   UNL     1      -7.648 -10.004  18.182  0.00  0.00    +0.126 A 
ATOM     34  C   UNL     1      -8.557 -10.766  18.915  0.00  0.00    +0.076 A 
ENDBRANCH  26  28
ENDBRANCH   8  26
ENDBRANCH  20  23
ENDBRANCH  15  20
TORSDOF 9
ENDMDL
MODEL 6
REMARK VINA RESULT:      -6.4     27.725     30.730
REMARK  Name = 45361599
REMARK  13 active torsions:
REMARK  status: ('A' for Active; 'I' for Inactive)
REMARK    1  A    between atoms: O_3  and  C_12
REMARK    2  A    between atoms: O_6  and  C_27
REMARK    3  A    between atoms: O_6  and  C_31
REMARK    4  A    between atoms: N_7  and  C_16
REMARK    5  A    between atoms: N_8  and  C_26
REMARK    6  A    between atoms: C_9  and  C_19
REMARK    7  A    between atoms: C_11  and  C_21
REMARK    8  A    between atoms: C_15  and  C_20
REMARK    9  A    between atoms: C_20  and  C_22
REMARK   10  A    between atoms: C_20  and  C_23
REMARK   11  A    between atoms: C_24  and  C_25
REMARK   12  A    between atoms: C_25  and  C_27
REMARK   13  A    between atoms: C_26  and  C_28
REMARK                            x       y       z     vdW  Elec       q    Type
REMARK                         _______ _______ _______ _____ _____    ______ ____
ROOT
ATOM      9  C   UNL     1      -3.292 -11.316  11.732  0.00  0.00    -0.027 C 
ATOM     10  C   UNL     1      -4.612 -10.751  12.355  0.00  0.00    +0.028 C 
ATOM     11  C   UNL     1      -5.309  -9.744  11.370  0.00  0.00    +0.012 C 
ATOM     12  C   UNL     1      -4.374 -10.219  13.797  0.00  0.00    +0.122 C 
ATOM     13  C   UNL     1      -2.694 -12.385  12.676  0.00  0.00    +0.007 C 
ATOM     14  C   UNL     1      -3.622 -12.006  10.389  0.00  0.00    +0.009 C 
ATOM     15  C   UNL     1      -3.680 -11.258  14.707  0.00  0.00    +0.029 C 
ATOM     16  C   UNL     1      -5.567 -10.426   9.997  0.00  0.00    +0.076 C 
ATOM     17  C   UNL     1      -2.423 -11.856  14.079  0.00  0.00    +0.007 C 
ATOM     18  C   UNL     1      -4.323 -11.084   9.401  0.00  0.00    +0.023 C 
ATOM     19  C   UNL     1      -2.230 -10.214  11.492  0.00  0.00    +0.011 C 
ATOM     21  C   UNL     1      -6.631  -9.171  11.907  0.00  0.00    +0.010 C 
ENDROOT
BRANCH  16   7
ATOM      5  O   UNL     1      -7.754 -10.882   8.169  0.00  0.00    -0.276 OA
ATOM      7  N   UNL     1      -6.102  -9.493   9.027  0.00  0.00    -0.312 N 
ATOM     24  C   UNL     1      -7.160  -9.807   8.188  0.00  0.00    +0.215 C 
ATOM     35  H   UNL     1      -5.636  -8.597   8.919  0.00  0.00    +0.149 HD
BRANCH  24  25
ATOM     25  C   UNL     1      -7.511  -8.641   7.278  0.00  0.00    +0.124 C 
BRANCH  25  27
ATOM     27  C   UNL     1      -7.839  -7.368   8.043  0.00  0.00    +0.168 C 
BRANCH  27   6
ATOM      6  O   UNL     1      -8.577  -7.698   9.213  0.00  0.00    -0.382 OA
ATOM     31  C   UNL     1      -9.931  -7.281   9.109  0.00  0.00    +0.194 C 
ENDBRANCH  27   6
ENDBRANCH  25  27
ENDBRANCH  24  25
ENDBRANCH  16   7
BRANCH  12   3
ATOM      3  O   UNL     1      -5.629  -9.914  14.407  0.00  0.00    -0.391 OA
ATOM     36  H   UNL     1      -6.262  -9.694  13.703  0.00  0.00    +0.210 HD
ENDBRANCH  12   3
BRANCH  15  20
ATOM     20  C   UNL     1      -3.336 -10.670  16.081  0.00  0.00    +0.077 C 
ATOM     22  C   UNL     1      -1.829 -10.709  16.307  0.00  0.00    +0.017 C 
BRANCH  20  23
ATOM      4  O   UNL     1      -3.617 -11.606  18.298  0.00  0.00    -0.276 OA
ATOM      8  N   UNL     1      -5.319 -11.892  16.750  0.00  0.00    -0.311 N 
ATOM     23  C   UNL     1      -4.082 -11.431  17.173  0.00  0.00    +0.216 C 
ATOM     37  H   UNL     1      -5.656 -11.661  15.820  0.00  0.00    +0.149 HD
BRANCH   8  26
ATOM     26  C   UNL     1      -6.210 -12.642  17.606  0.00  0.00    +0.139 C 
BRANCH  26  28
ATOM      1  F   UNL     1      -9.007  -8.663  17.246  0.00  0.00    -0.205 F 
ATOM      2  F   UNL     1     -10.102 -11.960  20.464  0.00  0.00    -0.205 F 
ATOM     28  C   UNL     1      -7.387 -11.821  18.047  0.00  0.00    -0.025 A 
ATOM     29  C   UNL     1      -8.213 -12.281  19.072  0.00  0.00    +0.043 A 
ATOM     30  C   UNL     1      -7.656 -10.599  17.430  0.00  0.00    +0.043 A 
ATOM     32  C   UNL     1      -8.749  -9.836  17.838  0.00  0.00    +0.126 A 
ATOM     33  C   UNL     1      -9.308 -11.518  19.480  0.00  0.00    +0.126 A 
ATOM     34  C   UNL     1      -9.576 -10.297  18.863  0.00  0.00    +0.076 A 
ENDBRANCH  26  28
ENDBRANCH   8  26
ENDBRANCH  20  23
ENDBRANCH  15  20
TORSDOF 9
ENDMDL
MODEL 7
REMARK VINA RESULT:      -6.4     15.675     18.497
REMARK  Name = 45361599
REMARK  13 active torsions:
REMARK  status: ('A' for Active; 'I' for Inactive)
REMARK    1  A    between atoms: O_3  and  C_12
REMARK    2  A    between atoms: O_6  and  C_27
REMARK    3  A    between atoms: O_6  and  C_31
REMARK    4  A    between atoms: N_7  and  C_16
REMARK    5  A    between atoms: N_8  and  C_26
REMARK    6  A    between atoms: C_9  and  C_19
REMARK    7  A    between atoms: C_11  and  C_21
REMARK    8  A    between atoms: C_15  and  C_20
REMARK    9  A    between atoms: C_20  and  C_22
REMARK   10  A    between atoms: C_20  and  C_23
REMARK   11  A    between atoms: C_24  and  C_25
REMARK   12  A    between atoms: C_25  and  C_27
REMARK   13  A    between atoms: C_26  and  C_28
REMARK                            x       y       z     vdW  Elec       q    Type
REMARK                         _______ _______ _______ _____ _____    ______ ____
ROOT
ATOM      9  C   UNL     1       9.418   6.315   6.337  0.00  0.00    -0.027 C 
ATOM     10  C   UNL     1      10.492   7.341   5.842  0.00  0.00    +0.028 C 
ATOM     11  C   UNL     1      10.098   8.805   6.254  0.00  0.00    +0.012 C 
ATOM     12  C   UNL     1      10.817   7.135   4.335  0.00  0.00    +0.122 C 
ATOM     13  C   UNL     1       9.891   4.878   6.015  0.00  0.00    +0.007 C 
ATOM     14  C   UNL     1       9.277   6.432   7.871  0.00  0.00    +0.009 C 
ATOM     15  C   UNL     1      11.189   5.671   4.001  0.00  0.00    +0.029 C 
ATOM     16  C   UNL     1       9.885   8.893   7.791  0.00  0.00    +0.076 C 
ATOM     17  C   UNL     1      10.173   4.662   4.534  0.00  0.00    +0.007 C 
ATOM     18  C   UNL     1       8.921   7.838   8.333  0.00  0.00    +0.023 C 
ATOM     19  C   UNL     1       8.033   6.542   5.678  0.00  0.00    +0.011 C 
ATOM     21  C   UNL     1      11.126   9.864   5.824  0.00  0.00    +0.010 C 
ENDROOT
BRANCH  16   7
ATOM      5  O   UNL     1      11.312  10.864   9.344  0.00  0.00    -0.276 OA
ATOM      7  N   UNL     1       9.408  10.200   8.192  0.00  0.00    -0.312 N 
ATOM     24  C   UNL     1      10.172  11.080   8.943  0.00  0.00    +0.215 C 
ATOM     35  H   UNL     1       8.449  10.449   7.964  0.00  0.00    +0.149 HD
BRANCH  24  25
ATOM     25  C   UNL     1       9.421  12.374   9.214  0.00  0.00    +0.124 C 
BRANCH  25  27
ATOM     27  C   UNL     1       9.913  13.096  10.460  0.00  0.00    +0.168 C 
BRANCH  27   6
ATOM      6  O   UNL     1       9.314  12.513  11.611  0.00  0.00    -0.382 OA
ATOM     31  C   UNL     1      10.293  12.092  12.550  0.00  0.00    +0.194 C 
ENDBRANCH  27   6
ENDBRANCH  25  27
ENDBRANCH  24  25
ENDBRANCH  16   7
BRANCH  12   3
ATOM      3  O   UNL     1      11.945   7.935   3.976  0.00  0.00    -0.391 OA
ATOM     36  H   UNL     1      12.424   7.480   3.263  0.00  0.00    +0.210 HD
ENDBRANCH  12   3
BRANCH  15  20
ATOM     20  C   UNL     1      11.377   5.462   2.494  0.00  0.00    +0.077 C 
ATOM     22  C   UNL     1      10.549   4.272   2.021  0.00  0.00    +0.017 C 
BRANCH  20  23
ATOM      4  O   UNL     1      13.668   6.194   2.204  0.00  0.00    -0.276 OA
ATOM      8  N   UNL     1      13.168   3.956   1.860  0.00  0.00    -0.311 N 
ATOM     23  C   UNL     1      12.857   5.270   2.177  0.00  0.00    +0.216 C 
ATOM     37  H   UNL     1      12.451   3.239   1.911  0.00  0.00    +0.149 HD
BRANCH   8  26
ATOM     26  C   UNL     1      14.505   3.528   1.522  0.00  0.00    +0.139 C 
BRANCH  26  28
ATOM      1  F   UNL     1      17.803   5.121  -1.699  0.00  0.00    -0.205 F 
ATOM      2  F   UNL     1      13.390   4.238  -3.173  0.00  0.00    -0.205 F 
ATOM     28  C   UNL     1      14.889   3.934   0.128  0.00  0.00    -0.025 A 
ATOM     29  C   UNL     1      13.942   3.898  -0.895  0.00  0.00    +0.043 A 
ATOM     30  C   UNL     1      16.194   4.347  -0.144  0.00  0.00    +0.043 A 
ATOM     32  C   UNL     1      16.550   4.725  -1.438  0.00  0.00    +0.126 A 
ATOM     33  C   UNL     1      14.300   4.274  -2.190  0.00  0.00    +0.126 A 
ATOM     34  C   UNL     1      15.603   4.687  -2.461  0.00  0.00    +0.076 A 
ENDBRANCH  26  28
ENDBRANCH   8  26
ENDBRANCH  20  23
ENDBRANCH  15  20
TORSDOF 9
ENDMDL
MODEL 8
REMARK VINA RESULT:      -6.4     28.862     32.296
REMARK  Name = 45361599
REMARK  13 active torsions:
REMARK  status: ('A' for Active; 'I' for Inactive)
REMARK    1  A    between atoms: O_3  and  C_12
REMARK    2  A    between atoms: O_6  and  C_27
REMARK    3  A    between atoms: O_6  and  C_31
REMARK    4  A    between atoms: N_7  and  C_16
REMARK    5  A    between atoms: N_8  and  C_26
REMARK    6  A    between atoms: C_9  and  C_19
REMARK    7  A    between atoms: C_11  and  C_21
REMARK    8  A    between atoms: C_15  and  C_20
REMARK    9  A    between atoms: C_20  and  C_22
REMARK   10  A    between atoms: C_20  and  C_23
REMARK   11  A    between atoms: C_24  and  C_25
REMARK   12  A    between atoms: C_25  and  C_27
REMARK   13  A    between atoms: C_26  and  C_28
REMARK                            x       y       z     vdW  Elec       q    Type
REMARK                         _______ _______ _______ _____ _____    ______ ____
ROOT
ATOM      9  C   UNL     1     -14.798   1.933  31.399  0.00  0.00    -0.027 C 
ATOM     10  C   UNL     1     -16.187   2.599  31.118  0.00  0.00    +0.028 C 
ATOM     11  C   UNL     1     -16.466   2.679  29.574  0.00  0.00    +0.012 C 
ATOM     12  C   UNL     1     -16.339   3.938  31.896  0.00  0.00    +0.122 C 
ATOM     13  C   UNL     1     -14.606   1.767  32.925  0.00  0.00    +0.007 C 
ATOM     14  C   UNL     1     -14.777   0.524  30.766  0.00  0.00    +0.009 C 
ATOM     15  C   UNL     1     -16.043   3.785  33.406  0.00  0.00    +0.029 C 
ATOM     16  C   UNL     1     -16.367   1.266  28.935  0.00  0.00    +0.076 C 
ATOM     17  C   UNL     1     -14.715   3.083  33.685  0.00  0.00    +0.007 C 
ATOM     18  C   UNL     1     -15.067   0.535  29.272  0.00  0.00    +0.023 C 
ATOM     19  C   UNL     1     -13.617   2.764  30.836  0.00  0.00    +0.011 C 
ATOM     21  C   UNL     1     -17.830   3.298  29.226  0.00  0.00    +0.010 C 
ENDROOT
BRANCH  16   7
ATOM      5  O   UNL     1     -18.356  -0.074  27.328  0.00  0.00    -0.276 OA
ATOM      7  N   UNL     1     -16.504   1.318  27.494  0.00  0.00    -0.312 N 
ATOM     24  C   UNL     1     -17.497   0.635  26.810  0.00  0.00    +0.215 C 
ATOM     35  H   UNL     1     -15.801   1.827  26.966  0.00  0.00    +0.149 HD
BRANCH  24  25
ATOM     25  C   UNL     1     -17.402   0.872  25.311  0.00  0.00    +0.124 C 
BRANCH  25  27
ATOM     27  C   UNL     1     -17.140   2.328  24.957  0.00  0.00    +0.168 C 
BRANCH  27   6
ATOM      6  O   UNL     1     -15.762   2.499  24.650  0.00  0.00    -0.382 OA
ATOM     31  C   UNL     1     -15.446   3.864  24.413  0.00  0.00    +0.194 C 
ENDBRANCH  27   6
ENDBRANCH  25  27
ENDBRANCH  24  25
ENDBRANCH  16   7
BRANCH  12   3
ATOM      3  O   UNL     1     -17.685   4.402  31.788  0.00  0.00    -0.391 OA
ATOM     36  H   UNL     1     -18.013   4.590  32.684  0.00  0.00    +0.210 HD
ENDBRANCH  12   3
BRANCH  15  20
ATOM     20  C   UNL     1     -16.069   5.137  34.129  0.00  0.00    +0.077 C 
ATOM     22  C   UNL     1     -17.460   5.405  34.693  0.00  0.00    +0.017 C 
BRANCH  20  23
ATOM      4  O   UNL     1     -16.431   6.912  32.521  0.00  0.00    -0.276 OA
ATOM      8  N   UNL     1     -14.255   6.404  33.140  0.00  0.00    -0.311 N 
ATOM     23  C   UNL     1     -15.632   6.245  33.176  0.00  0.00    +0.216 C 
ATOM     37  H   UNL     1     -13.664   5.850  33.753  0.00  0.00    +0.149 HD
BRANCH   8  26
ATOM     26  C   UNL     1     -13.603   7.390  32.310  0.00  0.00    +0.139 C 
BRANCH  26  28
ATOM      1  F   UNL     1      -9.694  10.301  32.495  0.00  0.00    -0.205 F 
ATOM      2  F   UNL     1     -11.886   9.138  36.528  0.00  0.00    -0.205 F 
ATOM     28  C   UNL     1     -12.612   8.210  33.086  0.00  0.00    -0.025 A 
ATOM     29  C   UNL     1     -12.711   8.294  34.474  0.00  0.00    +0.043 A 
ATOM     30  C   UNL     1     -11.593   8.888  32.417  0.00  0.00    +0.043 A 
ATOM     32  C   UNL     1     -10.672   9.649  33.137  0.00  0.00    +0.126 A 
ATOM     33  C   UNL     1     -11.790   9.056  35.194  0.00  0.00    +0.126 A 
ATOM     34  C   UNL     1     -10.772   9.734  34.525  0.00  0.00    +0.076 A 
ENDBRANCH  26  28
ENDBRANCH   8  26
ENDBRANCH  20  23
ENDBRANCH  15  20
TORSDOF 9
ENDMDL
MODEL 9
REMARK VINA RESULT:      -6.3     28.824     31.323
REMARK  Name = 45361599
REMARK  13 active torsions:
REMARK  status: ('A' for Active; 'I' for Inactive)
REMARK    1  A    between atoms: O_3  and  C_12
REMARK    2  A    between atoms: O_6  and  C_27
REMARK    3  A    between atoms: O_6  and  C_31
REMARK    4  A    between atoms: N_7  and  C_16
REMARK    5  A    between atoms: N_8  and  C_26
REMARK    6  A    between atoms: C_9  and  C_19
REMARK    7  A    between atoms: C_11  and  C_21
REMARK    8  A    between atoms: C_15  and  C_20
REMARK    9  A    between atoms: C_20  and  C_22
REMARK   10  A    between atoms: C_20  and  C_23
REMARK   11  A    between atoms: C_24  and  C_25
REMARK   12  A    between atoms: C_25  and  C_27
REMARK   13  A    between atoms: C_26  and  C_28
REMARK                            x       y       z     vdW  Elec       q    Type
REMARK                         _______ _______ _______ _____ _____    ______ ____
ROOT
ATOM      9  C   UNL     1      -3.934 -10.514  10.978  0.00  0.00    -0.027 C 
ATOM     10  C   UNL     1      -5.391 -10.228  11.470  0.00  0.00    +0.028 C 
ATOM     11  C   UNL     1      -5.703 -11.026  12.787  0.00  0.00    +0.012 C 
ATOM     12  C   UNL     1      -6.422 -10.408  10.320  0.00  0.00    +0.122 C 
ATOM     13  C   UNL     1      -3.622  -9.628   9.748  0.00  0.00    +0.007 C 
ATOM     14  C   UNL     1      -2.938 -10.131  12.097  0.00  0.00    +0.009 C 
ATOM     15  C   UNL     1      -6.049  -9.601   9.055  0.00  0.00    +0.029 C 
ATOM     16  C   UNL     1      -4.651 -10.691  13.881  0.00  0.00    +0.076 C 
ATOM     17  C   UNL     1      -4.607  -9.831   8.604  0.00  0.00    +0.007 C 
ATOM     18  C   UNL     1      -3.206 -10.856  13.408  0.00  0.00    +0.023 C 
ATOM     19  C   UNL     1      -3.719 -11.998  10.588  0.00  0.00    +0.011 C 
ATOM     21  C   UNL     1      -7.112 -10.769  13.345  0.00  0.00    +0.010 C 
ENDROOT
BRANCH  16   7
ATOM      5  O   UNL     1      -4.431  -9.819  16.624  0.00  0.00    -0.276 OA
ATOM      7  N   UNL     1      -4.838 -11.497  15.071  0.00  0.00    -0.312 N 
ATOM     24  C   UNL     1      -4.710 -10.984  16.352  0.00  0.00    +0.215 C 
ATOM     35  H   UNL     1      -5.008 -12.491  14.951  0.00  0.00    +0.149 HD
BRANCH  24  25
ATOM     25  C   UNL     1      -4.963 -12.051  17.404  0.00  0.00    +0.124 C 
BRANCH  25  27
ATOM     27  C   UNL     1      -4.510 -11.634  18.795  0.00  0.00    +0.168 C 
BRANCH  27   6
ATOM      6  O   UNL     1      -5.607 -11.062  19.497  0.00  0.00    -0.382 OA
ATOM     31  C   UNL     1      -6.737 -11.923  19.487  0.00  0.00    +0.194 C 
ENDBRANCH  27   6
ENDBRANCH  25  27
ENDBRANCH  24  25
ENDBRANCH  16   7
BRANCH  12   3
ATOM      3  O   UNL     1      -7.700  -9.934  10.745  0.00  0.00    -0.391 OA
ATOM     36  H   UNL     1      -8.365 -10.239  10.104  0.00  0.00    +0.210 HD
ENDBRANCH  12   3
BRANCH  15  20
ATOM     20  C   UNL     1      -7.003  -9.894   7.890  0.00  0.00    +0.077 C 
ATOM     22  C   UNL     1      -6.327 -10.808   6.874  0.00  0.00    +0.017 C 
BRANCH  20  23
ATOM      4  O   UNL     1      -7.546  -8.441   6.030  0.00  0.00    -0.276 OA
ATOM      8  N   UNL     1      -7.745  -7.606   8.184  0.00  0.00    -0.311 N 
ATOM     23  C   UNL     1      -7.456  -8.587   7.248  0.00  0.00    +0.216 C 
ATOM     37  H   UNL     1      -7.697  -7.821   9.176  0.00  0.00    +0.149 HD
BRANCH   8  26
ATOM     26  C   UNL     1      -8.193  -6.282   7.818  0.00  0.00    +0.139 C 
BRANCH  26  28
ATOM      1  F   UNL     1     -11.174  -2.869   9.620  0.00  0.00    -0.205 F 
ATOM      2  F   UNL     1     -12.276  -7.435  10.221  0.00  0.00    -0.205 F 
ATOM     28  C   UNL     1      -9.436  -5.885   8.559  0.00  0.00    -0.025 A 
ATOM     29  C   UNL     1     -10.295  -6.864   9.056  0.00  0.00    +0.043 A 
ATOM     30  C   UNL     1      -9.733  -4.535   8.749  0.00  0.00    +0.043 A 
ATOM     32  C   UNL     1     -10.888  -4.165   9.438  0.00  0.00    +0.126 A 
ATOM     33  C   UNL     1     -11.451  -6.494   9.745  0.00  0.00    +0.126 A 
ATOM     34  C   UNL     1     -11.747  -5.145   9.935  0.00  0.00    +0.076 A 
ENDBRANCH  26  28
ENDBRANCH   8  26
ENDBRANCH  20  23
ENDBRANCH  15  20
TORSDOF 9
ENDMDL
MODEL 10
REMARK VINA RESULT:      -6.3     27.844     30.877
REMARK  Name = 45361599
REMARK  13 active torsions:
REMARK  status: ('A' for Active; 'I' for Inactive)
REMARK    1  A    between atoms: O_3  and  C_12
REMARK    2  A    between atoms: O_6  and  C_27
REMARK    3  A    between atoms: O_6  and  C_31
REMARK    4  A    between atoms: N_7  and  C_16
REMARK    5  A    between atoms: N_8  and  C_26
REMARK    6  A    between atoms: C_9  and  C_19
REMARK    7  A    between atoms: C_11  and  C_21
REMARK    8  A    between atoms: C_15  and  C_20
REMARK    9  A    between atoms: C_20  and  C_22
REMARK   10  A    between atoms: C_20  and  C_23
REMARK   11  A    between atoms: C_24  and  C_25
REMARK   12  A    between atoms: C_25  and  C_27
REMARK   13  A    between atoms: C_26  and  C_28
REMARK                            x       y       z     vdW  Elec       q    Type
REMARK                         _______ _______ _______ _____ _____    ______ ____
ROOT
ATOM      9  C   UNL     1      -5.140 -12.691  10.376  0.00  0.00    -0.027 C 
ATOM     10  C   UNL     1      -4.624 -11.217  10.478  0.00  0.00    +0.028 C 
ATOM     11  C   UNL     1      -4.657 -10.514   9.073  0.00  0.00    +0.012 C 
ATOM     12  C   UNL     1      -3.263 -11.147  11.228  0.00  0.00    +0.122 C 
ATOM     13  C   UNL     1      -5.201 -13.315  11.790  0.00  0.00    +0.007 C 
ATOM     14  C   UNL     1      -6.576 -12.684   9.804  0.00  0.00    +0.009 C 
ATOM     15  C   UNL     1      -3.300 -11.864  12.598  0.00  0.00    +0.029 C 
ATOM     16  C   UNL     1      -6.090 -10.580   8.474  0.00  0.00    +0.076 C 
ATOM     17  C   UNL     1      -3.860 -13.283  12.512  0.00  0.00    +0.007 C 
ATOM     18  C   UNL     1      -6.676 -11.992   8.452  0.00  0.00    +0.023 C 
ATOM     19  C   UNL     1      -4.238 -13.576   9.480  0.00  0.00    +0.011 C 
ATOM     21  C   UNL     1      -4.189  -9.051   9.106  0.00  0.00    +0.010 C 
ENDROOT
BRANCH  16   7
ATOM      5  O   UNL     1      -8.122  -8.866   7.349  0.00  0.00    -0.276 OA
ATOM      7  N   UNL     1      -6.133 -10.045   7.128  0.00  0.00    -0.312 N 
ATOM     24  C   UNL     1      -7.157  -9.226   6.679  0.00  0.00    +0.215 C 
ATOM     35  H   UNL     1      -5.412 -10.337   6.475  0.00  0.00    +0.149 HD
BRANCH  24  25
ATOM     25  C   UNL     1      -6.943  -8.813   5.232  0.00  0.00    +0.124 C 
BRANCH  25  27
ATOM     27  C   UNL     1      -7.345  -9.893   4.240  0.00  0.00    +0.168 C 
BRANCH  27   6
ATOM      6  O   UNL     1      -6.369 -10.928   4.247  0.00  0.00    -0.382 OA
ATOM     31  C   UNL     1      -6.710 -11.972   3.346  0.00  0.00    +0.194 C 
ENDBRANCH  27   6
ENDBRANCH  25  27
ENDBRANCH  24  25
ENDBRANCH  16   7
BRANCH  12   3
ATOM      3  O   UNL     1      -2.932  -9.783  11.490  0.00  0.00    -0.391 OA
ATOM     36  H   UNL     1      -1.965  -9.714  11.560  0.00  0.00    +0.210 HD
ENDBRANCH  12   3
BRANCH  15  20
ATOM     20  C   UNL     1      -1.918 -11.898  13.260  0.00  0.00    +0.077 C 
ATOM     22  C   UNL     1      -1.504 -13.338  13.541  0.00  0.00    +0.017 C 
BRANCH  20  23
ATOM      4  O   UNL     1      -1.270 -10.039  14.671  0.00  0.00    -0.276 OA
ATOM      8  N   UNL     1      -2.769 -11.597  15.509  0.00  0.00    -0.311 N 
ATOM     23  C   UNL     1      -1.933 -11.065  14.538  0.00  0.00    +0.216 C 
ATOM     37  H   UNL     1      -3.326 -12.421  15.304  0.00  0.00    +0.149 HD
BRANCH   8  26
ATOM     26  C   UNL     1      -2.949 -10.987  16.806  0.00  0.00    +0.139 C 
BRANCH  26  28
ATOM      1  F   UNL     1      -7.353  -9.540  15.291  0.00  0.00    -0.205 F 
ATOM      2  F   UNL     1      -6.728 -10.598  19.864  0.00  0.00    -0.205 F 
ATOM     28  C   UNL     1      -4.389 -10.663  17.078  0.00  0.00    -0.025 A 
ATOM     29  C   UNL     1      -4.899 -10.783  18.371  0.00  0.00    +0.043 A 
ATOM     30  C   UNL     1      -5.219 -10.243  16.038  0.00  0.00    +0.043 A 
ATOM     32  C   UNL     1      -6.557  -9.942  16.290  0.00  0.00    +0.126 A 
ATOM     33  C   UNL     1      -6.238 -10.482  18.623  0.00  0.00    +0.126 A 
ATOM     34  C   UNL     1      -7.066 -10.063  17.583  0.00  0.00    +0.076 A 
ENDBRANCH  26  28
ENDBRANCH   8  26
ENDBRANCH  20  23
ENDBRANCH  15  20
TORSDOF 9
ENDMDL
