MODEL 1
REMARK VINA RESULT:      -6.9      0.000      0.000
REMARK  Name = 11885206
REMARK  4 active torsions:
REMARK  status: ('A' for Active; 'I' for Inactive)
REMARK    1  A    between atoms: S_1  and  C_30
REMARK    2  A    between atoms: S_1  and  C_31
REMARK    3  A    between atoms: C_16  and  C_19
REMARK    4  A    between atoms: C_17  and  C_20
REMARK                            x       y       z     vdW  Elec       q    Type
REMARK                         _______ _______ _______ _____ _____    ______ ____
ROOT
ATOM      3  O   UNL     1     -12.573  10.032  20.590  0.00  0.00    -0.267 OA
ATOM      4  O   UNL     1     -14.400  12.005  16.251  0.00  0.00    -0.270 OA
ATOM      5  N   UNL     1     -12.119  11.623  15.903  0.00  0.00    -0.297 N 
ATOM      6  N   UNL     1     -11.319  10.258  18.636  0.00  0.00    -0.311 N 
ATOM      7  C   UNL     1     -10.649  12.542  17.685  0.00  0.00    +0.027 C 
ATOM      8  C   UNL     1      -9.998  10.482  16.504  0.00  0.00    +0.054 C 
ATOM      9  C   UNL     1      -9.465  11.789  17.089  0.00  0.00    +0.018 C 
ATOM     10  C   UNL     1     -11.699  12.839  16.598  0.00  0.00    +0.113 C 
ATOM     11  C   UNL     1     -11.231  11.712  18.838  0.00  0.00    +0.130 C 
ATOM     12  C   UNL     1     -11.017  10.792  15.389  0.00  0.00    +0.117 C 
ATOM     13  C   UNL     1     -10.659   9.636  17.574  0.00  0.00    +0.027 A 
ATOM     14  C   UNL     1     -10.650   8.296  17.478  0.00  0.00    +0.022 A 
ATOM     15  C   UNL     1     -12.007   9.524  19.621  0.00  0.00    +0.259 A 
ATOM     16  C   UNL     1     -13.479  11.313  15.823  0.00  0.00    +0.247 C 
ATOM     17  C   UNL     1     -12.019   8.027  19.460  0.00  0.00    +0.047 A 
ATOM     18  C   UNL     1     -11.346   7.484  18.435  0.00  0.00    +0.015 A 
ENDROOT
BRANCH  16  19
ATOM      2  F   UNL     1     -14.937   6.470  13.439  0.00  0.00    -0.205 F 
ATOM     19  C   UNL     1     -13.861  10.042  15.197  0.00  0.00    +0.037 A 
ATOM     21  C   UNL     1     -14.054   8.912  15.987  0.00  0.00    +0.016 A 
ATOM     22  C   UNL     1     -14.028   9.972  13.817  0.00  0.00    +0.016 A 
ATOM     25  C   UNL     1     -14.418   7.704  15.393  0.00  0.00    +0.039 A 
ATOM     26  C   UNL     1     -14.392   8.764  13.222  0.00  0.00    +0.039 A 
ATOM     29  C   UNL     1     -14.588   7.630  14.010  0.00  0.00    +0.123 A 
ENDBRANCH  16  19
BRANCH  17  20
ATOM     20  C   UNL     1     -12.765   7.166  20.393  0.00  0.00    -0.013 A 
ATOM     23  C   UNL     1     -12.082   6.269  21.214  0.00  0.00    +0.010 A 
ATOM     24  C   UNL     1     -14.156   7.247  20.457  0.00  0.00    +0.010 A 
ATOM     27  C   UNL     1     -12.788   5.453  22.097  0.00  0.00    +0.015 A 
ATOM     28  C   UNL     1     -14.864   6.432  21.340  0.00  0.00    +0.015 A 
ATOM     30  C   UNL     1     -14.180   5.534  22.160  0.00  0.00    +0.008 A 
BRANCH  30   1
ATOM      1  S   UNL     1     -15.082   4.491  23.287  0.00  0.00    -0.129 S 
ATOM     31  C   UNL     1     -16.451   5.576  23.780  0.00  0.00    +0.090 C 
ENDBRANCH  30   1
ENDBRANCH  17  20
TORSDOF 3
ENDMDL
MODEL 2
REMARK VINA RESULT:      -6.9      4.412      8.200
REMARK  Name = 11885206
REMARK  4 active torsions:
REMARK  status: ('A' for Active; 'I' for Inactive)
REMARK    1  A    between atoms: S_1  and  C_30
REMARK    2  A    between atoms: S_1  and  C_31
REMARK    3  A    between atoms: C_16  and  C_19
REMARK    4  A    between atoms: C_17  and  C_20
REMARK                            x       y       z     vdW  Elec       q    Type
REMARK                         _______ _______ _______ _____ _____    ______ ____
ROOT
ATOM      3  O   UNL     1     -14.072   9.200  17.971  0.00  0.00    -0.267 OA
ATOM      4  O   UNL     1     -16.471  10.143  22.377  0.00  0.00    -0.270 OA
ATOM      5  N   UNL     1     -15.685   7.943  22.501  0.00  0.00    -0.297 N 
ATOM      6  N   UNL     1     -14.118   7.714  19.769  0.00  0.00    -0.311 N 
ATOM      7  C   UNL     1     -16.266   6.542  20.532  0.00  0.00    +0.027 C 
ATOM      8  C   UNL     1     -14.155   6.143  21.736  0.00  0.00    +0.054 C 
ATOM      9  C   UNL     1     -15.325   5.453  21.036  0.00  0.00    +0.018 C 
ATOM     10  C   UNL     1     -16.782   7.391  21.707  0.00  0.00    +0.113 C 
ATOM     11  C   UNL     1     -15.525   7.389  19.488  0.00  0.00    +0.130 C 
ATOM     12  C   UNL     1     -14.680   6.959  22.936  0.00  0.00    +0.117 C 
ATOM     13  C   UNL     1     -13.415   7.063  20.784  0.00  0.00    +0.027 A 
ATOM     14  C   UNL     1     -12.100   7.284  20.943  0.00  0.00    +0.022 A 
ATOM     15  C   UNL     1     -13.496   8.630  18.899  0.00  0.00    +0.259 A 
ATOM     16  C   UNL     1     -15.633   9.319  22.739  0.00  0.00    +0.247 C 
ATOM     17  C   UNL     1     -12.032   8.893  19.132  0.00  0.00    +0.047 A 
ATOM     18  C   UNL     1     -11.404   8.218  20.106  0.00  0.00    +0.015 A 
ENDROOT
BRANCH  16  19
ATOM      2  F   UNL     1     -11.211  11.344  25.497  0.00  0.00    -0.205 F 
ATOM     19  C   UNL     1     -14.473   9.851  23.462  0.00  0.00    +0.037 A 
ATOM     21  C   UNL     1     -14.509   9.951  24.850  0.00  0.00    +0.016 A 
ATOM     22  C   UNL     1     -13.341  10.252  22.758  0.00  0.00    +0.016 A 
ATOM     25  C   UNL     1     -13.407  10.456  25.539  0.00  0.00    +0.039 A 
ATOM     26  C   UNL     1     -12.238  10.757  23.446  0.00  0.00    +0.039 A 
ATOM     29  C   UNL     1     -12.270  10.858  24.837  0.00  0.00    +0.123 A 
ENDBRANCH  16  19
BRANCH  17  20
ATOM     20  C   UNL     1     -11.297   9.882  18.326  0.00  0.00    -0.013 A 
ATOM     23  C   UNL     1     -11.155  11.191  18.786  0.00  0.00    +0.010 A 
ATOM     24  C   UNL     1     -10.743   9.510  17.101  0.00  0.00    +0.010 A 
ATOM     27  C   UNL     1     -10.460  12.128  18.022  0.00  0.00    +0.015 A 
ATOM     28  C   UNL     1     -10.047  10.446  16.336  0.00  0.00    +0.015 A 
ATOM     30  C   UNL     1      -9.905  11.756  16.796  0.00  0.00    +0.008 A 
BRANCH  30   1
ATOM      1  S   UNL     1      -9.019  12.953  15.820  0.00  0.00    -0.129 S 
ATOM     31  C   UNL     1      -8.050  13.819  17.088  0.00  0.00    +0.090 C 
ENDBRANCH  30   1
ENDBRANCH  17  20
TORSDOF 3
ENDMDL
MODEL 3
REMARK VINA RESULT:      -6.9     27.655     29.910
REMARK  Name = 11885206
REMARK  4 active torsions:
REMARK  status: ('A' for Active; 'I' for Inactive)
REMARK    1  A    between atoms: S_1  and  C_30
REMARK    2  A    between atoms: S_1  and  C_31
REMARK    3  A    between atoms: C_16  and  C_19
REMARK    4  A    between atoms: C_17  and  C_20
REMARK                            x       y       z     vdW  Elec       q    Type
REMARK                         _______ _______ _______ _____ _____    ______ ____
ROOT
ATOM      3  O   UNL     1      12.234   7.713   2.789  0.00  0.00    -0.267 OA
ATOM      4  O   UNL     1      13.786   6.727  -1.973  0.00  0.00    -0.270 OA
ATOM      5  N   UNL     1      13.930   4.713  -0.792  0.00  0.00    -0.297 N 
ATOM      6  N   UNL     1      12.754   5.577   2.009  0.00  0.00    -0.311 N 
ATOM      7  C   UNL     1      15.139   4.886   1.373  0.00  0.00    +0.027 C 
ATOM      8  C   UNL     1      13.290   3.279   1.131  0.00  0.00    +0.054 C 
ATOM      9  C   UNL     1      14.678   3.479   1.737  0.00  0.00    +0.018 C 
ATOM     10  C   UNL     1      15.203   5.051  -0.156  0.00  0.00    +0.113 C 
ATOM     11  C   UNL     1      14.189   5.900   2.025  0.00  0.00    +0.130 C 
ATOM     12  C   UNL     1      13.374   3.407  -0.404  0.00  0.00    +0.117 C 
ATOM     13  C   UNL     1      12.306   4.299   1.670  0.00  0.00    +0.027 A 
ATOM     14  C   UNL     1      11.004   3.989   1.781  0.00  0.00    +0.022 A 
ATOM     15  C   UNL     1      11.875   6.584   2.451  0.00  0.00    +0.259 A 
ATOM     16  C   UNL     1      13.323   5.636  -1.647  0.00  0.00    +0.247 C 
ATOM     17  C   UNL     1      10.415   6.222   2.519  0.00  0.00    +0.047 A 
ATOM     18  C   UNL     1      10.047   4.970   2.207  0.00  0.00    +0.015 A 
ENDROOT
BRANCH  16  19
ATOM      2  F   UNL     1       8.299   4.366  -3.748  0.00  0.00    -0.205 F 
ATOM     19  C   UNL     1      12.005   5.302  -2.198  0.00  0.00    +0.037 A 
ATOM     21  C   UNL     1      10.853   5.650  -1.498  0.00  0.00    +0.016 A 
ATOM     22  C   UNL     1      11.912   4.639  -3.419  0.00  0.00    +0.016 A 
ATOM     25  C   UNL     1       9.600   5.334  -2.021  0.00  0.00    +0.039 A 
ATOM     26  C   UNL     1      10.658   4.322  -3.943  0.00  0.00    +0.039 A 
ATOM     29  C   UNL     1       9.502   4.671  -3.244  0.00  0.00    +0.123 A 
ENDBRANCH  16  19
BRANCH  17  20
ATOM     20  C   UNL     1       9.400   7.217   2.902  0.00  0.00    -0.013 A 
ATOM     23  C   UNL     1       8.936   7.271   4.217  0.00  0.00    +0.010 A 
ATOM     24  C   UNL     1       8.900   8.106   1.951  0.00  0.00    +0.010 A 
ATOM     27  C   UNL     1       7.975   8.212   4.580  0.00  0.00    +0.015 A 
ATOM     28  C   UNL     1       7.938   9.049   2.313  0.00  0.00    +0.015 A 
ATOM     30  C   UNL     1       7.474   9.102   3.628  0.00  0.00    +0.008 A 
BRANCH  30   1
ATOM      1  S   UNL     1       6.244  10.304   4.092  0.00  0.00    -0.129 S 
ATOM     31  C   UNL     1       5.065  10.174   2.718  0.00  0.00    +0.090 C 
ENDBRANCH  30   1
ENDBRANCH  17  20
TORSDOF 3
ENDMDL
MODEL 4
REMARK VINA RESULT:      -6.7     21.070     22.989
REMARK  Name = 11885206
REMARK  4 active torsions:
REMARK  status: ('A' for Active; 'I' for Inactive)
REMARK    1  A    between atoms: S_1  and  C_30
REMARK    2  A    between atoms: S_1  and  C_31
REMARK    3  A    between atoms: C_16  and  C_19
REMARK    4  A    between atoms: C_17  and  C_20
REMARK                            x       y       z     vdW  Elec       q    Type
REMARK                         _______ _______ _______ _____ _____    ______ ____
ROOT
ATOM      3  O   UNL     1      -6.690 -10.031  14.063  0.00  0.00    -0.267 OA
ATOM      4  O   UNL     1      -4.612 -14.374  12.368  0.00  0.00    -0.270 OA
ATOM      5  N   UNL     1      -2.844 -13.030  13.105  0.00  0.00    -0.297 N 
ATOM      6  N   UNL     1      -4.421 -10.542  14.244  0.00  0.00    -0.311 N 
ATOM      7  C   UNL     1      -2.881 -10.715  12.202  0.00  0.00    +0.027 C 
ATOM      8  C   UNL     1      -1.983 -11.134  14.456  0.00  0.00    +0.054 C 
ATOM      9  C   UNL     1      -1.777 -10.322  13.178  0.00  0.00    +0.018 C 
ATOM     10  C   UNL     1      -2.810 -12.220  11.888  0.00  0.00    +0.113 C 
ATOM     11  C   UNL     1      -4.235 -10.313  12.803  0.00  0.00    +0.130 C 
ATOM     12  C   UNL     1      -1.869 -12.639  14.136  0.00  0.00    +0.117 C 
ATOM     13  C   UNL     1      -3.339 -10.848  15.071  0.00  0.00    +0.027 A 
ATOM     14  C   UNL     1      -3.509 -10.932  16.401  0.00  0.00    +0.022 A 
ATOM     15  C   UNL     1      -5.716 -10.334  14.755  0.00  0.00    +0.259 A 
ATOM     16  C   UNL     1      -3.797 -14.046  13.228  0.00  0.00    +0.247 C 
ATOM     17  C   UNL     1      -5.885 -10.482  16.243  0.00  0.00    +0.047 A 
ATOM     18  C   UNL     1      -4.805 -10.750  16.991  0.00  0.00    +0.015 A 
ENDROOT
BRANCH  16  19
ATOM      2  F   UNL     1      -4.048 -16.847  18.060  0.00  0.00    -0.205 F 
ATOM     19  C   UNL     1      -3.862 -14.780  14.496  0.00  0.00    +0.037 A 
ATOM     21  C   UNL     1      -4.702 -14.334  15.513  0.00  0.00    +0.016 A 
ATOM     22  C   UNL     1      -3.084 -15.920  14.677  0.00  0.00    +0.016 A 
ATOM     25  C   UNL     1      -4.765 -15.032  16.718  0.00  0.00    +0.039 A 
ATOM     26  C   UNL     1      -3.147 -16.620  15.883  0.00  0.00    +0.039 A 
ATOM     29  C   UNL     1      -3.988 -16.175  16.903  0.00  0.00    +0.123 A 
ENDBRANCH  16  19
BRANCH  17  20
ATOM     20  C   UNL     1      -7.208 -10.353  16.877  0.00  0.00    -0.013 A 
ATOM     23  C   UNL     1      -7.837 -11.475  17.417  0.00  0.00    +0.010 A 
ATOM     24  C   UNL     1      -7.835  -9.108  16.938  0.00  0.00    +0.010 A 
ATOM     27  C   UNL     1      -9.089 -11.354  18.016  0.00  0.00    +0.015 A 
ATOM     28  C   UNL     1      -9.088  -8.985  17.538  0.00  0.00    +0.015 A 
ATOM     30  C   UNL     1      -9.716 -10.108  18.077  0.00  0.00    +0.008 A 
BRANCH  30   1
ATOM      1  S   UNL     1     -11.317  -9.953  18.841  0.00  0.00    -0.129 S 
ATOM     31  C   UNL     1     -11.273 -11.292  20.067  0.00  0.00    +0.090 C 
ENDBRANCH  30   1
ENDBRANCH  17  20
TORSDOF 3
ENDMDL
MODEL 5
REMARK VINA RESULT:      -6.6     18.770     21.280
REMARK  Name = 11885206
REMARK  4 active torsions:
REMARK  status: ('A' for Active; 'I' for Inactive)
REMARK    1  A    between atoms: S_1  and  C_30
REMARK    2  A    between atoms: S_1  and  C_31
REMARK    3  A    between atoms: C_16  and  C_19
REMARK    4  A    between atoms: C_17  and  C_20
REMARK                            x       y       z     vdW  Elec       q    Type
REMARK                         _______ _______ _______ _____ _____    ______ ____
ROOT
ATOM      3  O   UNL     1      -6.401 -12.805  14.914  0.00  0.00    -0.267 OA
ATOM      4  O   UNL     1     -11.202 -11.990  16.447  0.00  0.00    -0.270 OA
ATOM      5  N   UNL     1      -9.833 -11.611  18.306  0.00  0.00    -0.297 N 
ATOM      6  N   UNL     1      -6.971 -12.002  17.029  0.00  0.00    -0.311 N 
ATOM      7  C   UNL     1      -8.205 -13.434  18.760  0.00  0.00    +0.027 C 
ATOM      8  C   UNL     1      -7.612 -11.104  19.293  0.00  0.00    +0.054 C 
ATOM      9  C   UNL     1      -7.506 -12.547  19.784  0.00  0.00    +0.018 C 
ATOM     10  C   UNL     1      -9.685 -13.031  18.622  0.00  0.00    +0.113 C 
ATOM     11  C   UNL     1      -7.452 -13.334  17.426  0.00  0.00    +0.130 C 
ATOM     12  C   UNL     1      -9.097 -10.699  19.197  0.00  0.00    +0.117 C 
ATOM     13  C   UNL     1      -6.955 -10.940  17.936  0.00  0.00    +0.027 A 
ATOM     14  C   UNL     1      -6.398  -9.767  17.592  0.00  0.00    +0.022 A 
ATOM     15  C   UNL     1      -6.436 -11.884  15.732  0.00  0.00    +0.259 A 
ATOM     16  C   UNL     1     -10.587 -11.230  17.193  0.00  0.00    +0.247 C 
ATOM     17  C   UNL     1      -5.862 -10.543  15.359  0.00  0.00    +0.047 A 
ATOM     18  C   UNL     1      -5.850  -9.569  16.281  0.00  0.00    +0.015 A 
ENDROOT
BRANCH  16  19
ATOM      2  F   UNL     1     -10.800  -5.797  15.893  0.00  0.00    -0.205 F 
ATOM     19  C   UNL     1     -10.642  -9.805  16.852  0.00  0.00    +0.037 A 
ATOM     21  C   UNL     1      -9.655  -9.247  16.044  0.00  0.00    +0.016 A 
ATOM     22  C   UNL     1     -11.682  -9.016  17.338  0.00  0.00    +0.016 A 
ATOM     25  C   UNL     1      -9.708  -7.891  15.720  0.00  0.00    +0.039 A 
ATOM     26  C   UNL     1     -11.735  -7.660  17.014  0.00  0.00    +0.039 A 
ATOM     29  C   UNL     1     -10.748  -7.098  16.204  0.00  0.00    +0.123 A 
ENDBRANCH  16  19
BRANCH  17  20
ATOM     20  C   UNL     1      -5.338 -10.287  14.007  0.00  0.00    -0.013 A 
ATOM     23  C   UNL     1      -4.038 -10.672  13.678  0.00  0.00    +0.010 A 
ATOM     24  C   UNL     1      -6.140  -9.661  13.054  0.00  0.00    +0.010 A 
ATOM     27  C   UNL     1      -3.540 -10.430  12.399  0.00  0.00    +0.015 A 
ATOM     28  C   UNL     1      -5.644  -9.418  11.773  0.00  0.00    +0.015 A 
ATOM     30  C   UNL     1      -4.344  -9.802  11.445  0.00  0.00    +0.008 A 
BRANCH  30   1
ATOM      1  S   UNL     1      -3.707  -9.492   9.811  0.00  0.00    -0.129 S 
ATOM     31  C   UNL     1      -5.235  -9.252   8.859  0.00  0.00    +0.090 C 
ENDBRANCH  30   1
ENDBRANCH  17  20
TORSDOF 3
ENDMDL
MODEL 6
REMARK VINA RESULT:      -6.6     29.730     31.547
REMARK  Name = 11885206
REMARK  4 active torsions:
REMARK  status: ('A' for Active; 'I' for Inactive)
REMARK    1  A    between atoms: S_1  and  C_30
REMARK    2  A    between atoms: S_1  and  C_31
REMARK    3  A    between atoms: C_16  and  C_19
REMARK    4  A    between atoms: C_17  and  C_20
REMARK                            x       y       z     vdW  Elec       q    Type
REMARK                         _______ _______ _______ _____ _____    ______ ____
ROOT
ATOM      3  O   UNL     1       9.502  -9.348  32.459  0.00  0.00    -0.267 OA
ATOM      4  O   UNL     1       9.074  -8.075  37.384  0.00  0.00    -0.270 OA
ATOM      5  N   UNL     1       8.536  -6.162  36.150  0.00  0.00    -0.297 N 
ATOM      6  N   UNL     1       8.705  -7.286  33.203  0.00  0.00    -0.311 N 
ATOM      7  C   UNL     1      10.200  -5.580  34.397  0.00  0.00    +0.027 C 
ATOM      8  C   UNL     1       7.817  -5.081  34.034  0.00  0.00    +0.054 C 
ATOM      9  C   UNL     1       9.233  -4.546  33.830  0.00  0.00    +0.018 C 
ATOM     10  C   UNL     1       9.931  -5.801  35.897  0.00  0.00    +0.113 C 
ATOM     11  C   UNL     1      10.065  -6.877  33.588  0.00  0.00    +0.130 C 
ATOM     12  C   UNL     1       7.544  -5.260  35.541  0.00  0.00    +0.117 C 
ATOM     13  C   UNL     1       7.627  -6.407  33.324  0.00  0.00    +0.027 A 
ATOM     14  C   UNL     1       6.418  -6.755  32.853  0.00  0.00    +0.022 A 
ATOM     15  C   UNL     1       8.570  -8.557  32.614  0.00  0.00    +0.259 A 
ATOM     16  C   UNL     1       8.247  -7.321  36.875  0.00  0.00    +0.247 C 
ATOM     17  C   UNL     1       7.193  -8.937  32.139  0.00  0.00    +0.047 A 
ATOM     18  C   UNL     1       6.201  -8.042  32.257  0.00  0.00    +0.015 A 
ENDROOT
BRANCH  16  19
ATOM      2  F   UNL     1       2.882  -8.772  37.485  0.00  0.00    -0.205 F 
ATOM     19  C   UNL     1       6.839  -7.701  37.035  0.00  0.00    +0.037 A 
ATOM     21  C   UNL     1       6.239  -8.543  36.102  0.00  0.00    +0.016 A 
ATOM     22  C   UNL     1       6.110  -7.219  38.118  0.00  0.00    +0.016 A 
ATOM     25  C   UNL     1       4.901  -8.905  36.254  0.00  0.00    +0.039 A 
ATOM     26  C   UNL     1       4.771  -7.581  38.271  0.00  0.00    +0.039 A 
ATOM     29  C   UNL     1       4.167  -8.425  37.339  0.00  0.00    +0.123 A 
ENDBRANCH  16  19
BRANCH  17  20
ATOM     20  C   UNL     1       6.923 -10.268  31.570  0.00  0.00    -0.013 A 
ATOM     23  C   UNL     1       7.168 -10.512  30.218  0.00  0.00    +0.010 A 
ATOM     24  C   UNL     1       6.422 -11.286  32.381  0.00  0.00    +0.010 A 
ATOM     27  C   UNL     1       6.912 -11.772  29.678  0.00  0.00    +0.015 A 
ATOM     28  C   UNL     1       6.166 -12.547  31.842  0.00  0.00    +0.015 A 
ATOM     30  C   UNL     1       6.410 -12.790  30.491  0.00  0.00    +0.008 A 
BRANCH  30   1
ATOM      1  S   UNL     1       6.082 -14.399  29.800  0.00  0.00    -0.129 S 
ATOM     31  C   UNL     1       7.072 -14.357  28.279  0.00  0.00    +0.090 C 
ENDBRANCH  30   1
ENDBRANCH  17  20
TORSDOF 3
ENDMDL
MODEL 7
REMARK VINA RESULT:      -6.6     25.937     28.842
REMARK  Name = 11885206
REMARK  4 active torsions:
REMARK  status: ('A' for Active; 'I' for Inactive)
REMARK    1  A    between atoms: S_1  and  C_30
REMARK    2  A    between atoms: S_1  and  C_31
REMARK    3  A    between atoms: C_16  and  C_19
REMARK    4  A    between atoms: C_17  and  C_20
REMARK                            x       y       z     vdW  Elec       q    Type
REMARK                         _______ _______ _______ _____ _____    ______ ____
ROOT
ATOM      3  O   UNL     1      12.472   7.403   3.375  0.00  0.00    -0.267 OA
ATOM      4  O   UNL     1       8.625   9.695   5.826  0.00  0.00    -0.270 OA
ATOM      5  N   UNL     1       9.057   7.703   6.973  0.00  0.00    -0.297 N 
ATOM      6  N   UNL     1      11.552   6.619   5.370  0.00  0.00    -0.311 N 
ATOM      7  C   UNL     1       9.167   5.692   5.517  0.00  0.00    +0.027 C 
ATOM      8  C   UNL     1      10.563   5.813   7.541  0.00  0.00    +0.054 C 
ATOM      9  C   UNL     1       9.706   4.879   6.689  0.00  0.00    +0.018 C 
ATOM     10  C   UNL     1       8.317   6.870   6.026  0.00  0.00    +0.113 C 
ATOM     11  C   UNL     1      10.349   6.161   4.658  0.00  0.00    +0.130 C 
ATOM     12  C   UNL     1       9.692   6.966   8.079  0.00  0.00    +0.117 C 
ATOM     13  C   UNL     1      11.716   6.382   6.737  0.00  0.00    +0.027 A 
ATOM     14  C   UNL     1      12.872   6.696   7.342  0.00  0.00    +0.022 A 
ATOM     15  C   UNL     1      12.564   7.207   4.588  0.00  0.00    +0.259 A 
ATOM     16  C   UNL     1       9.155   9.078   6.748  0.00  0.00    +0.247 C 
ATOM     17  C   UNL     1      13.831   7.593   5.305  0.00  0.00    +0.047 A 
ATOM     18  C   UNL     1      13.941   7.316   6.612  0.00  0.00    +0.015 A 
ENDROOT
BRANCH  16  19
ATOM      2  F   UNL     1      12.290  12.101  10.254  0.00  0.00    -0.205 F 
ATOM     19  C   UNL     1       9.978   9.871   7.668  0.00  0.00    +0.037 A 
ATOM     21  C   UNL     1      11.334  10.046   7.408  0.00  0.00    +0.016 A 
ATOM     22  C   UNL     1       9.398  10.444   8.797  0.00  0.00    +0.016 A 
ATOM     25  C   UNL     1      12.117  10.800   8.282  0.00  0.00    +0.039 A 
ATOM     26  C   UNL     1      10.180  11.199   9.672  0.00  0.00    +0.039 A 
ATOM     29  C   UNL     1      11.540  11.377   9.413  0.00  0.00    +0.123 A 
ENDBRANCH  16  19
BRANCH  17  20
ATOM     20  C   UNL     1      14.928   8.276   4.599  0.00  0.00    -0.013 A 
ATOM     23  C   UNL     1      15.940   7.532   3.995  0.00  0.00    +0.010 A 
ATOM     24  C   UNL     1      14.956   9.670   4.535  0.00  0.00    +0.010 A 
ATOM     27  C   UNL     1      16.980   8.178   3.327  0.00  0.00    +0.015 A 
ATOM     28  C   UNL     1      15.994  10.318   3.867  0.00  0.00    +0.015 A 
ATOM     30  C   UNL     1      17.007   9.572   3.263  0.00  0.00    +0.008 A 
BRANCH  30   1
ATOM      1  S   UNL     1      18.336  10.398   2.412  0.00  0.00    -0.129 S 
ATOM     31  C   UNL     1      19.749  10.036   3.492  0.00  0.00    +0.090 C 
ENDBRANCH  30   1
ENDBRANCH  17  20
TORSDOF 3
ENDMDL
MODEL 8
REMARK VINA RESULT:      -6.4     33.204     35.064
REMARK  Name = 11885206
REMARK  4 active torsions:
REMARK  status: ('A' for Active; 'I' for Inactive)
REMARK    1  A    between atoms: S_1  and  C_30
REMARK    2  A    between atoms: S_1  and  C_31
REMARK    3  A    between atoms: C_16  and  C_19
REMARK    4  A    between atoms: C_17  and  C_20
REMARK                            x       y       z     vdW  Elec       q    Type
REMARK                         _______ _______ _______ _____ _____    ______ ____
ROOT
ATOM      3  O   UNL     1      19.077  -7.151  28.117  0.00  0.00    -0.267 OA
ATOM      4  O   UNL     1      20.304  -2.936  25.511  0.00  0.00    -0.270 OA
ATOM      5  N   UNL     1      20.590  -4.737  24.045  0.00  0.00    -0.297 N 
ATOM      6  N   UNL     1      19.598  -7.135  25.843  0.00  0.00    -0.311 N 
ATOM      7  C   UNL     1      21.948  -6.600  24.972  0.00  0.00    +0.027 C 
ATOM      8  C   UNL     1      20.131  -7.085  23.383  0.00  0.00    +0.054 C 
ATOM      9  C   UNL     1      21.553  -7.472  23.785  0.00  0.00    +0.018 C 
ATOM     10  C   UNL     1      21.895  -5.111  24.586  0.00  0.00    +0.113 C 
ATOM     11  C   UNL     1      21.021  -6.924  26.151  0.00  0.00    +0.130 C 
ATOM     12  C   UNL     1      20.099  -5.602  22.960  0.00  0.00    +0.117 C 
ATOM     13  C   UNL     1      19.161  -7.305  24.528  0.00  0.00    +0.027 A 
ATOM     14  C   UNL     1      17.880  -7.619  24.278  0.00  0.00    +0.022 A 
ATOM     15  C   UNL     1      18.726  -7.261  26.941  0.00  0.00    +0.259 A 
ATOM     16  C   UNL     1      19.896  -3.661  24.605  0.00  0.00    +0.247 C 
ATOM     17  C   UNL     1      17.285  -7.566  26.626  0.00  0.00    +0.047 A 
ATOM     18  C   UNL     1      16.930  -7.745  25.346  0.00  0.00    +0.015 A 
ENDROOT
BRANCH  16  19
ATOM      2  F   UNL     1      14.770  -2.541  22.675  0.00  0.00    -0.205 F 
ATOM     19  C   UNL     1      18.551  -3.367  24.098  0.00  0.00    +0.037 A 
ATOM     21  C   UNL     1      17.441  -3.957  24.698  0.00  0.00    +0.016 A 
ATOM     22  C   UNL     1      18.390  -2.501  23.021  0.00  0.00    +0.016 A 
ATOM     25  C   UNL     1      16.162  -3.678  24.217  0.00  0.00    +0.039 A 
ATOM     26  C   UNL     1      17.111  -2.221  22.539  0.00  0.00    +0.039 A 
ATOM     29  C   UNL     1      15.997  -2.810  23.138  0.00  0.00    +0.123 A 
ENDBRANCH  16  19
BRANCH  17  20
ATOM     20  C   UNL     1      16.273  -7.652  27.693  0.00  0.00    -0.013 A 
ATOM     23  C   UNL     1      15.979  -8.883  28.279  0.00  0.00    +0.010 A 
ATOM     24  C   UNL     1      15.608  -6.502  28.119  0.00  0.00    +0.010 A 
ATOM     27  C   UNL     1      15.021  -8.965  29.288  0.00  0.00    +0.015 A 
ATOM     28  C   UNL     1      14.650  -6.583  29.128  0.00  0.00    +0.015 A 
ATOM     30  C   UNL     1      14.355  -7.815  29.713  0.00  0.00    +0.008 A 
BRANCH  30   1
ATOM      1  S   UNL     1      13.130  -7.920  31.002  0.00  0.00    -0.129 S 
ATOM     31  C   UNL     1      12.496  -6.219  31.048  0.00  0.00    +0.090 C 
ENDBRANCH  30   1
ENDBRANCH  17  20
TORSDOF 3
ENDMDL
MODEL 9
REMARK VINA RESULT:      -6.3     30.025     31.691
REMARK  Name = 11885206
REMARK  4 active torsions:
REMARK  status: ('A' for Active; 'I' for Inactive)
REMARK    1  A    between atoms: S_1  and  C_30
REMARK    2  A    between atoms: S_1  and  C_31
REMARK    3  A    between atoms: C_16  and  C_19
REMARK    4  A    between atoms: C_17  and  C_20
REMARK                            x       y       z     vdW  Elec       q    Type
REMARK                         _______ _______ _______ _____ _____    ______ ____
ROOT
ATOM      3  O   UNL     1       9.484 -10.746  31.880  0.00  0.00    -0.267 OA
ATOM      4  O   UNL     1       8.099  -9.981  36.733  0.00  0.00    -0.270 OA
ATOM      5  N   UNL     1       7.951  -7.908  35.660  0.00  0.00    -0.297 N 
ATOM      6  N   UNL     1       8.672  -8.717  32.694  0.00  0.00    -0.311 N 
ATOM      7  C   UNL     1       9.980  -7.283  34.368  0.00  0.00    +0.027 C 
ATOM      8  C   UNL     1       7.762  -6.547  33.592  0.00  0.00    +0.054 C 
ATOM      9  C   UNL     1       9.220  -6.116  33.748  0.00  0.00    +0.018 C 
ATOM     10  C   UNL     1       9.386  -7.641  35.743  0.00  0.00    +0.113 C 
ATOM     11  C   UNL     1       9.942  -8.469  33.395  0.00  0.00    +0.130 C 
ATOM     12  C   UNL     1       7.167  -6.865  34.979  0.00  0.00    +0.117 C 
ATOM     13  C   UNL     1       7.648  -7.768  32.701  0.00  0.00    +0.027 A 
ATOM     14  C   UNL     1       6.547  -7.959  31.954  0.00  0.00    +0.022 A 
ATOM     15  C   UNL     1       8.589  -9.901  31.938  0.00  0.00    +0.259 A 
ATOM     16  C   UNL     1       7.445  -9.109  36.163  0.00  0.00    +0.247 C 
ATOM     17  C   UNL     1       7.323 -10.110  31.150  0.00  0.00    +0.047 A 
ATOM     18  C   UNL     1       6.385  -9.152  31.173  0.00  0.00    +0.015 A 
ENDROOT
BRANCH  16  19
ATOM      2  F   UNL     1       1.995 -10.155  35.484  0.00  0.00    -0.205 F 
ATOM     19  C   UNL     1       6.015  -9.384  35.985  0.00  0.00    +0.037 A 
ATOM     21  C   UNL     1       5.098  -8.911  36.920  0.00  0.00    +0.016 A 
ATOM     22  C   UNL     1       5.582 -10.116  34.883  0.00  0.00    +0.016 A 
ATOM     25  C   UNL     1       3.738  -9.172  36.751  0.00  0.00    +0.039 A 
ATOM     26  C   UNL     1       4.222 -10.377  34.714  0.00  0.00    +0.039 A 
ATOM     29  C   UNL     1       3.300  -9.904  35.647  0.00  0.00    +0.123 A 
ENDBRANCH  16  19
BRANCH  17  20
ATOM     20  C   UNL     1       7.101 -11.344  30.377  0.00  0.00    -0.013 A 
ATOM     23  C   UNL     1       6.050 -12.198  30.713  0.00  0.00    +0.010 A 
ATOM     24  C   UNL     1       7.941 -11.659  29.309  0.00  0.00    +0.010 A 
ATOM     27  C   UNL     1       5.840 -13.366  29.982  0.00  0.00    +0.015 A 
ATOM     28  C   UNL     1       7.731 -12.828  28.577  0.00  0.00    +0.015 A 
ATOM     30  C   UNL     1       6.680 -13.682  28.914  0.00  0.00    +0.008 A 
BRANCH  30   1
ATOM      1  S   UNL     1       6.412 -15.176  27.981  0.00  0.00    -0.129 S 
ATOM     31  C   UNL     1       4.933 -15.853  28.787  0.00  0.00    +0.090 C 
ENDBRANCH  30   1
ENDBRANCH  17  20
TORSDOF 3
ENDMDL
MODEL 10
REMARK VINA RESULT:      -6.3     26.111     28.878
REMARK  Name = 11885206
REMARK  4 active torsions:
REMARK  status: ('A' for Active; 'I' for Inactive)
REMARK    1  A    between atoms: S_1  and  C_30
REMARK    2  A    between atoms: S_1  and  C_31
REMARK    3  A    between atoms: C_16  and  C_19
REMARK    4  A    between atoms: C_17  and  C_20
REMARK                            x       y       z     vdW  Elec       q    Type
REMARK                         _______ _______ _______ _____ _____    ______ ____
ROOT
ATOM      3  O   UNL     1       8.474   7.802   2.692  0.00  0.00    -0.267 OA
ATOM      4  O   UNL     1      11.434  10.204   6.087  0.00  0.00    -0.270 OA
ATOM      5  N   UNL     1      10.928   8.111   7.002  0.00  0.00    -0.297 N 
ATOM      6  N   UNL     1       9.276   6.812   4.646  0.00  0.00    -0.311 N 
ATOM      7  C   UNL     1       8.508   7.547   6.978  0.00  0.00    +0.027 C 
ATOM      8  C   UNL     1      10.183   5.758   6.744  0.00  0.00    +0.054 C 
ATOM      9  C   UNL     1       8.843   6.116   7.385  0.00  0.00    +0.018 C 
ATOM     10  C   UNL     1       9.602   8.514   7.467  0.00  0.00    +0.113 C 
ATOM     11  C   UNL     1       8.331   7.597   5.455  0.00  0.00    +0.130 C 
ATOM     12  C   UNL     1      11.278   6.707   7.272  0.00  0.00    +0.117 C 
ATOM     13  C   UNL     1      10.110   5.859   5.233  0.00  0.00    +0.027 A 
ATOM     14  C   UNL     1      10.876   5.067   4.465  0.00  0.00    +0.022 A 
ATOM     15  C   UNL     1       9.219   6.997   3.251  0.00  0.00    +0.259 A 
ATOM     16  C   UNL     1      11.724   9.031   6.313  0.00  0.00    +0.247 C 
ATOM     17  C   UNL     1      10.124   6.127   2.419  0.00  0.00    +0.047 A 
ATOM     18  C   UNL     1      10.884   5.211   3.037  0.00  0.00    +0.015 A 
ENDROOT
BRANCH  16  19
ATOM      2  F   UNL     1      16.632   7.273   4.295  0.00  0.00    -0.205 F 
ATOM     19  C   UNL     1      13.012   8.569   5.784  0.00  0.00    +0.037 A 
ATOM     21  C   UNL     1      13.079   8.026   4.504  0.00  0.00    +0.016 A 
ATOM     22  C   UNL     1      14.159   8.676   6.564  0.00  0.00    +0.016 A 
ATOM     25  C   UNL     1      14.304   7.587   4.000  0.00  0.00    +0.039 A 
ATOM     26  C   UNL     1      15.385   8.237   6.061  0.00  0.00    +0.039 A 
ATOM     29  C   UNL     1      15.456   7.694   4.778  0.00  0.00    +0.123 A 
ENDBRANCH  16  19
BRANCH  17  20
ATOM     20  C   UNL     1      10.196   6.282   0.956  0.00  0.00    -0.013 A 
ATOM     23  C   UNL     1       9.738   5.261   0.123  0.00  0.00    +0.010 A 
ATOM     24  C   UNL     1      10.722   7.449   0.403  0.00  0.00    +0.010 A 
ATOM     27  C   UNL     1       9.806   5.406  -1.262  0.00  0.00    +0.015 A 
ATOM     28  C   UNL     1      10.791   7.596  -0.982  0.00  0.00    +0.015 A 
ATOM     30  C   UNL     1      10.333   6.574  -1.816  0.00  0.00    +0.008 A 
BRANCH  30   1
ATOM      1  S   UNL     1      10.422   6.759  -3.585  0.00  0.00    -0.129 S 
ATOM     31  C   UNL     1      10.823   5.069  -4.113  0.00  0.00    +0.090 C 
ENDBRANCH  30   1
ENDBRANCH  17  20
TORSDOF 3
ENDMDL
