MODEL 1
REMARK VINA RESULT:      -6.2      0.000      0.000
REMARK  Name = 75536198
REMARK  3 active torsions:
REMARK  status: ('A' for Active; 'I' for Inactive)
REMARK    1  A    between atoms: N_2  and  C_11
REMARK    2  A    between atoms: C_6  and  C_9
REMARK    3  A    between atoms: C_12  and  C_14
REMARK                            x       y       z     vdW  Elec       q    Type
REMARK                         _______ _______ _______ _____ _____    ______ ____
ROOT
ATOM      3  N   UNL     1      14.355   7.804  20.509  0.00  0.00    -0.341 N 
ATOM      4  N   UNL     1      13.282   7.977  18.573  0.00  0.00    -0.238 NA
ATOM      9  C   UNL     1      13.207   8.179  19.870  0.00  0.00    +0.127 A 
ATOM     12  C   UNL     1      15.217   7.333  19.560  0.00  0.00    +0.066 A 
ATOM     13  C   UNL     1      14.533   7.448  18.373  0.00  0.00    +0.139 A 
ATOM     19  H   UNL     1      14.524   7.860  21.505  0.00  0.00    +0.167 HD
ENDROOT
BRANCH   9   6
ATOM      1  O   UNL     1      11.246  10.806  21.716  0.00  0.00    -0.377 OA
ATOM      2  N   UNL     1      11.665   7.977  21.848  0.00  0.00    -0.292 NA
ATOM      6  C   UNL     1      12.025   8.756  20.636  0.00  0.00    +0.149 C 
ATOM      7  C   UNL     1      12.342  10.214  21.020  0.00  0.00    +0.186 C 
ATOM      8  C   UNL     1      10.586   8.654  22.588  0.00  0.00    +0.113 C 
ATOM     10  C   UNL     1      10.975  10.089  22.918  0.00  0.00    +0.175 C 
ATOM     11  C   UNL     1      11.239   6.611  21.522  0.00  0.00    +0.105 C 
ENDBRANCH   9   6
BRANCH  12  14
ATOM      5  N   UNL     1      19.101   5.895  20.447  0.00  0.00    -0.263 NA
ATOM     14  C   UNL     1      16.538   6.845  19.861  0.00  0.00    +0.003 A 
ATOM     15  C   UNL     1      17.224   7.327  20.971  0.00  0.00    +0.029 A 
ATOM     16  C   UNL     1      17.132   5.889  19.044  0.00  0.00    +0.029 A 
ATOM     17  C   UNL     1      18.492   6.824  21.218  0.00  0.00    +0.111 A 
ATOM     18  C   UNL     1      18.403   5.451  19.378  0.00  0.00    +0.111 A 
ENDBRANCH  12  14
TORSDOF 2
ENDMDL
MODEL 2
REMARK VINA RESULT:      -6.0      1.675      2.307
REMARK  Name = 75536198
REMARK  3 active torsions:
REMARK  status: ('A' for Active; 'I' for Inactive)
REMARK    1  A    between atoms: N_2  and  C_11
REMARK    2  A    between atoms: C_6  and  C_9
REMARK    3  A    between atoms: C_12  and  C_14
REMARK                            x       y       z     vdW  Elec       q    Type
REMARK                         _______ _______ _______ _____ _____    ______ ____
ROOT
ATOM      3  N   UNL     1      15.650   6.836  21.425  0.00  0.00    -0.341 N 
ATOM      4  N   UNL     1      14.541   6.944  19.504  0.00  0.00    -0.238 NA
ATOM      9  C   UNL     1      14.447   7.043  20.811  0.00  0.00    +0.127 A 
ATOM     12  C   UNL     1      16.571   6.587  20.446  0.00  0.00    +0.066 A 
ATOM     13  C   UNL     1      15.863   6.659  19.270  0.00  0.00    +0.139 A 
ATOM     19  H   UNL     1      15.818   6.854  22.422  0.00  0.00    +0.167 HD
ENDROOT
BRANCH   9   6
ATOM      1  O   UNL     1      10.844   6.703  21.842  0.00  0.00    -0.377 OA
ATOM      2  N   UNL     1      12.795   8.781  21.576  0.00  0.00    -0.292 NA
ATOM      6  C   UNL     1      13.191   7.350  21.614  0.00  0.00    +0.149 C 
ATOM      7  C   UNL     1      12.038   6.469  21.095  0.00  0.00    +0.186 C 
ATOM      8  C   UNL     1      11.519   8.977  22.287  0.00  0.00    +0.113 C 
ATOM     10  C   UNL     1      10.440   8.064  21.720  0.00  0.00    +0.175 C 
ATOM     11  C   UNL     1      13.815   9.653  22.171  0.00  0.00    +0.105 C 
ENDBRANCH   9   6
BRANCH  12  14
ATOM      5  N   UNL     1      20.657   5.802  21.237  0.00  0.00    -0.263 NA
ATOM     14  C   UNL     1      17.960   6.321  20.714  0.00  0.00    +0.003 A 
ATOM     15  C   UNL     1      18.597   6.947  21.781  0.00  0.00    +0.029 A 
ATOM     16  C   UNL     1      18.670   5.437  19.909  0.00  0.00    +0.029 A 
ATOM     17  C   UNL     1      19.935   6.656  21.997  0.00  0.00    +0.111 A 
ATOM     18  C   UNL     1      20.003   5.214  20.210  0.00  0.00    +0.111 A 
ENDBRANCH  12  14
TORSDOF 2
ENDMDL
MODEL 3
REMARK VINA RESULT:      -5.9      2.602      6.832
REMARK  Name = 75536198
REMARK  3 active torsions:
REMARK  status: ('A' for Active; 'I' for Inactive)
REMARK    1  A    between atoms: N_2  and  C_11
REMARK    2  A    between atoms: C_6  and  C_9
REMARK    3  A    between atoms: C_12  and  C_14
REMARK                            x       y       z     vdW  Elec       q    Type
REMARK                         _______ _______ _______ _____ _____    ______ ____
ROOT
ATOM      3  N   UNL     1      12.701   9.243  21.799  0.00  0.00    -0.341 N 
ATOM      4  N   UNL     1      11.514   7.373  21.950  0.00  0.00    -0.238 NA
ATOM      9  C   UNL     1      12.656   7.897  21.566  0.00  0.00    +0.127 A 
ATOM     12  C   UNL     1      11.511   9.600  22.367  0.00  0.00    +0.066 A 
ATOM     13  C   UNL     1      10.795   8.430  22.450  0.00  0.00    +0.139 A 
ATOM     19  H   UNL     1      13.474   9.857  21.578  0.00  0.00    +0.167 HD
ENDROOT
BRANCH   9   6
ATOM      1  O   UNL     1      16.201   6.668  21.278  0.00  0.00    -0.377 OA
ATOM      2  N   UNL     1      14.117   7.584  19.541  0.00  0.00    -0.292 NA
ATOM      6  C   UNL     1      13.831   7.162  20.936  0.00  0.00    +0.149 C 
ATOM      7  C   UNL     1      15.079   7.367  21.816  0.00  0.00    +0.186 C 
ATOM      8  C   UNL     1      15.326   6.906  19.041  0.00  0.00    +0.113 C 
ATOM     10  C   UNL     1      16.507   7.151  19.972  0.00  0.00    +0.175 C 
ATOM     11  C   UNL     1      12.998   7.299  18.636  0.00  0.00    +0.105 C 
ENDBRANCH   9   6
BRANCH  12  14
ATOM      5  N   UNL     1      10.566  13.569  23.506  0.00  0.00    -0.263 NA
ATOM     14  C   UNL     1      11.191  10.949  22.754  0.00  0.00    +0.003 A 
ATOM     15  C   UNL     1      11.220  11.972  21.812  0.00  0.00    +0.029 A 
ATOM     16  C   UNL     1      10.849  11.235  24.071  0.00  0.00    +0.029 A 
ATOM     17  C   UNL     1      10.903  13.253  22.235  0.00  0.00    +0.111 A 
ATOM     18  C   UNL     1      10.548  12.548  24.393  0.00  0.00    +0.111 A 
ENDBRANCH  12  14
TORSDOF 2
ENDMDL
MODEL 4
REMARK VINA RESULT:      -5.8      2.319      3.438
REMARK  Name = 75536198
REMARK  3 active torsions:
REMARK  status: ('A' for Active; 'I' for Inactive)
REMARK    1  A    between atoms: N_2  and  C_11
REMARK    2  A    between atoms: C_6  and  C_9
REMARK    3  A    between atoms: C_12  and  C_14
REMARK                            x       y       z     vdW  Elec       q    Type
REMARK                         _______ _______ _______ _____ _____    ______ ____
ROOT
ATOM      3  N   UNL     1      16.489   7.133  20.537  0.00  0.00    -0.341 N 
ATOM      4  N   UNL     1      15.781   6.283  18.611  0.00  0.00    -0.238 NA
ATOM      9  C   UNL     1      15.468   7.050  19.633  0.00  0.00    +0.127 A 
ATOM     12  C   UNL     1      17.519   6.371  20.063  0.00  0.00    +0.066 A 
ATOM     13  C   UNL     1      17.059   5.856  18.874  0.00  0.00    +0.139 A 
ATOM     19  H   UNL     1      16.474   7.658  21.402  0.00  0.00    +0.167 HD
ENDROOT
BRANCH   9   6
ATOM      1  O   UNL     1      11.733   7.450  19.852  0.00  0.00    -0.377 OA
ATOM      2  N   UNL     1      13.990   8.980  18.982  0.00  0.00    -0.292 NA
ATOM      6  C   UNL     1      14.154   7.787  19.851  0.00  0.00    +0.149 C 
ATOM      7  C   UNL     1      12.987   6.806  19.627  0.00  0.00    +0.186 C 
ATOM      8  C   UNL     1      12.657   9.575  19.178  0.00  0.00    +0.113 C 
ATOM     10  C   UNL     1      11.564   8.539  18.949  0.00  0.00    +0.175 C 
ATOM     11  C   UNL     1      15.014  10.000  19.243  0.00  0.00    +0.105 C 
ENDBRANCH   9   6
BRANCH  12  14
ATOM      5  N   UNL     1      21.211   5.920  22.088  0.00  0.00    -0.263 NA
ATOM     14  C   UNL     1      18.774   6.217  20.752  0.00  0.00    +0.003 A 
ATOM     15  C   UNL     1      19.734   5.336  20.265  0.00  0.00    +0.029 A 
ATOM     16  C   UNL     1      19.031   6.950  21.905  0.00  0.00    +0.029 A 
ATOM     17  C   UNL     1      20.925   5.225  20.964  0.00  0.00    +0.111 A 
ATOM     18  C   UNL     1      20.254   6.767  22.529  0.00  0.00    +0.111 A 
ENDBRANCH  12  14
TORSDOF 2
ENDMDL
MODEL 5
REMARK VINA RESULT:      -5.8     29.241     31.297
REMARK  Name = 75536198
REMARK  3 active torsions:
REMARK  status: ('A' for Active; 'I' for Inactive)
REMARK    1  A    between atoms: N_2  and  C_11
REMARK    2  A    between atoms: C_6  and  C_9
REMARK    3  A    between atoms: C_12  and  C_14
REMARK                            x       y       z     vdW  Elec       q    Type
REMARK                         _______ _______ _______ _____ _____    ______ ____
ROOT
ATOM      3  N   UNL     1       0.212   2.057  -6.718  0.00  0.00    -0.341 N 
ATOM      4  N   UNL     1       1.843   1.454  -5.336  0.00  0.00    -0.238 NA
ATOM      9  C   UNL     1       1.367   2.424  -6.085  0.00  0.00    +0.127 A 
ATOM     12  C   UNL     1      -0.065   0.770  -6.349  0.00  0.00    +0.066 A 
ATOM     13  C   UNL     1       0.955   0.420  -5.497  0.00  0.00    +0.139 A 
ATOM     19  H   UNL     1      -0.327   2.634  -7.349  0.00  0.00    +0.167 HD
ENDROOT
BRANCH   9   6
ATOM      1  O   UNL     1       3.858   4.966  -7.306  0.00  0.00    -0.377 OA
ATOM      2  N   UNL     1       2.222   4.526  -4.998  0.00  0.00    -0.292 NA
ATOM      6  C   UNL     1       1.967   3.810  -6.273  0.00  0.00    +0.149 C 
ATOM      7  C   UNL     1       3.275   3.683  -7.079  0.00  0.00    +0.186 C 
ATOM      8  C   UNL     1       2.896   5.810  -5.260  0.00  0.00    +0.113 C 
ATOM     10  C   UNL     1       4.170   5.597  -6.066  0.00  0.00    +0.175 C 
ATOM     11  C   UNL     1       0.985   4.778  -4.248  0.00  0.00    +0.105 C 
ENDBRANCH   9   6
BRANCH  12  14
ATOM      5  N   UNL     1      -3.443  -1.375  -7.736  0.00  0.00    -0.263 NA
ATOM     14  C   UNL     1      -1.214   0.041  -6.820  0.00  0.00    +0.003 A 
ATOM     15  C   UNL     1      -2.106   0.639  -7.704  0.00  0.00    +0.029 A 
ATOM     16  C   UNL     1      -1.435  -1.264  -6.394  0.00  0.00    +0.029 A 
ATOM     17  C   UNL     1      -3.195  -0.105  -8.128  0.00  0.00    +0.111 A 
ATOM     18  C   UNL     1      -2.554  -1.922  -6.877  0.00  0.00    +0.111 A 
ENDBRANCH  12  14
TORSDOF 2
ENDMDL
MODEL 6
REMARK VINA RESULT:      -5.5      2.402      3.613
REMARK  Name = 75536198
REMARK  3 active torsions:
REMARK  status: ('A' for Active; 'I' for Inactive)
REMARK    1  A    between atoms: N_2  and  C_11
REMARK    2  A    between atoms: C_6  and  C_9
REMARK    3  A    between atoms: C_12  and  C_14
REMARK                            x       y       z     vdW  Elec       q    Type
REMARK                         _______ _______ _______ _____ _____    ______ ____
ROOT
ATOM      3  N   UNL     1      16.190   7.572  20.178  0.00  0.00    -0.341 N 
ATOM      4  N   UNL     1      16.410   5.874  18.763  0.00  0.00    -0.238 NA
ATOM      9  C   UNL     1      15.597   6.803  19.215  0.00  0.00    +0.127 A 
ATOM     12  C   UNL     1      17.462   7.103  20.350  0.00  0.00    +0.066 A 
ATOM     13  C   UNL     1      17.574   6.055  19.467  0.00  0.00    +0.139 A 
ATOM     19  H   UNL     1      15.757   8.340  20.673  0.00  0.00    +0.167 HD
ENDROOT
BRANCH   9   6
ATOM      1  O   UNL     1      12.854   8.012  16.942  0.00  0.00    -0.377 OA
ATOM      2  N   UNL     1      13.365   7.833  19.754  0.00  0.00    -0.292 NA
ATOM      6  C   UNL     1      14.163   7.056  18.772  0.00  0.00    +0.149 C 
ATOM      7  C   UNL     1      14.181   7.781  17.413  0.00  0.00    +0.186 C 
ATOM      8  C   UNL     1      12.028   8.124  19.208  0.00  0.00    +0.113 C 
ATOM     10  C   UNL     1      12.135   8.830  17.862  0.00  0.00    +0.175 C 
ATOM     11  C   UNL     1      13.218   7.125  21.031  0.00  0.00    +0.105 C 
ENDBRANCH   9   6
BRANCH  12  14
ATOM      5  N   UNL     1      20.205   8.770  23.114  0.00  0.00    -0.263 NA
ATOM     14  C   UNL     1      18.395   7.670  21.289  0.00  0.00    +0.003 A 
ATOM     15  C   UNL     1      18.460   9.048  21.462  0.00  0.00    +0.029 A 
ATOM     16  C   UNL     1      19.233   6.841  22.027  0.00  0.00    +0.029 A 
ATOM     17  C   UNL     1      19.374   9.543  22.379  0.00  0.00    +0.111 A 
ATOM     18  C   UNL     1      20.112   7.435  22.917  0.00  0.00    +0.111 A 
ENDBRANCH  12  14
TORSDOF 2
ENDMDL
MODEL 7
REMARK VINA RESULT:      -5.5      3.830      6.712
REMARK  Name = 75536198
REMARK  3 active torsions:
REMARK  status: ('A' for Active; 'I' for Inactive)
REMARK    1  A    between atoms: N_2  and  C_11
REMARK    2  A    between atoms: C_6  and  C_9
REMARK    3  A    between atoms: C_12  and  C_14
REMARK                            x       y       z     vdW  Elec       q    Type
REMARK                         _______ _______ _______ _____ _____    ______ ____
ROOT
ATOM      3  N   UNL     1      11.997   9.743  19.962  0.00  0.00    -0.341 N 
ATOM      4  N   UNL     1      11.244   7.653  19.965  0.00  0.00    -0.238 NA
ATOM      9  C   UNL     1      11.912   8.558  19.285  0.00  0.00    +0.127 A 
ATOM     12  C   UNL     1      11.341   9.582  21.150  0.00  0.00    +0.066 A 
ATOM     13  C   UNL     1      10.885   8.285  21.128  0.00  0.00    +0.139 A 
ATOM     19  H   UNL     1      12.456  10.582  19.634  0.00  0.00    +0.167 HD
ENDROOT
BRANCH   9   6
ATOM      1  O   UNL     1      14.680   8.576  16.735  0.00  0.00    -0.377 OA
ATOM      2  N   UNL     1      11.884   9.184  16.847  0.00  0.00    -0.292 NA
ATOM      6  C   UNL     1      12.544   8.385  17.911  0.00  0.00    +0.149 C 
ATOM      7  C   UNL     1      14.038   8.754  17.998  0.00  0.00    +0.186 C 
ATOM      8  C   UNL     1      12.615   9.043  15.576  0.00  0.00    +0.113 C 
ATOM     10  C   UNL     1      14.081   9.416  15.751  0.00  0.00    +0.175 C 
ATOM     11  C   UNL     1      10.486   8.785  16.643  0.00  0.00    +0.105 C 
ENDBRANCH   9   6
BRANCH  12  14
ATOM      5  N   UNL     1      10.983  12.648  24.050  0.00  0.00    -0.263 NA
ATOM     14  C   UNL     1      11.220  10.624  22.136  0.00  0.00    +0.003 A 
ATOM     15  C   UNL     1      11.340  11.958  21.760  0.00  0.00    +0.029 A 
ATOM     16  C   UNL     1      10.982  10.302  23.467  0.00  0.00    +0.029 A 
ATOM     17  C   UNL     1      11.215  12.923  22.746  0.00  0.00    +0.111 A 
ATOM     18  C   UNL     1      10.872  11.341  24.376  0.00  0.00    +0.111 A 
ENDBRANCH  12  14
TORSDOF 2
ENDMDL
MODEL 8
REMARK VINA RESULT:      -5.4     15.198     17.704
REMARK  Name = 75536198
REMARK  3 active torsions:
REMARK  status: ('A' for Active; 'I' for Inactive)
REMARK    1  A    between atoms: N_2  and  C_11
REMARK    2  A    between atoms: C_6  and  C_9
REMARK    3  A    between atoms: C_12  and  C_14
REMARK                            x       y       z     vdW  Elec       q    Type
REMARK                         _______ _______ _______ _____ _____    ______ ____
ROOT
ATOM      3  N   UNL     1      11.132   5.207   4.447  0.00  0.00    -0.341 N 
ATOM      4  N   UNL     1      10.057   6.373   2.892  0.00  0.00    -0.238 NA
ATOM      9  C   UNL     1      11.082   5.586   3.135  0.00  0.00    +0.127 A 
ATOM     12  C   UNL     1      10.073   5.792   5.083  0.00  0.00    +0.066 A 
ATOM     13  C   UNL     1       9.425   6.507   4.103  0.00  0.00    +0.139 A 
ATOM     19  H   UNL     1      11.834   4.611   4.865  0.00  0.00    +0.167 HD
ENDROOT
BRANCH   9   6
ATOM      1  O   UNL     1      13.092   3.073   1.184  0.00  0.00    -0.377 OA
ATOM      2  N   UNL     1      13.484   5.641   2.388  0.00  0.00    -0.292 NA
ATOM      6  C   UNL     1      12.122   5.108   2.132  0.00  0.00    +0.149 C 
ATOM      7  C   UNL     1      12.149   3.567   2.135  0.00  0.00    +0.186 C 
ATOM      8  C   UNL     1      14.449   5.052   1.443  0.00  0.00    +0.113 C 
ATOM     10  C   UNL     1      14.404   3.531   1.502  0.00  0.00    +0.175 C 
ATOM     11  C   UNL     1      13.536   7.104   2.278  0.00  0.00    +0.105 C 
ENDBRANCH   9   6
BRANCH  12  14
ATOM      5  N   UNL     1       9.265   5.287   9.210  0.00  0.00    -0.263 NA
ATOM     14  C   UNL     1       9.798   5.620   6.485  0.00  0.00    +0.003 A 
ATOM     15  C   UNL     1       9.998   4.384   7.089  0.00  0.00    +0.029 A 
ATOM     16  C   UNL     1       9.332   6.690   7.241  0.00  0.00    +0.029 A 
ATOM     17  C   UNL     1       9.719   4.270   8.443  0.00  0.00    +0.111 A 
ATOM     18  C   UNL     1       9.083   6.473   8.587  0.00  0.00    +0.111 A 
ENDBRANCH  12  14
TORSDOF 2
ENDMDL
MODEL 9
REMARK VINA RESULT:      -5.3     25.961     27.576
REMARK  Name = 75536198
REMARK  3 active torsions:
REMARK  status: ('A' for Active; 'I' for Inactive)
REMARK    1  A    between atoms: N_2  and  C_11
REMARK    2  A    between atoms: C_6  and  C_9
REMARK    3  A    between atoms: C_12  and  C_14
REMARK                            x       y       z     vdW  Elec       q    Type
REMARK                         _______ _______ _______ _____ _____    ______ ____
ROOT
ATOM      3  N   UNL     1      -4.073 -10.448  13.055  0.00  0.00    -0.341 N 
ATOM      4  N   UNL     1      -1.885 -10.692  12.759  0.00  0.00    -0.238 NA
ATOM      9  C   UNL     1      -3.043 -10.525  12.159  0.00  0.00    +0.127 A 
ATOM     12  C   UNL     1      -3.537 -10.575  14.306  0.00  0.00    +0.066 A 
ATOM     13  C   UNL     1      -2.187 -10.725  14.098  0.00  0.00    +0.139 A 
ATOM     19  H   UNL     1      -5.050 -10.328  12.825  0.00  0.00    +0.167 HD
ENDROOT
BRANCH   9   6
ATOM      1  O   UNL     1      -3.969  -8.834   8.928  0.00  0.00    -0.377 OA
ATOM      2  N   UNL     1      -4.267 -11.408  10.145  0.00  0.00    -0.292 NA
ATOM      6  C   UNL     1      -3.287 -10.419  10.660  0.00  0.00    +0.149 C 
ATOM      7  C   UNL     1      -3.756  -8.989  10.331  0.00  0.00    +0.186 C 
ATOM      8  C   UNL     1      -4.525 -11.173   8.714  0.00  0.00    +0.113 C 
ATOM     10  C   UNL     1      -4.974  -9.738   8.475  0.00  0.00    +0.175 C 
ATOM     11  C   UNL     1      -3.807 -12.790  10.329  0.00  0.00    +0.105 C 
ENDBRANCH   9   6
BRANCH  12  14
ATOM      5  N   UNL     1      -5.852 -10.479  17.851  0.00  0.00    -0.263 NA
ATOM     14  C   UNL     1      -4.324 -10.541  15.511  0.00  0.00    +0.003 A 
ATOM     15  C   UNL     1      -5.579  -9.943  15.509  0.00  0.00    +0.029 A 
ATOM     16  C   UNL     1      -3.832 -11.109  16.681  0.00  0.00    +0.029 A 
ATOM     17  C   UNL     1      -6.297  -9.938  16.694  0.00  0.00    +0.111 A 
ATOM     18  C   UNL     1      -4.628 -11.051  17.813  0.00  0.00    +0.111 A 
ENDBRANCH  12  14
TORSDOF 2
ENDMDL
MODEL 10
REMARK VINA RESULT:      -5.3     30.732     31.943
REMARK  Name = 75536198
REMARK  3 active torsions:
REMARK  status: ('A' for Active; 'I' for Inactive)
REMARK    1  A    between atoms: N_2  and  C_11
REMARK    2  A    between atoms: C_6  and  C_9
REMARK    3  A    between atoms: C_12  and  C_14
REMARK                            x       y       z     vdW  Elec       q    Type
REMARK                         _______ _______ _______ _____ _____    ______ ____
ROOT
ATOM      3  N   UNL     1     -16.039   2.267  27.727  0.00  0.00    -0.341 N 
ATOM      4  N   UNL     1     -17.272   0.575  28.469  0.00  0.00    -0.238 NA
ATOM      9  C   UNL     1     -16.388   1.491  28.797  0.00  0.00    +0.127 A 
ATOM     12  C   UNL     1     -16.745   1.817  26.648  0.00  0.00    +0.066 A 
ATOM     13  C   UNL     1     -17.498   0.773  27.129  0.00  0.00    +0.139 A 
ATOM     19  H   UNL     1     -15.372   3.027  27.739  0.00  0.00    +0.167 HD
ENDROOT
BRANCH   9   6
ATOM      1  O   UNL     1     -15.656   3.378  31.969  0.00  0.00    -0.377 OA
ATOM      2  N   UNL     1     -14.306   1.567  30.210  0.00  0.00    -0.292 NA
ATOM      6  C   UNL     1     -15.782   1.722  30.175  0.00  0.00    +0.149 C 
ATOM      7  C   UNL     1     -16.178   3.129  30.664  0.00  0.00    +0.186 C 
ATOM      8  C   UNL     1     -13.789   1.908  31.546  0.00  0.00    +0.113 C 
ATOM     10  C   UNL     1     -14.232   3.306  31.957  0.00  0.00    +0.175 C 
ATOM     11  C   UNL     1     -13.885   0.204  29.865  0.00  0.00    +0.105 C 
ENDBRANCH   9   6
BRANCH  12  14
ATOM      5  N   UNL     1     -16.431   3.519  22.782  0.00  0.00    -0.263 NA
ATOM     14  C   UNL     1     -16.639   2.397  25.334  0.00  0.00    +0.003 A 
ATOM     15  C   UNL     1     -15.700   3.392  25.084  0.00  0.00    +0.029 A 
ATOM     16  C   UNL     1     -17.473   1.961  24.310  0.00  0.00    +0.029 A 
ATOM     17  C   UNL     1     -15.637   3.916  23.802  0.00  0.00    +0.111 A 
ATOM     18  C   UNL     1     -17.330   2.550  23.064  0.00  0.00    +0.111 A 
ENDBRANCH  12  14
TORSDOF 2
ENDMDL
