MODEL 1
REMARK VINA RESULT:      -6.1      0.000      0.000
REMARK  Name = 75536877
REMARK  5 active torsions:
REMARK  status: ('A' for Active; 'I' for Inactive)
REMARK    1  A    between atoms: O_5  and  C_9
REMARK    2  A    between atoms: O_5  and  C_18
REMARK    3  A    between atoms: C_14  and  C_15
REMARK    4  A    between atoms: C_16  and  C_20
REMARK    5  A    between atoms: C_19  and  C_23
REMARK                            x       y       z     vdW  Elec       q    Type
REMARK                         _______ _______ _______ _____ _____    ______ ____
ROOT
ATOM      4  O   UNL     1      10.502   6.968  21.798  0.00  0.00    -0.375 OA
ATOM      7  O   UNL     1      14.614   7.077  18.931  0.00  0.00    -0.270 OA
ATOM      8  N   UNL     1      12.512   7.803  19.673  0.00  0.00    -0.292 N 
ATOM      9  C   UNL     1      11.521   9.228  21.431  0.00  0.00    +0.216 C 
ATOM     10  C   UNL     1      11.568   8.900  19.939  0.00  0.00    +0.155 C 
ATOM     11  C   UNL     1      12.067   6.458  20.040  0.00  0.00    +0.136 C 
ATOM     12  C   UNL     1      10.589   8.318  22.236  0.00  0.00    +0.206 C 
ATOM     13  C   UNL     1      11.747   6.334  21.527  0.00  0.00    +0.179 C 
ATOM     14  C   UNL     1      13.795   7.972  19.134  0.00  0.00    +0.250 C 
ENDROOT
BRANCH  14  15
ATOM      6  O   UNL     1      14.517  11.200  17.564  0.00  0.00    -0.455 OA
ATOM     15  C   UNL     1      14.222   9.330  18.775  0.00  0.00    +0.087 A 
ATOM     16  C   UNL     1      13.988   9.948  17.569  0.00  0.00    +0.220 A 
ATOM     17  C   UNL     1      14.942  10.261  19.562  0.00  0.00    +0.058 A 
ATOM     19  C   UNL     1      15.095  11.383  18.779  0.00  0.00    +0.103 A 
ATOM     23  C   UNL     1      15.738  12.684  19.004  0.00  0.00    +0.086 C 
BRANCH  16  20
ATOM      1  F   UNL     1      13.197  10.521  15.386  0.00  0.00    -0.163 F 
ATOM      2  F   UNL     1      12.011   9.104  16.521  0.00  0.00    -0.163 F 
ATOM      3  F   UNL     1      13.925   8.495  15.689  0.00  0.00    -0.163 F 
ATOM     20  C   UNL     1      13.303   9.533  16.336  0.00  0.00    +0.451 C 
ENDBRANCH  16  20
ENDBRANCH  14  15
BRANCH   9   5
ATOM      5  O   UNL     1      11.098  10.581  21.591  0.00  0.00    -0.485 OA
BRANCH   5  18
ATOM     18  C   UNL     1      12.083  11.512  21.767  0.00  0.00    +0.121 A 
ATOM     21  C   UNL     1      13.154  11.243  22.620  0.00  0.00    +0.045 A 
ATOM     22  C   UNL     1      12.018  12.732  21.095  0.00  0.00    +0.045 A 
ATOM     24  C   UNL     1      14.159  12.193  22.800  0.00  0.00    +0.004 A 
ATOM     25  C   UNL     1      13.024  13.683  21.274  0.00  0.00    +0.004 A 
ATOM     26  C   UNL     1      14.094  13.412  22.126  0.00  0.00    +0.000 A 
ENDBRANCH   5  18
ENDBRANCH   9   5
TORSDOF 4
ENDMDL
MODEL 2
REMARK VINA RESULT:      -6.0      2.671      5.462
REMARK  Name = 75536877
REMARK  5 active torsions:
REMARK  status: ('A' for Active; 'I' for Inactive)
REMARK    1  A    between atoms: O_5  and  C_9
REMARK    2  A    between atoms: O_5  and  C_18
REMARK    3  A    between atoms: C_14  and  C_15
REMARK    4  A    between atoms: C_16  and  C_20
REMARK    5  A    between atoms: C_19  and  C_23
REMARK                            x       y       z     vdW  Elec       q    Type
REMARK                         _______ _______ _______ _____ _____    ______ ____
ROOT
ATOM      4  O   UNL     1      13.793  10.313  14.969  0.00  0.00    -0.375 OA
ATOM      7  O   UNL     1      16.400  11.552  19.069  0.00  0.00    -0.270 OA
ATOM      8  N   UNL     1      14.458  11.171  17.810  0.00  0.00    -0.292 N 
ATOM      9  C   UNL     1      12.994   9.305  17.121  0.00  0.00    +0.216 C 
ATOM     10  C   UNL     1      13.066  10.703  17.734  0.00  0.00    +0.155 C 
ATOM     11  C   UNL     1      15.071  11.601  16.552  0.00  0.00    +0.136 C 
ATOM     12  C   UNL     1      13.012   9.299  15.589  0.00  0.00    +0.206 C 
ATOM     13  C   UNL     1      15.099  10.490  15.507  0.00  0.00    +0.179 C 
ATOM     14  C   UNL     1      15.226  11.195  18.984  0.00  0.00    +0.250 C 
ENDROOT
BRANCH  14  15
ATOM      6  O   UNL     1      14.151   9.519  22.056  0.00  0.00    -0.455 OA
ATOM     15  C   UNL     1      14.593  10.758  20.234  0.00  0.00    +0.087 A 
ATOM     16  C   UNL     1      14.931   9.632  20.949  0.00  0.00    +0.220 A 
ATOM     17  C   UNL     1      13.538  11.376  20.948  0.00  0.00    +0.058 A 
ATOM     19  C   UNL     1      13.307  10.583  22.048  0.00  0.00    +0.103 A 
ATOM     23  C   UNL     1      12.360  10.670  23.168  0.00  0.00    +0.086 C 
BRANCH  16  20
ATOM      1  F   UNL     1      15.905   7.989  19.510  0.00  0.00    -0.163 F 
ATOM      2  F   UNL     1      15.815   7.515  21.624  0.00  0.00    -0.163 F 
ATOM      3  F   UNL     1      17.224   9.007  20.907  0.00  0.00    -0.163 F 
ATOM     20  C   UNL     1      15.931   8.572  20.754  0.00  0.00    +0.451 C 
ENDBRANCH  16  20
ENDBRANCH  14  15
BRANCH   9   5
ATOM      5  O   UNL     1      11.802   8.665  17.572  0.00  0.00    -0.485 OA
BRANCH   5  18
ATOM     18  C   UNL     1      11.842   8.108  18.819  0.00  0.00    +0.121 A 
ATOM     21  C   UNL     1      10.918   8.500  19.788  0.00  0.00    +0.045 A 
ATOM     22  C   UNL     1      12.805   7.147  19.124  0.00  0.00    +0.045 A 
ATOM     24  C   UNL     1      10.958   7.932  21.061  0.00  0.00    +0.004 A 
ATOM     25  C   UNL     1      12.846   6.579  20.397  0.00  0.00    +0.004 A 
ATOM     26  C   UNL     1      11.921   6.971  21.365  0.00  0.00    +0.000 A 
ENDBRANCH   5  18
ENDBRANCH   9   5
TORSDOF 4
ENDMDL
MODEL 3
REMARK VINA RESULT:      -5.9      2.512      3.618
REMARK  Name = 75536877
REMARK  5 active torsions:
REMARK  status: ('A' for Active; 'I' for Inactive)
REMARK    1  A    between atoms: O_5  and  C_9
REMARK    2  A    between atoms: O_5  and  C_18
REMARK    3  A    between atoms: C_14  and  C_15
REMARK    4  A    between atoms: C_16  and  C_20
REMARK    5  A    between atoms: C_19  and  C_23
REMARK                            x       y       z     vdW  Elec       q    Type
REMARK                         _______ _______ _______ _____ _____    ______ ____
ROOT
ATOM      4  O   UNL     1      10.583   9.975  23.165  0.00  0.00    -0.375 OA
ATOM      7  O   UNL     1      11.746   6.190  20.089  0.00  0.00    -0.270 OA
ATOM      8  N   UNL     1      11.316   8.426  20.653  0.00  0.00    -0.292 N 
ATOM      9  C   UNL     1      12.483  10.393  21.584  0.00  0.00    +0.216 C 
ATOM     10  C   UNL     1      11.592   9.859  20.465  0.00  0.00    +0.155 C 
ATOM     11  C   UNL     1      10.352   8.080  21.698  0.00  0.00    +0.136 C 
ATOM     12  C   UNL     1      11.718  10.774  22.856  0.00  0.00    +0.206 C 
ATOM     13  C   UNL     1      10.785   8.569  23.077  0.00  0.00    +0.179 C 
ATOM     14  C   UNL     1      11.935   7.396  19.930  0.00  0.00    +0.250 C 
ENDROOT
BRANCH  14  15
ATOM      6  O   UNL     1      14.867   8.172  17.880  0.00  0.00    -0.455 OA
ATOM     15  C   UNL     1      12.901   7.764  18.888  0.00  0.00    +0.087 A 
ATOM     16  C   UNL     1      14.268   7.786  19.036  0.00  0.00    +0.220 A 
ATOM     17  C   UNL     1      12.643   8.163  17.554  0.00  0.00    +0.058 A 
ATOM     19  C   UNL     1      13.873   8.400  16.983  0.00  0.00    +0.103 A 
ATOM     23  C   UNL     1      14.292   8.831  15.643  0.00  0.00    +0.086 C 
BRANCH  16  20
ATOM      1  F   UNL     1      16.477   7.845  19.950  0.00  0.00    -0.163 F 
ATOM      2  F   UNL     1      15.235   6.152  20.491  0.00  0.00    -0.163 F 
ATOM      3  F   UNL     1      14.816   8.115  21.326  0.00  0.00    -0.163 F 
ATOM     20  C   UNL     1      15.168   7.484  20.159  0.00  0.00    +0.451 C 
ENDBRANCH  16  20
ENDBRANCH  14  15
BRANCH   9   5
ATOM      5  O   UNL     1      13.184  11.540  21.107  0.00  0.00    -0.485 OA
BRANCH   5  18
ATOM     18  C   UNL     1      14.526  11.391  20.895  0.00  0.00    +0.121 A 
ATOM     21  C   UNL     1      15.397  11.292  21.981  0.00  0.00    +0.045 A 
ATOM     22  C   UNL     1      15.026  11.337  19.595  0.00  0.00    +0.045 A 
ATOM     24  C   UNL     1      16.766  11.139  21.766  0.00  0.00    +0.004 A 
ATOM     25  C   UNL     1      16.396  11.185  19.379  0.00  0.00    +0.004 A 
ATOM     26  C   UNL     1      17.266  11.085  20.465  0.00  0.00    +0.000 A 
ENDBRANCH   5  18
ENDBRANCH   9   5
TORSDOF 4
ENDMDL
MODEL 4
REMARK VINA RESULT:      -5.8     30.472     32.098
REMARK  Name = 75536877
REMARK  5 active torsions:
REMARK  status: ('A' for Active; 'I' for Inactive)
REMARK    1  A    between atoms: O_5  and  C_9
REMARK    2  A    between atoms: O_5  and  C_18
REMARK    3  A    between atoms: C_14  and  C_15
REMARK    4  A    between atoms: C_16  and  C_20
REMARK    5  A    between atoms: C_19  and  C_23
REMARK                            x       y       z     vdW  Elec       q    Type
REMARK                         _______ _______ _______ _____ _____    ______ ____
ROOT
ATOM      4  O   UNL     1     -15.915   5.291  35.228  0.00  0.00    -0.375 OA
ATOM      7  O   UNL     1     -12.765   3.102  31.998  0.00  0.00    -0.270 OA
ATOM      8  N   UNL     1     -14.832   3.473  33.043  0.00  0.00    -0.292 N 
ATOM      9  C   UNL     1     -16.776   4.989  32.893  0.00  0.00    +0.216 C 
ATOM     10  C   UNL     1     -16.299   3.539  32.968  0.00  0.00    +0.155 C 
ATOM     11  C   UNL     1     -14.229   3.825  34.330  0.00  0.00    +0.136 C 
ATOM     12  C   UNL     1     -16.880   5.677  34.257  0.00  0.00    +0.206 C 
ATOM     13  C   UNL     1     -14.570   5.247  34.765  0.00  0.00    +0.179 C 
ATOM     14  C   UNL     1     -13.994   3.135  31.970  0.00  0.00    +0.250 C 
ENDROOT
BRANCH  14  15
ATOM      6  O   UNL     1     -15.555   1.552  29.061  0.00  0.00    -0.455 OA
ATOM     15  C   UNL     1     -14.619   2.788  30.688  0.00  0.00    +0.087 A 
ATOM     16  C   UNL     1     -15.015   1.527  30.308  0.00  0.00    +0.220 A 
ATOM     17  C   UNL     1     -14.935   3.644  29.605  0.00  0.00    +0.058 A 
ATOM     19  C   UNL     1     -15.503   2.843  28.640  0.00  0.00    +0.103 A 
ATOM     23  C   UNL     1     -16.041   3.112  27.300  0.00  0.00    +0.086 C 
BRANCH  16  20
ATOM      1  F   UNL     1     -14.919   0.263  32.336  0.00  0.00    -0.163 F 
ATOM      2  F   UNL     1     -13.886  -0.559  30.616  0.00  0.00    -0.163 F 
ATOM      3  F   UNL     1     -16.059  -0.575  30.685  0.00  0.00    -0.163 F 
ATOM     20  C   UNL     1     -14.969   0.212  30.963  0.00  0.00    +0.451 C 
ENDBRANCH  16  20
ENDBRANCH  14  15
BRANCH   9   5
ATOM      5  O   UNL     1     -18.053   5.021  32.260  0.00  0.00    -0.485 OA
BRANCH   5  18
ATOM     18  C   UNL     1     -18.067   5.320  30.926  0.00  0.00    +0.121 A 
ATOM     21  C   UNL     1     -17.225   6.313  30.425  0.00  0.00    +0.045 A 
ATOM     22  C   UNL     1     -18.923   4.633  30.066  0.00  0.00    +0.045 A 
ATOM     24  C   UNL     1     -17.238   6.618  29.065  0.00  0.00    +0.004 A 
ATOM     25  C   UNL     1     -18.937   4.938  28.704  0.00  0.00    +0.004 A 
ATOM     26  C   UNL     1     -18.094   5.930  28.204  0.00  0.00    +0.000 A 
ENDBRANCH   5  18
ENDBRANCH   9   5
TORSDOF 4
ENDMDL
MODEL 5
REMARK VINA RESULT:      -5.8      2.766      3.234
REMARK  Name = 75536877
REMARK  5 active torsions:
REMARK  status: ('A' for Active; 'I' for Inactive)
REMARK    1  A    between atoms: O_5  and  C_9
REMARK    2  A    between atoms: O_5  and  C_18
REMARK    3  A    between atoms: C_14  and  C_15
REMARK    4  A    between atoms: C_16  and  C_20
REMARK    5  A    between atoms: C_19  and  C_23
REMARK                            x       y       z     vdW  Elec       q    Type
REMARK                         _______ _______ _______ _____ _____    ______ ____
ROOT
ATOM      4  O   UNL     1      10.372   6.997  21.782  0.00  0.00    -0.375 OA
ATOM      7  O   UNL     1      14.850   6.888  19.527  0.00  0.00    -0.270 OA
ATOM      8  N   UNL     1      12.729   7.762  20.018  0.00  0.00    -0.292 N 
ATOM      9  C   UNL     1      11.617   9.171  21.714  0.00  0.00    +0.216 C 
ATOM     10  C   UNL     1      11.851   8.924  20.225  0.00  0.00    +0.155 C 
ATOM     11  C   UNL     1      12.126   6.444  20.228  0.00  0.00    +0.136 C 
ATOM     12  C   UNL     1      10.507   8.307  22.318  0.00  0.00    +0.206 C 
ATOM     13  C   UNL     1      11.586   6.268  21.644  0.00  0.00    +0.179 C 
ATOM     14  C   UNL     1      14.087   7.841  19.676  0.00  0.00    +0.250 C 
ENDROOT
BRANCH  14  15
ATOM      6  O   UNL     1      15.839  11.050  19.876  0.00  0.00    -0.455 OA
ATOM     15  C   UNL     1      14.673   9.172  19.472  0.00  0.00    +0.087 A 
ATOM     16  C   UNL     1      15.463   9.843  20.376  0.00  0.00    +0.220 A 
ATOM     17  C   UNL     1      14.554  10.020  18.345  0.00  0.00    +0.058 A 
ATOM     19  C   UNL     1      15.282  11.151  18.641  0.00  0.00    +0.103 A 
ATOM     23  C   UNL     1      15.559  12.390  17.903  0.00  0.00    +0.086 C 
BRANCH  16  20
ATOM      1  F   UNL     1      16.365  10.610  22.454  0.00  0.00    -0.163 F 
ATOM      2  F   UNL     1      17.048   8.680  21.739  0.00  0.00    -0.163 F 
ATOM      3  F   UNL     1      15.027   8.897  22.512  0.00  0.00    -0.163 F 
ATOM     20  C   UNL     1      15.960   9.520  21.721  0.00  0.00    +0.451 C 
ENDBRANCH  16  20
ENDBRANCH  14  15
BRANCH   9   5
ATOM      5  O   UNL     1      11.289  10.546  21.906  0.00  0.00    -0.485 OA
BRANCH   5  18
ATOM     18  C   UNL     1      11.734  11.125  23.061  0.00  0.00    +0.121 A 
ATOM     21  C   UNL     1      13.098  11.352  23.248  0.00  0.00    +0.045 A 
ATOM     22  C   UNL     1      10.826  11.489  24.055  0.00  0.00    +0.045 A 
ATOM     24  C   UNL     1      13.552  11.942  24.426  0.00  0.00    +0.004 A 
ATOM     25  C   UNL     1      11.280  12.079  25.234  0.00  0.00    +0.004 A 
ATOM     26  C   UNL     1      12.643  12.307  25.419  0.00  0.00    +0.000 A 
ENDBRANCH   5  18
ENDBRANCH   9   5
TORSDOF 4
ENDMDL
MODEL 6
REMARK VINA RESULT:      -5.8     12.655     16.257
REMARK  Name = 75536877
REMARK  5 active torsions:
REMARK  status: ('A' for Active; 'I' for Inactive)
REMARK    1  A    between atoms: O_5  and  C_9
REMARK    2  A    between atoms: O_5  and  C_18
REMARK    3  A    between atoms: C_14  and  C_15
REMARK    4  A    between atoms: C_16  and  C_20
REMARK    5  A    between atoms: C_19  and  C_23
REMARK                            x       y       z     vdW  Elec       q    Type
REMARK                         _______ _______ _______ _____ _____    ______ ____
ROOT
ATOM      4  O   UNL     1       8.928   8.562   2.435  0.00  0.00    -0.375 OA
ATOM      7  O   UNL     1       9.550   9.472   7.327  0.00  0.00    -0.270 OA
ATOM      8  N   UNL     1       8.914   8.208   5.456  0.00  0.00    -0.292 N 
ATOM      9  C   UNL     1       9.907   6.688   3.782  0.00  0.00    +0.216 C 
ATOM     10  C   UNL     1       8.781   6.902   4.791  0.00  0.00    +0.155 C 
ATOM     11  C   UNL     1       8.542   9.383   4.666  0.00  0.00    +0.136 C 
ATOM     12  C   UNL     1       9.649   7.337   2.418  0.00  0.00    +0.206 C 
ATOM     13  C   UNL     1       9.373   9.517   3.393  0.00  0.00    +0.179 C 
ATOM     14  C   UNL     1       9.399   8.391   6.759  0.00  0.00    +0.250 C 
ENDROOT
BRANCH  14  15
ATOM      6  O   UNL     1      11.029   5.563   8.418  0.00  0.00    -0.455 OA
ATOM     15  C   UNL     1       9.768   7.199   7.534  0.00  0.00    +0.087 A 
ATOM     16  C   UNL     1      11.032   6.663   7.621  0.00  0.00    +0.220 A 
ATOM     17  C   UNL     1       8.935   6.376   8.329  0.00  0.00    +0.058 A 
ATOM     19  C   UNL     1       9.751   5.394   8.845  0.00  0.00    +0.103 A 
ATOM     23  C   UNL     1       9.508   4.250   9.733  0.00  0.00    +0.086 C 
BRANCH  16  20
ATOM      1  F   UNL     1      12.692   8.345   7.254  0.00  0.00    -0.163 F 
ATOM      2  F   UNL     1      12.411   6.882   5.679  0.00  0.00    -0.163 F 
ATOM      3  F   UNL     1      13.380   6.303   7.537  0.00  0.00    -0.163 F 
ATOM     20  C   UNL     1      12.331   7.036   7.042  0.00  0.00    +0.451 C 
ENDBRANCH  16  20
ENDBRANCH  14  15
BRANCH   9   5
ATOM      5  O   UNL     1      10.100   5.287   3.598  0.00  0.00    -0.485 OA
BRANCH   5  18
ATOM     18  C   UNL     1      11.228   4.908   2.925  0.00  0.00    +0.121 A 
ATOM     21  C   UNL     1      12.264   5.823   2.729  0.00  0.00    +0.045 A 
ATOM     22  C   UNL     1      11.344   3.609   2.432  0.00  0.00    +0.045 A 
ATOM     24  C   UNL     1      13.414   5.437   2.043  0.00  0.00    +0.004 A 
ATOM     25  C   UNL     1      12.495   3.223   1.745  0.00  0.00    +0.004 A 
ATOM     26  C   UNL     1      13.530   4.137   1.551  0.00  0.00    +0.000 A 
ENDBRANCH   5  18
ENDBRANCH   9   5
TORSDOF 4
ENDMDL
MODEL 7
REMARK VINA RESULT:      -5.8     25.647     28.038
REMARK  Name = 75536877
REMARK  5 active torsions:
REMARK  status: ('A' for Active; 'I' for Inactive)
REMARK    1  A    between atoms: O_5  and  C_9
REMARK    2  A    between atoms: O_5  and  C_18
REMARK    3  A    between atoms: C_14  and  C_15
REMARK    4  A    between atoms: C_16  and  C_20
REMARK    5  A    between atoms: C_19  and  C_23
REMARK                            x       y       z     vdW  Elec       q    Type
REMARK                         _______ _______ _______ _____ _____    ______ ____
ROOT
ATOM      4  O   UNL     1      -9.066 -10.932  13.894  0.00  0.00    -0.375 OA
ATOM      7  O   UNL     1      -4.932 -12.526  11.547  0.00  0.00    -0.270 OA
ATOM      8  N   UNL     1      -6.257 -10.995  12.730  0.00  0.00    -0.292 N 
ATOM      9  C   UNL     1      -6.896 -10.456  15.055  0.00  0.00    +0.216 C 
ATOM     10  C   UNL     1      -6.371  -9.917  13.725  0.00  0.00    +0.155 C 
ATOM     11  C   UNL     1      -7.509 -11.470  12.139  0.00  0.00    +0.136 C 
ATOM     12  C   UNL     1      -8.421 -10.582  15.112  0.00  0.00    +0.206 C 
ATOM     13  C   UNL     1      -8.479 -12.015  13.183  0.00  0.00    +0.179 C 
ATOM     14  C   UNL     1      -5.052 -11.604  12.352  0.00  0.00    +0.250 C 
ENDROOT
BRANCH  14  15
ATOM      6  O   UNL     1      -1.840 -10.051  13.175  0.00  0.00    -0.455 OA
ATOM     15  C   UNL     1      -3.808 -11.114  12.959  0.00  0.00    +0.087 A 
ATOM     16  C   UNL     1      -2.871 -10.325  12.333  0.00  0.00    +0.220 A 
ATOM     17  C   UNL     1      -3.323 -11.339  14.269  0.00  0.00    +0.058 A 
ATOM     19  C   UNL     1      -2.122 -10.671  14.351  0.00  0.00    +0.103 A 
ATOM     23  C   UNL     1      -1.133 -10.509  15.425  0.00  0.00    +0.086 C 
BRANCH  16  20
ATOM      1  F   UNL     1      -3.687  -8.752  10.727  0.00  0.00    -0.163 F 
ATOM      2  F   UNL     1      -2.958 -10.647   9.965  0.00  0.00    -0.163 F 
ATOM      3  F   UNL     1      -1.554  -9.171  10.726  0.00  0.00    -0.163 F 
ATOM     20  C   UNL     1      -2.773  -9.746  10.986  0.00  0.00    +0.451 C 
ENDBRANCH  16  20
ENDBRANCH  14  15
BRANCH   9   5
ATOM      5  O   UNL     1      -6.463  -9.593  16.104  0.00  0.00    -0.485 OA
BRANCH   5  18
ATOM     18  C   UNL     1      -6.072 -10.194  17.268  0.00  0.00    +0.121 A 
ATOM     21  C   UNL     1      -6.919 -10.183  18.377  0.00  0.00    +0.045 A 
ATOM     22  C   UNL     1      -4.828 -10.819  17.347  0.00  0.00    +0.045 A 
ATOM     24  C   UNL     1      -6.521 -10.796  19.564  0.00  0.00    +0.004 A 
ATOM     25  C   UNL     1      -4.430 -11.432  18.535  0.00  0.00    +0.004 A 
ATOM     26  C   UNL     1      -5.277 -11.422  19.643  0.00  0.00    +0.000 A 
ENDBRANCH   5  18
ENDBRANCH   9   5
TORSDOF 4
ENDMDL
MODEL 8
REMARK VINA RESULT:      -5.8      3.047      5.631
REMARK  Name = 75536877
REMARK  5 active torsions:
REMARK  status: ('A' for Active; 'I' for Inactive)
REMARK    1  A    between atoms: O_5  and  C_9
REMARK    2  A    between atoms: O_5  and  C_18
REMARK    3  A    between atoms: C_14  and  C_15
REMARK    4  A    between atoms: C_16  and  C_20
REMARK    5  A    between atoms: C_19  and  C_23
REMARK                            x       y       z     vdW  Elec       q    Type
REMARK                         _______ _______ _______ _____ _____    ______ ____
ROOT
ATOM      4  O   UNL     1      15.070  12.151  23.669  0.00  0.00    -0.375 OA
ATOM      7  O   UNL     1      10.712  10.013  22.413  0.00  0.00    -0.270 OA
ATOM      8  N   UNL     1      12.759  11.081  22.005  0.00  0.00    -0.292 N 
ATOM      9  C   UNL     1      15.155  10.534  21.755  0.00  0.00    +0.216 C 
ATOM     10  C   UNL     1      13.951  11.264  21.162  0.00  0.00    +0.155 C 
ATOM     11  C   UNL     1      12.718  11.852  23.249  0.00  0.00    +0.136 C 
ATOM     12  C   UNL     1      15.884  11.327  22.845  0.00  0.00    +0.206 C 
ATOM     13  C   UNL     1      13.891  11.534  24.172  0.00  0.00    +0.179 C 
ATOM     14  C   UNL     1      11.703  10.207  21.711  0.00  0.00    +0.250 C 
ENDROOT
BRANCH  14  15
ATOM      6  O   UNL     1      11.724   7.693  19.049  0.00  0.00    -0.455 OA
ATOM     15  C   UNL     1      11.765   9.442  20.459  0.00  0.00    +0.087 A 
ATOM     16  C   UNL     1      11.608   8.081  20.346  0.00  0.00    +0.220 A 
ATOM     17  C   UNL     1      11.993   9.923  19.147  0.00  0.00    +0.058 A 
ATOM     19  C   UNL     1      11.958   8.819  18.326  0.00  0.00    +0.103 A 
ATOM     23  C   UNL     1      12.118   8.639  16.877  0.00  0.00    +0.086 C 
BRANCH  16  20
ATOM      1  F   UNL     1      11.420   5.739  20.796  0.00  0.00    -0.163 F 
ATOM      2  F   UNL     1      10.107   7.062  21.905  0.00  0.00    -0.163 F 
ATOM      3  F   UNL     1      12.230   7.001  22.370  0.00  0.00    -0.163 F 
ATOM     20  C   UNL     1      11.349   7.008  21.318  0.00  0.00    +0.451 C 
ENDBRANCH  16  20
ENDBRANCH  14  15
BRANCH   9   5
ATOM      5  O   UNL     1      16.075  10.235  20.707  0.00  0.00    -0.485 OA
BRANCH   5  18
ATOM     18  C   UNL     1      16.215   8.917  20.375  0.00  0.00    +0.121 A 
ATOM     21  C   UNL     1      17.286   8.180  20.881  0.00  0.00    +0.045 A 
ATOM     22  C   UNL     1      15.288   8.307  19.531  0.00  0.00    +0.045 A 
ATOM     24  C   UNL     1      17.430   6.835  20.543  0.00  0.00    +0.004 A 
ATOM     25  C   UNL     1      15.432   6.961  19.192  0.00  0.00    +0.004 A 
ATOM     26  C   UNL     1      16.502   6.225  19.699  0.00  0.00    +0.000 A 
ENDBRANCH   5  18
ENDBRANCH   9   5
TORSDOF 4
ENDMDL
MODEL 9
REMARK VINA RESULT:      -5.7     26.206     28.873
REMARK  Name = 75536877
REMARK  5 active torsions:
REMARK  status: ('A' for Active; 'I' for Inactive)
REMARK    1  A    between atoms: O_5  and  C_9
REMARK    2  A    between atoms: O_5  and  C_18
REMARK    3  A    between atoms: C_14  and  C_15
REMARK    4  A    between atoms: C_16  and  C_20
REMARK    5  A    between atoms: C_19  and  C_23
REMARK                            x       y       z     vdW  Elec       q    Type
REMARK                         _______ _______ _______ _____ _____    ______ ____
ROOT
ATOM      4  O   UNL     1      -8.981 -12.386  13.620  0.00  0.00    -0.375 OA
ATOM      7  O   UNL     1      -6.900  -9.650  17.270  0.00  0.00    -0.270 OA
ATOM      8  N   UNL     1      -7.121 -11.513  15.862  0.00  0.00    -0.292 N 
ATOM      9  C   UNL     1      -6.478 -12.248  13.594  0.00  0.00    +0.216 C 
ATOM     10  C   UNL     1      -6.502 -12.595  15.082  0.00  0.00    +0.155 C 
ATOM     11  C   UNL     1      -8.578 -11.401  15.780  0.00  0.00    +0.136 C 
ATOM     12  C   UNL     1      -7.789 -12.560  12.865  0.00  0.00    +0.206 C 
ATOM     13  C   UNL     1      -9.066 -11.169  14.353  0.00  0.00    +0.179 C 
ATOM     14  C   UNL     1      -6.410 -10.582  16.634  0.00  0.00    +0.250 C 
ENDROOT
BRANCH  14  15
ATOM      6  O   UNL     1      -2.910 -11.244  17.481  0.00  0.00    -0.455 OA
ATOM     15  C   UNL     1      -4.949 -10.710  16.701  0.00  0.00    +0.087 A 
ATOM     16  C   UNL     1      -4.245 -11.289  17.732  0.00  0.00    +0.220 A 
ATOM     17  C   UNL     1      -3.985 -10.282  15.756  0.00  0.00    +0.058 A 
ATOM     19  C   UNL     1      -2.760 -10.630  16.278  0.00  0.00    +0.103 A 
ATOM     23  C   UNL     1      -1.381 -10.471  15.797  0.00  0.00    +0.086 C 
BRANCH  16  20
ATOM      1  F   UNL     1      -5.364 -11.106  19.837  0.00  0.00    -0.163 F 
ATOM      2  F   UNL     1      -3.590 -12.351  19.772  0.00  0.00    -0.163 F 
ATOM      3  F   UNL     1      -5.428 -13.032  18.831  0.00  0.00    -0.163 F 
ATOM     20  C   UNL     1      -4.641 -11.920  18.999  0.00  0.00    +0.451 C 
ENDBRANCH  16  20
ENDBRANCH  14  15
BRANCH   9   5
ATOM      5  O   UNL     1      -5.419 -12.972  12.970  0.00  0.00    -0.485 OA
BRANCH   5  18
ATOM     18  C   UNL     1      -4.286 -12.265  12.678  0.00  0.00    +0.121 A 
ATOM     21  C   UNL     1      -4.382 -11.004  12.090  0.00  0.00    +0.045 A 
ATOM     22  C   UNL     1      -3.033 -12.804  12.968  0.00  0.00    +0.045 A 
ATOM     24  C   UNL     1      -3.226 -10.282  11.793  0.00  0.00    +0.004 A 
ATOM     25  C   UNL     1      -1.876 -12.083  12.671  0.00  0.00    +0.004 A 
ATOM     26  C   UNL     1      -1.974 -10.822  12.083  0.00  0.00    +0.000 A 
ENDBRANCH   5  18
ENDBRANCH   9   5
TORSDOF 4
ENDMDL
MODEL 10
REMARK VINA RESULT:      -5.6     26.936     29.295
REMARK  Name = 75536877
REMARK  5 active torsions:
REMARK  status: ('A' for Active; 'I' for Inactive)
REMARK    1  A    between atoms: O_5  and  C_9
REMARK    2  A    between atoms: O_5  and  C_18
REMARK    3  A    between atoms: C_14  and  C_15
REMARK    4  A    between atoms: C_16  and  C_20
REMARK    5  A    between atoms: C_19  and  C_23
REMARK                            x       y       z     vdW  Elec       q    Type
REMARK                         _______ _______ _______ _____ _____    ______ ____
ROOT
ATOM      4  O   UNL     1      -2.690 -14.070  12.884  0.00  0.00    -0.375 OA
ATOM      7  O   UNL     1      -2.171 -10.772  16.626  0.00  0.00    -0.270 OA
ATOM      8  N   UNL     1      -3.228 -11.747  14.773  0.00  0.00    -0.292 N 
ATOM      9  C   UNL     1      -4.751 -13.616  14.238  0.00  0.00    +0.216 C 
ATOM     10  C   UNL     1      -4.463 -12.125  14.069  0.00  0.00    +0.155 C 
ATOM     11  C   UNL     1      -1.969 -12.147  14.141  0.00  0.00    +0.136 C 
ATOM     12  C   UNL     1      -3.992 -14.509  13.252  0.00  0.00    +0.206 C 
ATOM     13  C   UNL     1      -1.859 -13.658  13.964  0.00  0.00    +0.179 C 
ATOM     14  C   UNL     1      -3.188 -11.073  16.002  0.00  0.00    +0.250 C 
ENDROOT
BRANCH  14  15
ATOM      6  O   UNL     1      -6.119 -10.538  18.130  0.00  0.00    -0.455 OA
ATOM     15  C   UNL     1      -4.461 -10.683  16.620  0.00  0.00    +0.087 A 
ATOM     16  C   UNL     1      -4.900 -11.076  17.862  0.00  0.00    +0.220 A 
ATOM     17  C   UNL     1      -5.475  -9.849  16.089  0.00  0.00    +0.058 A 
ATOM     19  C   UNL     1      -6.462  -9.793  17.048  0.00  0.00    +0.103 A 
ATOM     23  C   UNL     1      -7.758  -9.106  17.116  0.00  0.00    +0.086 C 
BRANCH  16  20
ATOM      1  F   UNL     1      -3.007 -11.677  19.195  0.00  0.00    -0.163 F 
ATOM      2  F   UNL     1      -4.359 -13.276  18.630  0.00  0.00    -0.163 F 
ATOM      3  F   UNL     1      -4.970 -11.815  20.120  0.00  0.00    -0.163 F 
ATOM     20  C   UNL     1      -4.328 -11.931  18.913  0.00  0.00    +0.451 C 
ENDBRANCH  16  20
ENDBRANCH  14  15
BRANCH   9   5
ATOM      5  O   UNL     1      -6.151 -13.836  14.077  0.00  0.00    -0.485 OA
BRANCH   5  18
ATOM     18  C   UNL     1      -6.944 -13.534  15.149  0.00  0.00    +0.121 A 
ATOM     21  C   UNL     1      -8.055 -12.706  14.984  0.00  0.00    +0.045 A 
ATOM     22  C   UNL     1      -6.644 -14.053  16.408  0.00  0.00    +0.045 A 
ATOM     24  C   UNL     1      -8.864 -12.397  16.076  0.00  0.00    +0.004 A 
ATOM     25  C   UNL     1      -7.453 -13.745  17.501  0.00  0.00    +0.004 A 
ATOM     26  C   UNL     1      -8.564 -12.917  17.335  0.00  0.00    +0.000 A 
ENDBRANCH   5  18
ENDBRANCH   9   5
TORSDOF 4
ENDMDL
