MODEL 1
REMARK VINA RESULT:      -7.3      0.000      0.000
REMARK  Name = 51138078
REMARK  12 active torsions:
REMARK  status: ('A' for Active; 'I' for Inactive)
REMARK    1  A    between atoms: O_2  and  C_26
REMARK    2  A    between atoms: O_2  and  C_33
REMARK    3  A    between atoms: N_4  and  C_22
REMARK    4  A    between atoms: N_5  and  C_23
REMARK    5  A    between atoms: C_6  and  C_10
REMARK    6  A    between atoms: C_8  and  C_17
REMARK    7  A    between atoms: C_10  and  C_13
REMARK    8  A    between atoms: C_13  and  C_20
REMARK    9  A    between atoms: C_13  and  C_21
REMARK   10  A    between atoms: C_22  and  C_24
REMARK   11  A    between atoms: C_23  and  C_25
REMARK   12  A    between atoms: C_28  and  C_32
REMARK                            x       y       z     vdW  Elec       q    Type
REMARK                         _______ _______ _______ _____ _____    ______ ____
ROOT
ATOM      3  N   UNL     1     -13.053   9.344  21.239  0.00  0.00    -0.299 NA
ATOM      4  N   UNL     1     -10.668  11.474  17.330  0.00  0.00    -0.335 N 
ATOM      6  C   UNL     1     -12.326   8.254  20.574  0.00  0.00    +0.085 C 
ATOM      7  C   UNL     1     -11.663   8.608  19.240  0.00  0.00    -0.021 A 
ATOM      8  C   UNL     1     -12.221  10.463  21.657  0.00  0.00    +0.145 C 
ATOM      9  C   UNL     1     -11.406   9.931  18.777  0.00  0.00    +0.008 A 
ATOM     11  C   UNL     1     -12.250  11.596  20.633  0.00  0.00    +0.065 C 
ATOM     12  C   UNL     1     -11.632  11.243  19.321  0.00  0.00    -0.020 A 
ATOM     14  C   UNL     1     -10.779  10.119  17.540  0.00  0.00    +0.050 A 
ATOM     15  C   UNL     1     -11.173  12.158  18.396  0.00  0.00    +0.091 A 
ATOM     16  C   UNL     1     -11.188   7.555  18.418  0.00  0.00    +0.006 A 
ATOM     18  C   UNL     1     -10.360   9.068  16.723  0.00  0.00    +0.026 A 
ATOM     19  C   UNL     1     -10.565   7.776  17.191  0.00  0.00    +0.002 A 
ATOM     34  H   UNL     1     -13.837   9.659  20.669  0.00  0.00    +0.123 HD
ENDROOT
BRANCH   8  17
ATOM      1  O   UNL     1     -13.952  10.606  23.293  0.00  0.00    -0.274 OA
ATOM      5  N   UNL     1     -11.986  11.806  23.624  0.00  0.00    -0.310 N 
ATOM     17  C   UNL     1     -12.827  10.946  22.940  0.00  0.00    +0.231 C 
ATOM     35  H   UNL     1     -11.064  12.013  23.252  0.00  0.00    +0.149 HD
BRANCH   5  23
ATOM     23  C   UNL     1     -12.343  12.428  24.880  0.00  0.00    +0.143 C 
BRANCH  23  25
ATOM     25  C   UNL     1     -11.994  11.561  26.055  0.00  0.00    +0.011 A 
ATOM     26  C   UNL     1     -12.788  11.562  27.202  0.00  0.00    +0.125 A 
ATOM     27  C   UNL     1     -10.862  10.749  25.991  0.00  0.00    +0.009 A 
ATOM     29  C   UNL     1     -12.449  10.752  28.285  0.00  0.00    +0.046 A 
ATOM     30  C   UNL     1     -10.524   9.938  27.074  0.00  0.00    +0.001 A 
ATOM     31  C   UNL     1     -11.317   9.939  28.221  0.00  0.00    +0.004 A 
BRANCH  26   2
ATOM      2  O   UNL     1     -13.897  12.350  27.282  0.00  0.00    -0.495 OA
ATOM     33  C   UNL     1     -15.159  11.713  27.095  0.00  0.00    +0.277 C 
ENDBRANCH  26   2
ENDBRANCH  23  25
ENDBRANCH   5  23
ENDBRANCH   8  17
BRANCH   6  10
ATOM     10  C   UNL     1     -13.362   7.123  20.437  0.00  0.00    +0.026 C 
BRANCH  10  13
ATOM     13  C   UNL     1     -13.958   6.692  21.780  0.00  0.00    -0.015 C 
ATOM     20  C   UNL     1     -13.479   5.276  22.113  0.00  0.00    +0.007 C 
ATOM     21  C   UNL     1     -15.488   6.734  21.787  0.00  0.00    +0.007 C 
ENDBRANCH  10  13
ENDBRANCH   6  10
BRANCH   4  22
ATOM     22  C   UNL     1     -10.086  12.101  16.163  0.00  0.00    +0.210 C 
BRANCH  22  24
ATOM     24  C   UNL     1      -8.855  12.834  16.488  0.00  0.00    -0.081 C 
ATOM     28  C   UNL     1      -7.848  13.431  16.754  0.00  0.00    -0.104 C 
ATOM     32  C   UNL     1      -6.622  14.160  17.078  0.00  0.00    +0.106 C 
ENDBRANCH  22  24
ENDBRANCH   4  22
TORSDOF 8
ENDMDL
MODEL 2
REMARK VINA RESULT:      -7.1     23.151     26.396
REMARK  Name = 51138078
REMARK  12 active torsions:
REMARK  status: ('A' for Active; 'I' for Inactive)
REMARK    1  A    between atoms: O_2  and  C_26
REMARK    2  A    between atoms: O_2  and  C_33
REMARK    3  A    between atoms: N_4  and  C_22
REMARK    4  A    between atoms: N_5  and  C_23
REMARK    5  A    between atoms: C_6  and  C_10
REMARK    6  A    between atoms: C_8  and  C_17
REMARK    7  A    between atoms: C_10  and  C_13
REMARK    8  A    between atoms: C_13  and  C_20
REMARK    9  A    between atoms: C_13  and  C_21
REMARK   10  A    between atoms: C_22  and  C_24
REMARK   11  A    between atoms: C_23  and  C_25
REMARK   12  A    between atoms: C_28  and  C_32
REMARK                            x       y       z     vdW  Elec       q    Type
REMARK                         _______ _______ _______ _____ _____    ______ ____
ROOT
ATOM      3  N   UNL     1      12.678   8.425  20.571  0.00  0.00    -0.299 NA
ATOM      4  N   UNL     1      17.562   9.247  21.562  0.00  0.00    -0.335 N 
ATOM      6  C   UNL     1      13.386   7.220  20.114  0.00  0.00    +0.085 C 
ATOM      7  C   UNL     1      14.915   7.294  20.136  0.00  0.00    -0.021 A 
ATOM      8  C   UNL     1      12.897   8.764  21.970  0.00  0.00    +0.145 C 
ATOM      9  C   UNL     1      15.680   8.258  20.855  0.00  0.00    +0.008 A 
ATOM     11  C   UNL     1      13.987   9.823  22.125  0.00  0.00    +0.065 C 
ATOM     12  C   UNL     1      15.346   9.359  21.719  0.00  0.00    -0.020 A 
ATOM     14  C   UNL     1      17.078   8.207  20.803  0.00  0.00    +0.050 A 
ATOM     15  C   UNL     1      16.530   9.942  22.120  0.00  0.00    +0.091 A 
ATOM     16  C   UNL     1      15.653   6.290  19.459  0.00  0.00    +0.006 A 
ATOM     18  C   UNL     1      17.786   7.237  20.091  0.00  0.00    +0.026 A 
ATOM     19  C   UNL     1      17.046   6.267  19.427  0.00  0.00    +0.002 A 
ATOM     34  H   UNL     1      12.879   9.217  19.963  0.00  0.00    +0.123 HD
ENDROOT
BRANCH   8  17
ATOM      1  O   UNL     1      10.519   8.963  21.977  0.00  0.00    -0.274 OA
ATOM      5  N   UNL     1      11.767  10.291  23.426  0.00  0.00    -0.310 N 
ATOM     17  C   UNL     1      11.593   9.328  22.446  0.00  0.00    +0.231 C 
ATOM     35  H   UNL     1      12.701  10.511  23.757  0.00  0.00    +0.149 HD
BRANCH   5  23
ATOM     23  C   UNL     1      10.668  11.004  24.037  0.00  0.00    +0.143 C 
BRANCH  23  25
ATOM     25  C   UNL     1      10.924  12.482  24.101  0.00  0.00    +0.011 A 
ATOM     26  C   UNL     1      11.166  13.215  22.940  0.00  0.00    +0.125 A 
ATOM     27  C   UNL     1      10.919  13.120  25.341  0.00  0.00    +0.009 A 
ATOM     29  C   UNL     1      11.402  14.587  23.018  0.00  0.00    +0.046 A 
ATOM     30  C   UNL     1      11.155  14.493  25.420  0.00  0.00    +0.001 A 
ATOM     31  C   UNL     1      11.398  15.227  24.258  0.00  0.00    +0.004 A 
BRANCH  26   2
ATOM      2  O   UNL     1      11.175  12.607  21.721  0.00  0.00    -0.495 OA
ATOM     33  C   UNL     1      12.164  13.040  20.789  0.00  0.00    +0.277 C 
ENDBRANCH  26   2
ENDBRANCH  23  25
ENDBRANCH   5  23
ENDBRANCH   8  17
BRANCH   6  10
ATOM     10  C   UNL     1      12.828   6.954  18.705  0.00  0.00    +0.026 C 
BRANCH  10  13
ATOM     13  C   UNL     1      12.868   8.190  17.801  0.00  0.00    -0.015 C 
ATOM     20  C   UNL     1      11.485   8.408  17.181  0.00  0.00    +0.007 C 
ATOM     21  C   UNL     1      13.918   8.077  16.695  0.00  0.00    +0.007 C 
ENDBRANCH  10  13
ENDBRANCH   6  10
BRANCH   4  22
ATOM     22  C   UNL     1      18.960   9.563  21.765  0.00  0.00    +0.210 C 
BRANCH  22  24
ATOM     24  C   UNL     1      19.602   8.634  22.705  0.00  0.00    -0.081 C 
ATOM     28  C   UNL     1      20.125   7.877  23.476  0.00  0.00    -0.104 C 
ATOM     32  C   UNL     1      20.763   6.953  24.413  0.00  0.00    +0.106 C 
ENDBRANCH  22  24
ENDBRANCH   4  22
TORSDOF 8
ENDMDL
MODEL 3
REMARK VINA RESULT:      -7.1     20.876     22.809
REMARK  Name = 51138078
REMARK  12 active torsions:
REMARK  status: ('A' for Active; 'I' for Inactive)
REMARK    1  A    between atoms: O_2  and  C_26
REMARK    2  A    between atoms: O_2  and  C_33
REMARK    3  A    between atoms: N_4  and  C_22
REMARK    4  A    between atoms: N_5  and  C_23
REMARK    5  A    between atoms: C_6  and  C_10
REMARK    6  A    between atoms: C_8  and  C_17
REMARK    7  A    between atoms: C_10  and  C_13
REMARK    8  A    between atoms: C_13  and  C_20
REMARK    9  A    between atoms: C_13  and  C_21
REMARK   10  A    between atoms: C_22  and  C_24
REMARK   11  A    between atoms: C_23  and  C_25
REMARK   12  A    between atoms: C_28  and  C_32
REMARK                            x       y       z     vdW  Elec       q    Type
REMARK                         _______ _______ _______ _____ _____    ______ ____
ROOT
ATOM      3  N   UNL     1      -6.820 -10.929  16.055  0.00  0.00    -0.299 NA
ATOM      4  N   UNL     1      -3.898 -10.247  11.992  0.00  0.00    -0.335 N 
ATOM      6  C   UNL     1      -5.460 -10.723  16.572  0.00  0.00    +0.085 C 
ATOM      7  C   UNL     1      -4.345 -10.674  15.524  0.00  0.00    -0.021 A 
ATOM      8  C   UNL     1      -7.316  -9.856  15.205  0.00  0.00    +0.145 C 
ATOM      9  C   UNL     1      -4.541 -10.473  14.126  0.00  0.00    +0.008 A 
ATOM     11  C   UNL     1      -7.126 -10.181  13.724  0.00  0.00    +0.065 C 
ATOM     12  C   UNL     1      -5.698 -10.257  13.299  0.00  0.00    -0.020 A 
ATOM     14  C   UNL     1      -3.433 -10.435  13.273  0.00  0.00    +0.050 A 
ATOM     15  C   UNL     1      -5.257 -10.134  11.997  0.00  0.00    +0.091 A 
ATOM     16  C   UNL     1      -2.999 -10.756  15.960  0.00  0.00    +0.006 A 
ATOM     18  C   UNL     1      -2.116 -10.565  13.717  0.00  0.00    +0.026 A 
ATOM     19  C   UNL     1      -1.916 -10.714  15.084  0.00  0.00    +0.002 A 
ATOM     34  H   UNL     1      -6.899 -11.834  15.592  0.00  0.00    +0.123 HD
ENDROOT
BRANCH   8  17
ATOM      1  O   UNL     1      -9.392  -8.702  15.433  0.00  0.00    -0.274 OA
ATOM      5  N   UNL     1      -9.317 -10.986  15.874  0.00  0.00    -0.310 N 
ATOM     17  C   UNL     1      -8.781  -9.764  15.504  0.00  0.00    +0.231 C 
ATOM     35  H   UNL     1      -8.727 -11.813  15.887  0.00  0.00    +0.149 HD
BRANCH   5  23
ATOM     23  C   UNL     1     -10.706 -11.164  16.235  0.00  0.00    +0.143 C 
BRANCH  23  25
ATOM     25  C   UNL     1     -10.965 -10.799  17.668  0.00  0.00    +0.011 A 
ATOM     26  C   UNL     1     -10.092 -11.206  18.676  0.00  0.00    +0.125 A 
ATOM     27  C   UNL     1     -12.095 -10.046  17.985  0.00  0.00    +0.009 A 
ATOM     29  C   UNL     1     -10.348 -10.859  20.002  0.00  0.00    +0.046 A 
ATOM     30  C   UNL     1     -12.351  -9.698  19.312  0.00  0.00    +0.001 A 
ATOM     31  C   UNL     1     -11.478 -10.105  20.321  0.00  0.00    +0.004 A 
BRANCH  26   2
ATOM      2  O   UNL     1      -8.984 -11.943  18.384  0.00  0.00    -0.495 OA
ATOM     33  C   UNL     1      -8.932 -13.269  18.906  0.00  0.00    +0.277 C 
ENDBRANCH  26   2
ENDBRANCH  23  25
ENDBRANCH   5  23
ENDBRANCH   8  17
BRANCH   6  10
ATOM     10  C   UNL     1      -5.258 -11.855  17.596  0.00  0.00    +0.026 C 
BRANCH  10  13
ATOM     13  C   UNL     1      -4.791 -11.348  18.964  0.00  0.00    -0.015 C 
ATOM     20  C   UNL     1      -3.641 -12.227  19.462  0.00  0.00    +0.007 C 
ATOM     21  C   UNL     1      -5.915 -11.333  20.002  0.00  0.00    +0.007 C 
ENDBRANCH  10  13
ENDBRANCH   6  10
BRANCH   4  22
ATOM     22  C   UNL     1      -3.079 -10.160  10.802  0.00  0.00    +0.210 C 
BRANCH  22  24
ATOM     24  C   UNL     1      -3.891 -10.076   9.581  0.00  0.00    -0.081 C 
ATOM     28  C   UNL     1      -4.552 -10.007   8.581  0.00  0.00    -0.104 C 
ATOM     32  C   UNL     1      -5.359  -9.922   7.365  0.00  0.00    +0.106 C 
ENDBRANCH  22  24
ENDBRANCH   4  22
TORSDOF 8
ENDMDL
MODEL 4
REMARK VINA RESULT:      -7.0     27.518     32.793
REMARK  Name = 51138078
REMARK  12 active torsions:
REMARK  status: ('A' for Active; 'I' for Inactive)
REMARK    1  A    between atoms: O_2  and  C_26
REMARK    2  A    between atoms: O_2  and  C_33
REMARK    3  A    between atoms: N_4  and  C_22
REMARK    4  A    between atoms: N_5  and  C_23
REMARK    5  A    between atoms: C_6  and  C_10
REMARK    6  A    between atoms: C_8  and  C_17
REMARK    7  A    between atoms: C_10  and  C_13
REMARK    8  A    between atoms: C_13  and  C_20
REMARK    9  A    between atoms: C_13  and  C_21
REMARK   10  A    between atoms: C_22  and  C_24
REMARK   11  A    between atoms: C_23  and  C_25
REMARK   12  A    between atoms: C_28  and  C_32
REMARK                            x       y       z     vdW  Elec       q    Type
REMARK                         _______ _______ _______ _____ _____    ______ ____
ROOT
ATOM      3  N   UNL     1      15.225   6.307   2.314  0.00  0.00    -0.299 NA
ATOM      4  N   UNL     1      11.021   7.024   5.020  0.00  0.00    -0.335 N 
ATOM      6  C   UNL     1      14.178   5.527   1.639  0.00  0.00    +0.085 C 
ATOM      7  C   UNL     1      12.838   5.430   2.372  0.00  0.00    -0.021 A 
ATOM      8  C   UNL     1      14.920   7.722   2.476  0.00  0.00    +0.145 C 
ATOM      9  C   UNL     1      12.422   6.280   3.439  0.00  0.00    +0.008 A 
ATOM     11  C   UNL     1      14.354   8.017   3.863  0.00  0.00    +0.065 C 
ATOM     12  C   UNL     1      13.021   7.398   4.119  0.00  0.00    -0.020 A 
ATOM     14  C   UNL     1      11.161   6.094   4.017  0.00  0.00    +0.050 A 
ATOM     15  C   UNL     1      12.130   7.816   5.086  0.00  0.00    +0.091 A 
ATOM     16  C   UNL     1      11.886   4.480   1.924  0.00  0.00    +0.006 A 
ATOM     18  C   UNL     1      10.256   5.121   3.592  0.00  0.00    +0.026 A 
ATOM     19  C   UNL     1      10.637   4.321   2.522  0.00  0.00    +0.002 A 
ATOM     34  H   UNL     1      15.480   5.880   3.203  0.00  0.00    +0.123 HD
ENDROOT
BRANCH   8  17
ATOM      1  O   UNL     1      16.326   9.501   1.734  0.00  0.00    -0.274 OA
ATOM      5  N   UNL     1      17.278   7.716   2.887  0.00  0.00    -0.310 N 
ATOM     17  C   UNL     1      16.233   8.427   2.321  0.00  0.00    +0.231 C 
ATOM     35  H   UNL     1      17.092   6.840   3.365  0.00  0.00    +0.149 HD
BRANCH   5  23
ATOM     23  C   UNL     1      18.650   8.169   2.854  0.00  0.00    +0.143 C 
BRANCH  23  25
ATOM     25  C   UNL     1      19.279   8.156   4.218  0.00  0.00    +0.011 A 
ATOM     26  C   UNL     1      18.755   8.931   5.252  0.00  0.00    +0.125 A 
ATOM     27  C   UNL     1      20.399   7.356   4.443  0.00  0.00    +0.009 A 
ATOM     29  C   UNL     1      19.351   8.907   6.512  0.00  0.00    +0.046 A 
ATOM     30  C   UNL     1      20.995   7.331   5.705  0.00  0.00    +0.001 A 
ATOM     31  C   UNL     1      20.472   8.107   6.739  0.00  0.00    +0.004 A 
BRANCH  26   2
ATOM      2  O   UNL     1      17.662   9.719   5.048  0.00  0.00    -0.495 OA
ATOM     33  C   UNL     1      16.750   9.855   6.136  0.00  0.00    +0.277 C 
ENDBRANCH  26   2
ENDBRANCH  23  25
ENDBRANCH   5  23
ENDBRANCH   8  17
BRANCH   6  10
ATOM     10  C   UNL     1      14.818   4.149   1.394  0.00  0.00    +0.026 C 
BRANCH  10  13
ATOM     13  C   UNL     1      15.009   3.833  -0.092  0.00  0.00    -0.015 C 
ATOM     20  C   UNL     1      16.451   4.153  -0.496  0.00  0.00    +0.007 C 
ATOM     21  C   UNL     1      14.039   4.606  -0.988  0.00  0.00    +0.007 C 
ENDBRANCH  10  13
ENDBRANCH   6  10
BRANCH   4  22
ATOM     22  C   UNL     1       9.866   7.171   5.879  0.00  0.00    +0.210 C 
BRANCH  22  24
ATOM     24  C   UNL     1       9.797   6.111   6.894  0.00  0.00    -0.081 C 
ATOM     28  C   UNL     1       9.739   5.244   7.722  0.00  0.00    -0.104 C 
ATOM     32  C   UNL     1       9.670   4.188   8.732  0.00  0.00    +0.106 C 
ENDBRANCH  22  24
ENDBRANCH   4  22
TORSDOF 8
ENDMDL
MODEL 5
REMARK VINA RESULT:      -7.0     20.143     24.519
REMARK  Name = 51138078
REMARK  12 active torsions:
REMARK  status: ('A' for Active; 'I' for Inactive)
REMARK    1  A    between atoms: O_2  and  C_26
REMARK    2  A    between atoms: O_2  and  C_33
REMARK    3  A    between atoms: N_4  and  C_22
REMARK    4  A    between atoms: N_5  and  C_23
REMARK    5  A    between atoms: C_6  and  C_10
REMARK    6  A    between atoms: C_8  and  C_17
REMARK    7  A    between atoms: C_10  and  C_13
REMARK    8  A    between atoms: C_13  and  C_20
REMARK    9  A    between atoms: C_13  and  C_21
REMARK   10  A    between atoms: C_22  and  C_24
REMARK   11  A    between atoms: C_23  and  C_25
REMARK   12  A    between atoms: C_28  and  C_32
REMARK                            x       y       z     vdW  Elec       q    Type
REMARK                         _______ _______ _______ _____ _____    ______ ____
ROOT
ATOM      3  N   UNL     1      -4.578 -11.519  14.777  0.00  0.00    -0.299 NA
ATOM      4  N   UNL     1      -8.672 -10.088  17.366  0.00  0.00    -0.335 N 
ATOM      6  C   UNL     1      -4.271 -11.788  16.188  0.00  0.00    +0.085 C 
ATOM      7  C   UNL     1      -5.291 -11.268  17.206  0.00  0.00    -0.021 A 
ATOM      8  C   UNL     1      -5.785 -12.166  14.283  0.00  0.00    +0.145 C 
ATOM      9  C   UNL     1      -6.624 -10.868  16.901  0.00  0.00    +0.008 A 
ATOM     11  C   UNL     1      -6.983 -11.219  14.317  0.00  0.00    +0.065 C 
ATOM     12  C   UNL     1      -7.404 -10.823  15.692  0.00  0.00    -0.020 A 
ATOM     14  C   UNL     1      -7.463 -10.423  17.929  0.00  0.00    +0.050 A 
ATOM     15  C   UNL     1      -8.649 -10.330  16.024  0.00  0.00    +0.091 A 
ATOM     16  C   UNL     1      -4.930 -11.246  18.577  0.00  0.00    +0.006 A 
ATOM     18  C   UNL     1      -7.073 -10.364  19.268  0.00  0.00    +0.026 A 
ATOM     19  C   UNL     1      -5.790 -10.797  19.578  0.00  0.00    +0.002 A 
ATOM     34  H   UNL     1      -4.596 -10.516  14.594  0.00  0.00    +0.123 HD
ENDROOT
BRANCH   8  17
ATOM      1  O   UNL     1      -6.342 -12.981  12.110  0.00  0.00    -0.274 OA
ATOM      5  N   UNL     1      -4.156 -12.303  12.534  0.00  0.00    -0.310 N 
ATOM     17  C   UNL     1      -5.483 -12.526  12.860  0.00  0.00    +0.231 C 
ATOM     35  H   UNL     1      -3.526 -11.907  13.226  0.00  0.00    +0.149 HD
BRANCH   5  23
ATOM     23  C   UNL     1      -3.604 -12.589  11.229  0.00  0.00    +0.143 C 
BRANCH  23  25
ATOM     25  C   UNL     1      -3.889 -11.490  10.246  0.00  0.00    +0.011 A 
ATOM     26  C   UNL     1      -3.445 -10.190  10.481  0.00  0.00    +0.125 A 
ATOM     27  C   UNL     1      -4.607 -11.784   9.086  0.00  0.00    +0.009 A 
ATOM     29  C   UNL     1      -3.719  -9.181   9.558  0.00  0.00    +0.046 A 
ATOM     30  C   UNL     1      -4.880 -10.775   8.162  0.00  0.00    +0.001 A 
ATOM     31  C   UNL     1      -4.437  -9.474   8.398  0.00  0.00    +0.004 A 
BRANCH  26   2
ATOM      2  O   UNL     1      -2.743  -9.886  11.609  0.00  0.00    -0.495 OA
ATOM     33  C   UNL     1      -1.365  -9.559  11.446  0.00  0.00    +0.277 C 
ENDBRANCH  26   2
ENDBRANCH  23  25
ENDBRANCH   5  23
ENDBRANCH   8  17
BRANCH   6  10
ATOM     10  C   UNL     1      -2.868 -11.192  16.401  0.00  0.00    +0.026 C 
BRANCH  10  13
ATOM     13  C   UNL     1      -2.153 -10.860  15.088  0.00  0.00    -0.015 C 
ATOM     20  C   UNL     1      -1.447 -12.114  14.567  0.00  0.00    +0.007 C 
ATOM     21  C   UNL     1      -1.141  -9.722  15.239  0.00  0.00    +0.007 C 
ENDBRANCH  10  13
ENDBRANCH   6  10
BRANCH   4  22
ATOM     22  C   UNL     1      -9.821  -9.572  18.079  0.00  0.00    +0.210 C 
BRANCH  22  24
ATOM     24  C   UNL     1     -10.356  -8.356  17.452  0.00  0.00    -0.081 C 
ATOM     28  C   UNL     1     -10.795  -7.362  16.943  0.00  0.00    -0.104 C 
ATOM     32  C   UNL     1     -11.329  -6.151  16.320  0.00  0.00    +0.106 C 
ENDBRANCH  22  24
ENDBRANCH   4  22
TORSDOF 8
ENDMDL
MODEL 6
REMARK VINA RESULT:      -7.0     25.575     29.375
REMARK  Name = 51138078
REMARK  12 active torsions:
REMARK  status: ('A' for Active; 'I' for Inactive)
REMARK    1  A    between atoms: O_2  and  C_26
REMARK    2  A    between atoms: O_2  and  C_33
REMARK    3  A    between atoms: N_4  and  C_22
REMARK    4  A    between atoms: N_5  and  C_23
REMARK    5  A    between atoms: C_6  and  C_10
REMARK    6  A    between atoms: C_8  and  C_17
REMARK    7  A    between atoms: C_10  and  C_13
REMARK    8  A    between atoms: C_13  and  C_20
REMARK    9  A    between atoms: C_13  and  C_21
REMARK   10  A    between atoms: C_22  and  C_24
REMARK   11  A    between atoms: C_23  and  C_25
REMARK   12  A    between atoms: C_28  and  C_32
REMARK                            x       y       z     vdW  Elec       q    Type
REMARK                         _______ _______ _______ _____ _____    ______ ____
ROOT
ATOM      3  N   UNL     1      16.518   8.708  21.157  0.00  0.00    -0.299 NA
ATOM      4  N   UNL     1      20.600   5.786  20.604  0.00  0.00    -0.335 N 
ATOM      6  C   UNL     1      17.662   9.629  21.093  0.00  0.00    +0.085 C 
ATOM      7  C   UNL     1      19.047   8.977  21.110  0.00  0.00    -0.021 A 
ATOM      8  C   UNL     1      16.393   7.815  20.014  0.00  0.00    +0.145 C 
ATOM      9  C   UNL     1      19.311   7.602  20.843  0.00  0.00    +0.008 A 
ATOM     11  C   UNL     1      17.008   6.446  20.304  0.00  0.00    +0.065 C 
ATOM     12  C   UNL     1      18.488   6.475  20.495  0.00  0.00    -0.020 A 
ATOM     14  C   UNL     1      20.629   7.133  20.877  0.00  0.00    +0.050 A 
ATOM     15  C   UNL     1      19.319   5.381  20.367  0.00  0.00    +0.091 A 
ATOM     16  C   UNL     1      20.181   9.799  21.329  0.00  0.00    +0.006 A 
ATOM     18  C   UNL     1      21.729   7.951  21.142  0.00  0.00    +0.026 A 
ATOM     19  C   UNL     1      21.483   9.301  21.356  0.00  0.00    +0.002 A 
ATOM     34  H   UNL     1      16.518   8.189  22.033  0.00  0.00    +0.123 HD
ENDROOT
BRANCH   8  17
ATOM      1  O   UNL     1      14.368   6.561  19.879  0.00  0.00    -0.274 OA
ATOM      5  N   UNL     1      14.302   8.855  19.491  0.00  0.00    -0.310 N 
ATOM     17  C   UNL     1      14.919   7.655  19.800  0.00  0.00    +0.231 C 
ATOM     35  H   UNL     1      14.849   9.711  19.465  0.00  0.00    +0.149 HD
BRANCH   5  23
ATOM     23  C   UNL     1      12.887   8.969  19.217  0.00  0.00    +0.143 C 
BRANCH  23  25
ATOM     25  C   UNL     1      12.106   9.346  20.443  0.00  0.00    +0.011 A 
ATOM     26  C   UNL     1      11.275   8.419  21.071  0.00  0.00    +0.125 A 
ATOM     27  C   UNL     1      12.220  10.639  20.952  0.00  0.00    +0.009 A 
ATOM     29  C   UNL     1      10.556   8.785  22.208  0.00  0.00    +0.046 A 
ATOM     30  C   UNL     1      11.502  11.006  22.091  0.00  0.00    +0.001 A 
ATOM     31  C   UNL     1      10.669  10.079  22.718  0.00  0.00    +0.004 A 
BRANCH  26   2
ATOM      2  O   UNL     1      11.151   7.152  20.585  0.00  0.00    -0.495 OA
ATOM     33  C   UNL     1      11.290   6.084  21.521  0.00  0.00    +0.277 C 
ENDBRANCH  26   2
ENDBRANCH  23  25
ENDBRANCH   5  23
ENDBRANCH   8  17
BRANCH   6  10
ATOM     10  C   UNL     1      17.449  10.594  22.274  0.00  0.00    +0.026 C 
BRANCH  10  13
ATOM     13  C   UNL     1      17.031  11.999  21.830  0.00  0.00    -0.015 C 
ATOM     20  C   UNL     1      15.513  12.139  21.961  0.00  0.00    +0.007 C 
ATOM     21  C   UNL     1      17.458  12.315  20.395  0.00  0.00    +0.007 C 
ENDBRANCH  10  13
ENDBRANCH   6  10
BRANCH   4  22
ATOM     22  C   UNL     1      21.752   4.911  20.551  0.00  0.00    +0.210 C 
BRANCH  22  24
ATOM     24  C   UNL     1      22.123   4.410  21.881  0.00  0.00    -0.081 C 
ATOM     28  C   UNL     1      22.430   4.003  22.968  0.00  0.00    -0.104 C 
ATOM     32  C   UNL     1      22.800   3.505  24.292  0.00  0.00    +0.106 C 
ENDBRANCH  22  24
ENDBRANCH   4  22
TORSDOF 8
ENDMDL
MODEL 7
REMARK VINA RESULT:      -6.9     26.369     30.802
REMARK  Name = 51138078
REMARK  12 active torsions:
REMARK  status: ('A' for Active; 'I' for Inactive)
REMARK    1  A    between atoms: O_2  and  C_26
REMARK    2  A    between atoms: O_2  and  C_33
REMARK    3  A    between atoms: N_4  and  C_22
REMARK    4  A    between atoms: N_5  and  C_23
REMARK    5  A    between atoms: C_6  and  C_10
REMARK    6  A    between atoms: C_8  and  C_17
REMARK    7  A    between atoms: C_10  and  C_13
REMARK    8  A    between atoms: C_13  and  C_20
REMARK    9  A    between atoms: C_13  and  C_21
REMARK   10  A    between atoms: C_22  and  C_24
REMARK   11  A    between atoms: C_23  and  C_25
REMARK   12  A    between atoms: C_28  and  C_32
REMARK                            x       y       z     vdW  Elec       q    Type
REMARK                         _______ _______ _______ _____ _____    ______ ____
ROOT
ATOM      3  N   UNL     1      11.215   5.533   4.131  0.00  0.00    -0.299 NA
ATOM      4  N   UNL     1       8.638   9.022   1.543  0.00  0.00    -0.335 N 
ATOM      6  C   UNL     1      10.158   6.002   5.038  0.00  0.00    +0.085 C 
ATOM      7  C   UNL     1       9.343   7.204   4.552  0.00  0.00    -0.021 A 
ATOM      8  C   UNL     1      10.737   5.018   2.856  0.00  0.00    +0.145 C 
ATOM      9  C   UNL     1       9.292   7.670   3.205  0.00  0.00    +0.008 A 
ATOM     11  C   UNL     1      10.812   6.079   1.760  0.00  0.00    +0.065 C 
ATOM     12  C   UNL     1       9.893   7.236   1.973  0.00  0.00    -0.020 A 
ATOM     14  C   UNL     1       8.495   8.775   2.888  0.00  0.00    +0.050 A 
ATOM     15  C   UNL     1       9.472   8.100   0.982  0.00  0.00    +0.091 A 
ATOM     16  C   UNL     1       8.506   7.876   5.477  0.00  0.00    +0.006 A 
ATOM     18  C   UNL     1       7.713   9.454   3.825  0.00  0.00    +0.026 A 
ATOM     19  C   UNL     1       7.722   8.975   5.129  0.00  0.00    +0.002 A 
ATOM     34  H   UNL     1      11.924   6.252   3.997  0.00  0.00    +0.123 HD
ENDROOT
BRANCH   8  17
ATOM      1  O   UNL     1      11.358   2.720   2.699  0.00  0.00    -0.274 OA
ATOM      5  N   UNL     1      12.871   4.347   2.007  0.00  0.00    -0.310 N 
ATOM     17  C   UNL     1      11.666   3.893   2.514  0.00  0.00    +0.231 C 
ATOM     35  H   UNL     1      13.023   5.343   1.879  0.00  0.00    +0.149 HD
BRANCH   5  23
ATOM     23  C   UNL     1      13.948   3.463   1.619  0.00  0.00    +0.143 C 
BRANCH  23  25
ATOM     25  C   UNL     1      14.547   3.852   0.298  0.00  0.00    +0.011 A 
ATOM     26  C   UNL     1      13.773   3.856  -0.861  0.00  0.00    +0.125 A 
ATOM     27  C   UNL     1      15.893   4.212   0.240  0.00  0.00    +0.009 A 
ATOM     29  C   UNL     1      14.344   4.220  -2.080  0.00  0.00    +0.046 A 
ATOM     30  C   UNL     1      16.465   4.576  -0.979  0.00  0.00    +0.001 A 
ATOM     31  C   UNL     1      15.691   4.580  -2.139  0.00  0.00    +0.004 A 
BRANCH  26   2
ATOM      2  O   UNL     1      12.456   3.507  -0.822  0.00  0.00    -0.495 OA
ATOM     33  C   UNL     1      11.538   4.363  -1.499  0.00  0.00    +0.277 C 
ENDBRANCH  26   2
ENDBRANCH  23  25
ENDBRANCH   5  23
ENDBRANCH   8  17
BRANCH   6  10
ATOM     10  C   UNL     1      10.882   6.279   6.368  0.00  0.00    +0.026 C 
BRANCH  10  13
ATOM     13  C   UNL     1      10.390   5.390   7.514  0.00  0.00    -0.015 C 
ATOM     20  C   UNL     1       9.710   4.148   6.932  0.00  0.00    +0.007 C 
ATOM     21  C   UNL     1       9.422   6.117   8.450  0.00  0.00    +0.007 C 
ENDBRANCH  10  13
ENDBRANCH   6  10
BRANCH   4  22
ATOM     22  C   UNL     1       7.992  10.087   0.807  0.00  0.00    +0.210 C 
BRANCH  22  24
ATOM     24  C   UNL     1       6.595   9.765   0.485  0.00  0.00    -0.081 C 
ATOM     28  C   UNL     1       5.453   9.503   0.225  0.00  0.00    -0.104 C 
ATOM     32  C   UNL     1       4.062   9.183  -0.095  0.00  0.00    +0.106 C 
ENDBRANCH  22  24
ENDBRANCH   4  22
TORSDOF 8
ENDMDL
MODEL 8
REMARK VINA RESULT:      -6.9     26.714     31.656
REMARK  Name = 51138078
REMARK  12 active torsions:
REMARK  status: ('A' for Active; 'I' for Inactive)
REMARK    1  A    between atoms: O_2  and  C_26
REMARK    2  A    between atoms: O_2  and  C_33
REMARK    3  A    between atoms: N_4  and  C_22
REMARK    4  A    between atoms: N_5  and  C_23
REMARK    5  A    between atoms: C_6  and  C_10
REMARK    6  A    between atoms: C_8  and  C_17
REMARK    7  A    between atoms: C_10  and  C_13
REMARK    8  A    between atoms: C_13  and  C_20
REMARK    9  A    between atoms: C_13  and  C_21
REMARK   10  A    between atoms: C_22  and  C_24
REMARK   11  A    between atoms: C_23  and  C_25
REMARK   12  A    between atoms: C_28  and  C_32
REMARK                            x       y       z     vdW  Elec       q    Type
REMARK                         _______ _______ _______ _____ _____    ______ ____
ROOT
ATOM      3  N   UNL     1      12.979   6.008   3.373  0.00  0.00    -0.299 NA
ATOM      4  N   UNL     1      16.162   4.803  -0.359  0.00  0.00    -0.335 N 
ATOM      6  C   UNL     1      13.652   7.261   3.003  0.00  0.00    +0.085 C 
ATOM      7  C   UNL     1      14.809   7.131   2.008  0.00  0.00    -0.021 A 
ATOM      8  C   UNL     1      12.297   5.337   2.275  0.00  0.00    +0.145 C 
ATOM      9  C   UNL     1      15.056   5.997   1.180  0.00  0.00    +0.008 A 
ATOM     11  C   UNL     1      13.163   4.234   1.668  0.00  0.00    +0.065 C 
ATOM     12  C   UNL     1      14.393   4.735   0.989  0.00  0.00    -0.020 A 
ATOM     14  C   UNL     1      16.144   6.010   0.300  0.00  0.00    +0.050 A 
ATOM     15  C   UNL     1      15.112   4.032   0.043  0.00  0.00    +0.091 A 
ATOM     16  C   UNL     1      15.671   8.240   1.821  0.00  0.00    +0.006 A 
ATOM     18  C   UNL     1      17.010   7.096   0.164  0.00  0.00    +0.026 A 
ATOM     19  C   UNL     1      16.746   8.222   0.935  0.00  0.00    +0.002 A 
ATOM     34  H   UNL     1      13.622   5.377   3.849  0.00  0.00    +0.123 HD
ENDROOT
BRANCH   8  17
ATOM      1  O   UNL     1      10.222   4.162   2.208  0.00  0.00    -0.274 OA
ATOM      5  N   UNL     1      11.042   4.887   4.262  0.00  0.00    -0.310 N 
ATOM     17  C   UNL     1      11.077   4.722   2.888  0.00  0.00    +0.231 C 
ATOM     35  H   UNL     1      11.810   5.355   4.734  0.00  0.00    +0.149 HD
BRANCH   5  23
ATOM     23  C   UNL     1       9.959   4.404   5.089  0.00  0.00    +0.143 C 
BRANCH  23  25
ATOM     25  C   UNL     1       9.558   5.406   6.133  0.00  0.00    +0.011 A 
ATOM     26  C   UNL     1       8.807   6.530   5.791  0.00  0.00    +0.125 A 
ATOM     27  C   UNL     1       9.947   5.203   7.457  0.00  0.00    +0.009 A 
ATOM     29  C   UNL     1       8.443   7.451   6.772  0.00  0.00    +0.046 A 
ATOM     30  C   UNL     1       9.583   6.124   8.439  0.00  0.00    +0.001 A 
ATOM     31  C   UNL     1       8.832   7.249   8.097  0.00  0.00    +0.004 A 
BRANCH  26   2
ATOM      2  O   UNL     1       8.420   6.744   4.502  0.00  0.00    -0.495 OA
ATOM     33  C   UNL     1       8.182   8.096   4.113  0.00  0.00    +0.277 C 
ENDBRANCH  26   2
ENDBRANCH  23  25
ENDBRANCH   5  23
ENDBRANCH   8  17
BRANCH   6  10
ATOM     10  C   UNL     1      14.093   7.875   4.344  0.00  0.00    +0.026 C 
BRANCH  10  13
ATOM     13  C   UNL     1      13.277   7.362   5.534  0.00  0.00    -0.015 C 
ATOM     20  C   UNL     1      12.215   8.401   5.904  0.00  0.00    +0.007 C 
ATOM     21  C   UNL     1      14.145   7.054   6.756  0.00  0.00    +0.007 C 
ENDBRANCH  10  13
ENDBRANCH   6  10
BRANCH   4  22
ATOM     22  C   UNL     1      17.134   4.400  -1.353  0.00  0.00    +0.210 C 
BRANCH  22  24
ATOM     24  C   UNL     1      16.744   4.818  -2.705  0.00  0.00    -0.081 C 
ATOM     28  C   UNL     1      16.423   5.161  -3.810  0.00  0.00    -0.104 C 
ATOM     32  C   UNL     1      16.034   5.579  -5.157  0.00  0.00    +0.106 C 
ENDBRANCH  22  24
ENDBRANCH   4  22
TORSDOF 8
ENDMDL
MODEL 9
REMARK VINA RESULT:      -6.9     19.056     22.586
REMARK  Name = 51138078
REMARK  12 active torsions:
REMARK  status: ('A' for Active; 'I' for Inactive)
REMARK    1  A    between atoms: O_2  and  C_26
REMARK    2  A    between atoms: O_2  and  C_33
REMARK    3  A    between atoms: N_4  and  C_22
REMARK    4  A    between atoms: N_5  and  C_23
REMARK    5  A    between atoms: C_6  and  C_10
REMARK    6  A    between atoms: C_8  and  C_17
REMARK    7  A    between atoms: C_10  and  C_13
REMARK    8  A    between atoms: C_13  and  C_20
REMARK    9  A    between atoms: C_13  and  C_21
REMARK   10  A    between atoms: C_22  and  C_24
REMARK   11  A    between atoms: C_23  and  C_25
REMARK   12  A    between atoms: C_28  and  C_32
REMARK                            x       y       z     vdW  Elec       q    Type
REMARK                         _______ _______ _______ _____ _____    ______ ____
ROOT
ATOM      3  N   UNL     1      -6.668 -11.227  16.047  0.00  0.00    -0.299 NA
ATOM      4  N   UNL     1      -3.939 -10.008  11.975  0.00  0.00    -0.335 N 
ATOM      6  C   UNL     1      -5.282 -11.104  16.518  0.00  0.00    +0.085 C 
ATOM      7  C   UNL     1      -4.219 -10.918  15.431  0.00  0.00    -0.021 A 
ATOM      8  C   UNL     1      -7.190 -10.043  15.380  0.00  0.00    +0.145 C 
ATOM      9  C   UNL     1      -4.481 -10.523  14.087  0.00  0.00    +0.008 A 
ATOM     11  C   UNL     1      -7.078 -10.160  13.861  0.00  0.00    +0.065 C 
ATOM     12  C   UNL     1      -5.674 -10.187  13.357  0.00  0.00    -0.020 A 
ATOM     14  C   UNL     1      -3.415 -10.376  13.192  0.00  0.00    +0.050 A 
ATOM     15  C   UNL     1      -5.295  -9.887  12.065  0.00  0.00    +0.091 A 
ATOM     16  C   UNL     1      -2.854 -11.070  15.783  0.00  0.00    +0.006 A 
ATOM     18  C   UNL     1      -2.080 -10.575  13.547  0.00  0.00    +0.026 A 
ATOM     19  C   UNL     1      -1.815 -10.914  14.868  0.00  0.00    +0.002 A 
ATOM     34  H   UNL     1      -6.783 -12.057  15.468  0.00  0.00    +0.123 HD
ENDROOT
BRANCH   8  17
ATOM      1  O   UNL     1      -9.309 -10.998  15.920  0.00  0.00    -0.274 OA
ATOM      5  N   UNL     1      -9.093  -8.681  15.882  0.00  0.00    -0.310 N 
ATOM     17  C   UNL     1      -8.637  -9.983  15.762  0.00  0.00    +0.231 C 
ATOM     35  H   UNL     1      -8.450  -7.906  15.744  0.00  0.00    +0.149 HD
BRANCH   5  23
ATOM     23  C   UNL     1     -10.459  -8.349  16.220  0.00  0.00    +0.143 C 
BRANCH  23  25
ATOM     25  C   UNL     1     -11.139  -7.583  15.123  0.00  0.00    +0.011 A 
ATOM     26  C   UNL     1     -11.595  -8.232  13.976  0.00  0.00    +0.125 A 
ATOM     27  C   UNL     1     -11.313  -6.206  15.261  0.00  0.00    +0.009 A 
ATOM     29  C   UNL     1     -12.225  -7.506  12.967  0.00  0.00    +0.046 A 
ATOM     30  C   UNL     1     -11.943  -5.478  14.251  0.00  0.00    +0.001 A 
ATOM     31  C   UNL     1     -12.399  -6.128  13.104  0.00  0.00    +0.004 A 
BRANCH  26   2
ATOM      2  O   UNL     1     -11.433  -9.577  13.825  0.00  0.00    -0.495 OA
ATOM     33  C   UNL     1     -10.735 -10.019  12.662  0.00  0.00    +0.277 C 
ENDBRANCH  26   2
ENDBRANCH  23  25
ENDBRANCH   5  23
ENDBRANCH   8  17
BRANCH   6  10
ATOM     10  C   UNL     1      -5.046 -12.369  17.364  0.00  0.00    +0.026 C 
BRANCH  10  13
ATOM     13  C   UNL     1      -4.981 -12.080  18.867  0.00  0.00    -0.015 C 
ATOM     20  C   UNL     1      -5.556 -10.688  19.138  0.00  0.00    +0.007 C 
ATOM     21  C   UNL     1      -3.558 -12.168  19.423  0.00  0.00    +0.007 C 
ENDBRANCH  10  13
ENDBRANCH   6  10
BRANCH   4  22
ATOM     22  C   UNL     1      -3.179  -9.763  10.768  0.00  0.00    +0.210 C 
BRANCH  22  24
ATOM     24  C   UNL     1      -4.024  -9.802   9.568  0.00  0.00    -0.081 C 
ATOM     28  C   UNL     1      -4.716  -9.831   8.587  0.00  0.00    -0.104 C 
ATOM     32  C   UNL     1      -5.558  -9.869   7.392  0.00  0.00    +0.106 C 
ENDBRANCH  22  24
ENDBRANCH   4  22
TORSDOF 8
ENDMDL
MODEL 10
REMARK VINA RESULT:      -6.8     40.387     42.622
REMARK  Name = 51138078
REMARK  12 active torsions:
REMARK  status: ('A' for Active; 'I' for Inactive)
REMARK    1  A    between atoms: O_2  and  C_26
REMARK    2  A    between atoms: O_2  and  C_33
REMARK    3  A    between atoms: N_4  and  C_22
REMARK    4  A    between atoms: N_5  and  C_23
REMARK    5  A    between atoms: C_6  and  C_10
REMARK    6  A    between atoms: C_8  and  C_17
REMARK    7  A    between atoms: C_10  and  C_13
REMARK    8  A    between atoms: C_13  and  C_20
REMARK    9  A    between atoms: C_13  and  C_21
REMARK   10  A    between atoms: C_22  and  C_24
REMARK   11  A    between atoms: C_23  and  C_25
REMARK   12  A    between atoms: C_28  and  C_32
REMARK                            x       y       z     vdW  Elec       q    Type
REMARK                         _______ _______ _______ _____ _____    ______ ____
ROOT
ATOM      3  N   UNL     1      19.238  -7.112  -0.329  0.00  0.00    -0.299 NA
ATOM      4  N   UNL     1      21.841  -8.390   3.806  0.00  0.00    -0.335 N 
ATOM      6  C   UNL     1      20.216  -6.034  -0.124  0.00  0.00    +0.085 C 
ATOM      7  C   UNL     1      21.014  -6.093   1.181  0.00  0.00    -0.021 A 
ATOM      8  C   UNL     1      19.816  -8.443  -0.443  0.00  0.00    +0.145 C 
ATOM      9  C   UNL     1      21.134  -7.240   2.019  0.00  0.00    +0.008 A 
ATOM     11  C   UNL     1      19.772  -9.189   0.890  0.00  0.00    +0.065 C 
ATOM     12  C   UNL     1      20.630  -8.586   1.951  0.00  0.00    -0.020 A 
ATOM     14  C   UNL     1      21.907  -7.166   3.183  0.00  0.00    +0.050 A 
ATOM     15  C   UNL     1      21.081  -9.252   3.072  0.00  0.00    +0.091 A 
ATOM     16  C   UNL     1      21.764  -4.954   1.571  0.00  0.00    +0.006 A 
ATOM     18  C   UNL     1      22.601  -6.020   3.574  0.00  0.00    +0.026 A 
ATOM     19  C   UNL     1      22.526  -4.913   2.737  0.00  0.00    +0.002 A 
ATOM     34  H   UNL     1      18.512  -7.085   0.386  0.00  0.00    +0.123 HD
ENDROOT
BRANCH   8  17
ATOM      1  O   UNL     1      19.089 -10.360  -1.663  0.00  0.00    -0.274 OA
ATOM      5  N   UNL     1      18.046  -8.315  -2.049  0.00  0.00    -0.310 N 
ATOM     17  C   UNL     1      18.955  -9.162  -1.436  0.00  0.00    +0.231 C 
ATOM     35  H   UNL     1      18.005  -7.337  -1.778  0.00  0.00    +0.149 HD
BRANCH   5  23
ATOM     23  C   UNL     1      17.114  -8.757  -3.062  0.00  0.00    +0.143 C 
BRANCH  23  25
ATOM     25  C   UNL     1      16.086  -7.708  -3.374  0.00  0.00    +0.011 A 
ATOM     26  C   UNL     1      16.466  -6.461  -3.867  0.00  0.00    +0.125 A 
ATOM     27  C   UNL     1      14.737  -7.995  -3.166  0.00  0.00    +0.009 A 
ATOM     29  C   UNL     1      15.498  -5.499  -4.152  0.00  0.00    +0.046 A 
ATOM     30  C   UNL     1      13.768  -7.032  -3.451  0.00  0.00    +0.001 A 
ATOM     31  C   UNL     1      14.148  -5.784  -3.944  0.00  0.00    +0.004 A 
BRANCH  26   2
ATOM      2  O   UNL     1      17.780  -6.165  -4.076  0.00  0.00    -0.495 OA
ATOM     33  C   UNL     1      18.131  -5.640  -5.355  0.00  0.00    +0.277 C 
ENDBRANCH  26   2
ENDBRANCH  23  25
ENDBRANCH   5  23
ENDBRANCH   8  17
BRANCH   6  10
ATOM     10  C   UNL     1      19.398  -4.737  -0.258  0.00  0.00    +0.026 C 
BRANCH  10  13
ATOM     13  C   UNL     1      19.289  -4.244  -1.704  0.00  0.00    -0.015 C 
ATOM     20  C   UNL     1      20.551  -3.457  -2.065  0.00  0.00    +0.007 C 
ATOM     21  C   UNL     1      18.053  -3.374  -1.939  0.00  0.00    +0.007 C 
ENDBRANCH  10  13
ENDBRANCH   6  10
BRANCH   4  22
ATOM     22  C   UNL     1      22.493  -8.739   5.051  0.00  0.00    +0.210 C 
BRANCH  22  24
ATOM     24  C   UNL     1      22.128 -10.088   5.503  0.00  0.00    -0.081 C 
ATOM     28  C   UNL     1      21.834 -11.191   5.873  0.00  0.00    -0.104 C 
ATOM     32  C   UNL     1      21.472 -12.535   6.324  0.00  0.00    +0.106 C 
ENDBRANCH  22  24
ENDBRANCH   4  22
TORSDOF 8
ENDMDL
