MODEL 1
REMARK VINA RESULT:      -7.4      0.000      0.000
REMARK  Name = 45783658
REMARK  4 active torsions:
REMARK  status: ('A' for Active; 'I' for Inactive)
REMARK    1  A    between atoms: N_2  and  C_8
REMARK    2  A    between atoms: N_6  and  C_24
REMARK    3  A    between atoms: C_9  and  C_18
REMARK    4  A    between atoms: C_19  and  C_20
REMARK                            x       y       z     vdW  Elec       q    Type
REMARK                         _______ _______ _______ _____ _____    ______ ____
ROOT
ATOM      1  O   UNL     1      20.939   5.993  22.999  0.00  0.00    -0.336 OA
ATOM      3  N   UNL     1      20.679   6.058  20.777  0.00  0.00    -0.190 NA
ATOM      4  N   UNL     1      19.577   6.225  22.774  0.00  0.00    -0.056 NA
ATOM     18  C   UNL     1      21.515   5.908  21.772  0.00  0.00    +0.245 A 
ATOM     19  C   UNL     1      19.503   6.250  21.440  0.00  0.00    +0.204 A 
ENDROOT
BRANCH  19  20
ATOM      5  N   UNL     1      16.119   7.566  20.639  0.00  0.00    -0.237 NA
ATOM     20  C   UNL     1      18.269   6.467  20.740  0.00  0.00    +0.041 A 
ATOM     21  C   UNL     1      18.006   5.825  19.535  0.00  0.00    +0.017 A 
ATOM     22  C   UNL     1      17.301   7.320  21.246  0.00  0.00    +0.124 A 
ATOM     23  C   UNL     1      16.800   6.054  18.880  0.00  0.00    +0.047 A 
ATOM     24  C   UNL     1      15.898   6.926  19.469  0.00  0.00    +0.139 A 
BRANCH  24   6
ATOM      6  N   UNL     1      14.695   7.156  18.820  0.00  0.00    -0.290 N 
ATOM      7  N   UNL     1      13.267   7.569  17.171  0.00  0.00    -0.244 NA
ATOM     25  C   UNL     1      13.458   7.192  19.397  0.00  0.00    +0.114 A 
ATOM     26  C   UNL     1      14.531   7.387  17.483  0.00  0.00    +0.205 A 
ATOM     27  C   UNL     1      12.593   7.450  18.360  0.00  0.00    +0.130 A 
ENDBRANCH  24   6
ENDBRANCH  19  20
BRANCH  18   9
ATOM      2  N   UNL     1      23.386   4.597  20.785  0.00  0.00    -0.288 NA
ATOM      9  C   UNL     1      23.008   5.655  21.743  0.00  0.00    +0.146 C 
ATOM     12  C   UNL     1      24.739   4.916  20.329  0.00  0.00    +0.085 C 
ATOM     13  C   UNL     1      23.811   6.891  21.297  0.00  0.00    +0.030 C 
ATOM     14  C   UNL     1      24.655   6.415  20.123  0.00  0.00    +0.017 C 
BRANCH   2   8
ATOM      8  C   UNL     1      23.298   3.252  21.348  0.00  0.00    +0.057 C 
ATOM     10  C   UNL     1      24.287   2.323  20.634  0.00  0.00    +0.019 C 
ATOM     11  C   UNL     1      23.573   3.298  22.855  0.00  0.00    +0.019 C 
ATOM     15  C   UNL     1      24.279   0.924  21.248  0.00  0.00    +0.002 C 
ATOM     16  C   UNL     1      23.565   1.897  23.466  0.00  0.00    +0.002 C 
ATOM     17  C   UNL     1      24.540   0.966  22.751  0.00  0.00    +0.000 C 
ENDBRANCH   2   8
ENDBRANCH  18   9
TORSDOF 4
ENDMDL
MODEL 2
REMARK VINA RESULT:      -7.3      2.247      9.773
REMARK  Name = 45783658
REMARK  4 active torsions:
REMARK  status: ('A' for Active; 'I' for Inactive)
REMARK    1  A    between atoms: N_2  and  C_8
REMARK    2  A    between atoms: N_6  and  C_24
REMARK    3  A    between atoms: C_9  and  C_18
REMARK    4  A    between atoms: C_19  and  C_20
REMARK                            x       y       z     vdW  Elec       q    Type
REMARK                         _______ _______ _______ _____ _____    ______ ____
ROOT
ATOM      1  O   UNL     1      16.136   8.555  20.276  0.00  0.00    -0.336 OA
ATOM      3  N   UNL     1      16.624   6.417  19.824  0.00  0.00    -0.190 NA
ATOM      4  N   UNL     1      17.396   8.317  20.840  0.00  0.00    -0.056 NA
ATOM     18  C   UNL     1      15.753   7.387  19.699  0.00  0.00    +0.245 A 
ATOM     19  C   UNL     1      17.614   7.035  20.531  0.00  0.00    +0.204 A 
ENDROOT
BRANCH  19  20
ATOM      5  N   UNL     1      20.567   6.001  22.541  0.00  0.00    -0.237 NA
ATOM     20  C   UNL     1      18.811   6.343  20.915  0.00  0.00    +0.041 A 
ATOM     21  C   UNL     1      19.379   5.380  20.088  0.00  0.00    +0.017 A 
ATOM     22  C   UNL     1      19.438   6.615  22.121  0.00  0.00    +0.124 A 
ATOM     23  C   UNL     1      20.540   4.727  20.487  0.00  0.00    +0.047 A 
ATOM     24  C   UNL     1      21.090   5.071  21.712  0.00  0.00    +0.139 A 
BRANCH  24   6
ATOM      6  N   UNL     1      22.248   4.423  22.113  0.00  0.00    -0.290 N 
ATOM      7  N   UNL     1      24.042   3.928  23.323  0.00  0.00    -0.244 NA
ATOM     25  C   UNL     1      22.843   3.365  21.485  0.00  0.00    +0.114 A 
ATOM     26  C   UNL     1      23.003   4.725  23.212  0.00  0.00    +0.205 A 
ATOM     27  C   UNL     1      23.949   3.079  22.250  0.00  0.00    +0.130 A 
ENDBRANCH  24   6
ENDBRANCH  19  20
BRANCH  18   9
ATOM      2  N   UNL     1      13.511   8.448  19.507  0.00  0.00    -0.288 NA
ATOM      9  C   UNL     1      14.405   7.383  19.010  0.00  0.00    +0.146 C 
ATOM     12  C   UNL     1      12.631   8.803  18.393  0.00  0.00    +0.085 C 
ATOM     13  C   UNL     1      14.512   7.639  17.495  0.00  0.00    +0.030 C 
ATOM     14  C   UNL     1      13.597   8.825  17.226  0.00  0.00    +0.017 C 
BRANCH   2   8
ATOM      8  C   UNL     1      12.760   8.060  20.699  0.00  0.00    +0.057 C 
ATOM     10  C   UNL     1      11.732   9.143  21.042  0.00  0.00    +0.019 C 
ATOM     11  C   UNL     1      12.080   6.706  20.468  0.00  0.00    +0.019 C 
ATOM     15  C   UNL     1      10.874   8.737  22.240  0.00  0.00    +0.002 C 
ATOM     16  C   UNL     1      11.221   6.302  21.666  0.00  0.00    +0.002 C 
ATOM     17  C   UNL     1      10.204   7.384  22.020  0.00  0.00    +0.000 C 
ENDBRANCH   2   8
ENDBRANCH  18   9
TORSDOF 4
ENDMDL
MODEL 3
REMARK VINA RESULT:      -6.8      3.303      9.895
REMARK  Name = 45783658
REMARK  4 active torsions:
REMARK  status: ('A' for Active; 'I' for Inactive)
REMARK    1  A    between atoms: N_2  and  C_8
REMARK    2  A    between atoms: N_6  and  C_24
REMARK    3  A    between atoms: C_9  and  C_18
REMARK    4  A    between atoms: C_19  and  C_20
REMARK                            x       y       z     vdW  Elec       q    Type
REMARK                         _______ _______ _______ _____ _____    ______ ____
ROOT
ATOM      1  O   UNL     1      15.535   6.192  18.352  0.00  0.00    -0.336 OA
ATOM      3  N   UNL     1      16.120   7.789  19.808  0.00  0.00    -0.190 NA
ATOM      4  N   UNL     1      16.747   5.777  18.918  0.00  0.00    -0.056 NA
ATOM     18  C   UNL     1      15.237   7.384  18.930  0.00  0.00    +0.245 A 
ATOM     19  C   UNL     1      17.027   6.771  19.766  0.00  0.00    +0.204 A 
ENDROOT
BRANCH  19  20
ATOM      5  N   UNL     1      19.455   7.774  22.398  0.00  0.00    -0.237 NA
ATOM     20  C   UNL     1      18.206   6.778  20.584  0.00  0.00    +0.041 A 
ATOM     21  C   UNL     1      19.221   5.848  20.386  0.00  0.00    +0.017 A 
ATOM     22  C   UNL     1      18.370   7.712  21.594  0.00  0.00    +0.124 A 
ATOM     23  C   UNL     1      20.353   5.880  21.193  0.00  0.00    +0.047 A 
ATOM     24  C   UNL     1      20.421   6.855  22.176  0.00  0.00    +0.139 A 
BRANCH  24   6
ATOM      6  N   UNL     1      21.547   6.890  22.983  0.00  0.00    -0.290 N 
ATOM      7  N   UNL     1      23.666   7.168  23.585  0.00  0.00    -0.244 NA
ATOM     25  C   UNL     1      21.599   6.595  24.316  0.00  0.00    +0.114 A 
ATOM     26  C   UNL     1      22.812   7.230  22.589  0.00  0.00    +0.205 A 
ATOM     27  C   UNL     1      22.918   6.773  24.665  0.00  0.00    +0.130 A 
ENDBRANCH  24   6
ENDBRANCH  19  20
BRANCH  18   9
ATOM      2  N   UNL     1      13.644   9.267  19.259  0.00  0.00    -0.288 NA
ATOM      9  C   UNL     1      13.953   8.050  18.482  0.00  0.00    +0.146 C 
ATOM     12  C   UNL     1      12.892  10.148  18.364  0.00  0.00    +0.085 C 
ATOM     13  C   UNL     1      14.010   8.524  17.018  0.00  0.00    +0.030 C 
ATOM     14  C   UNL     1      13.659  10.004  17.065  0.00  0.00    +0.017 C 
BRANCH   2   8
ATOM      8  C   UNL     1      12.918   8.992  20.497  0.00  0.00    +0.057 C 
ATOM     10  C   UNL     1      12.693  10.296  21.269  0.00  0.00    +0.019 C 
ATOM     11  C   UNL     1      11.588   8.301  20.180  0.00  0.00    +0.019 C 
ATOM     15  C   UNL     1      11.870  10.059  22.534  0.00  0.00    +0.002 C 
ATOM     16  C   UNL     1      10.766   8.066  21.446  0.00  0.00    +0.002 C 
ATOM     17  C   UNL     1      10.549   9.360  22.225  0.00  0.00    +0.000 C 
ENDBRANCH   2   8
ENDBRANCH  18   9
TORSDOF 4
ENDMDL
MODEL 4
REMARK VINA RESULT:      -6.7      2.619     10.030
REMARK  Name = 45783658
REMARK  4 active torsions:
REMARK  status: ('A' for Active; 'I' for Inactive)
REMARK    1  A    between atoms: N_2  and  C_8
REMARK    2  A    between atoms: N_6  and  C_24
REMARK    3  A    between atoms: C_9  and  C_18
REMARK    4  A    between atoms: C_19  and  C_20
REMARK                            x       y       z     vdW  Elec       q    Type
REMARK                         _______ _______ _______ _____ _____    ______ ____
ROOT
ATOM      1  O   UNL     1      14.446   6.789  19.265  0.00  0.00    -0.336 OA
ATOM      3  N   UNL     1      15.619   7.710  20.935  0.00  0.00    -0.190 NA
ATOM      4  N   UNL     1      15.724   6.219  19.204  0.00  0.00    -0.056 NA
ATOM     18  C   UNL     1      14.469   7.656  20.311  0.00  0.00    +0.245 A 
ATOM     19  C   UNL     1      16.356   6.812  20.221  0.00  0.00    +0.204 A 
ENDROOT
BRANCH  19  20
ATOM      5  N   UNL     1      19.661   7.006  21.914  0.00  0.00    -0.237 NA
ATOM     20  C   UNL     1      17.725   6.531  20.547  0.00  0.00    +0.041 A 
ATOM     21  C   UNL     1      18.441   5.560  19.857  0.00  0.00    +0.017 A 
ATOM     22  C   UNL     1      18.374   7.220  21.559  0.00  0.00    +0.124 A 
ATOM     23  C   UNL     1      19.767   5.310  20.194  0.00  0.00    +0.047 A 
ATOM     24  C   UNL     1      20.325   6.054  21.222  0.00  0.00    +0.139 A 
BRANCH  24   6
ATOM      6  N   UNL     1      21.647   5.809  21.562  0.00  0.00    -0.290 N 
ATOM      7  N   UNL     1      23.792   5.286  21.327  0.00  0.00    -0.244 NA
ATOM     25  C   UNL     1      22.190   5.887  22.813  0.00  0.00    +0.114 A 
ATOM     26  C   UNL     1      22.647   5.445  20.703  0.00  0.00    +0.205 A 
ATOM     27  C   UNL     1      23.514   5.559  22.643  0.00  0.00    +0.130 A 
ENDBRANCH  24   6
ENDBRANCH  19  20
BRANCH  18   9
ATOM      2  N   UNL     1      12.245   8.370  19.455  0.00  0.00    -0.288 NA
ATOM      9  C   UNL     1      13.187   8.410  20.591  0.00  0.00    +0.146 C 
ATOM     12  C   UNL     1      10.901   8.462  20.029  0.00  0.00    +0.085 C 
ATOM     13  C   UNL     1      12.397   7.820  21.775  0.00  0.00    +0.030 C 
ATOM     14  C   UNL     1      11.007   7.537  21.224  0.00  0.00    +0.017 C 
BRANCH   2   8
ATOM      8  C   UNL     1      12.492   9.415  18.464  0.00  0.00    +0.057 C 
ATOM     10  C   UNL     1      13.498  10.430  19.018  0.00  0.00    +0.019 C 
ATOM     11  C   UNL     1      13.000   8.788  17.161  0.00  0.00    +0.019 C 
ATOM     15  C   UNL     1      13.840  11.497  17.980  0.00  0.00    +0.002 C 
ATOM     16  C   UNL     1      13.343   9.858  16.125  0.00  0.00    +0.002 C 
ATOM     17  C   UNL     1      14.335  10.878  16.676  0.00  0.00    +0.000 C 
ENDBRANCH   2   8
ENDBRANCH  18   9
TORSDOF 4
ENDMDL
MODEL 5
REMARK VINA RESULT:      -6.7     33.095     35.409
REMARK  Name = 45783658
REMARK  4 active torsions:
REMARK  status: ('A' for Active; 'I' for Inactive)
REMARK    1  A    between atoms: N_2  and  C_8
REMARK    2  A    between atoms: N_6  and  C_24
REMARK    3  A    between atoms: C_9  and  C_18
REMARK    4  A    between atoms: C_19  and  C_20
REMARK                            x       y       z     vdW  Elec       q    Type
REMARK                         _______ _______ _______ _____ _____    ______ ____
ROOT
ATOM      1  O   UNL     1     -14.341  -5.630  14.161  0.00  0.00    -0.336 OA
ATOM      3  N   UNL     1     -12.105  -5.644  14.269  0.00  0.00    -0.190 NA
ATOM      4  N   UNL     1     -14.003  -6.607  15.106  0.00  0.00    -0.056 NA
ATOM     18  C   UNL     1     -13.166  -5.112  13.717  0.00  0.00    +0.245 A 
ATOM     19  C   UNL     1     -12.668  -6.555  15.113  0.00  0.00    +0.204 A 
ENDROOT
BRANCH  19  20
ATOM      5  N   UNL     1     -11.745  -9.263  17.488  0.00  0.00    -0.237 NA
ATOM     20  C   UNL     1     -11.868  -7.401  15.951  0.00  0.00    +0.041 A 
ATOM     21  C   UNL     1     -10.495  -7.211  16.060  0.00  0.00    +0.017 A 
ATOM     22  C   UNL     1     -12.440  -8.433  16.679  0.00  0.00    +0.124 A 
ATOM     23  C   UNL     1      -9.745  -8.047  16.881  0.00  0.00    +0.047 A 
ATOM     24  C   UNL     1     -10.413  -9.049  17.568  0.00  0.00    +0.139 A 
BRANCH  24   6
ATOM      6  N   UNL     1      -9.670  -9.884  18.388  0.00  0.00    -0.290 N 
ATOM      7  N   UNL     1      -9.168 -11.220  20.089  0.00  0.00    -0.244 NA
ATOM     25  C   UNL     1      -8.368 -10.253  18.202  0.00  0.00    +0.114 A 
ATOM     26  C   UNL     1     -10.108 -10.489  19.533  0.00  0.00    +0.205 A 
ATOM     27  C   UNL     1      -8.080 -11.077  19.265  0.00  0.00    +0.130 A 
ENDBRANCH  24   6
ENDBRANCH  19  20
BRANCH  18   9
ATOM      2  N   UNL     1     -13.317  -4.552  11.297  0.00  0.00    -0.288 NA
ATOM      9  C   UNL     1     -13.262  -4.020  12.673  0.00  0.00    +0.146 C 
ATOM     12  C   UNL     1     -14.081  -3.584  10.510  0.00  0.00    +0.085 C 
ATOM     13  C   UNL     1     -14.540  -3.172  12.816  0.00  0.00    +0.030 C 
ATOM     14  C   UNL     1     -15.215  -3.237  11.454  0.00  0.00    +0.017 C 
BRANCH   2   8
ATOM      8  C   UNL     1     -11.998  -4.807  10.725  0.00  0.00    +0.057 C 
ATOM     10  C   UNL     1     -12.006  -6.142   9.972  0.00  0.00    +0.019 C 
ATOM     11  C   UNL     1     -11.599  -3.653   9.799  0.00  0.00    +0.019 C 
ATOM     15  C   UNL     1     -10.663  -6.408   9.294  0.00  0.00    +0.002 C 
ATOM     16  C   UNL     1     -10.256  -3.921   9.121  0.00  0.00    +0.002 C 
ATOM     17  C   UNL     1     -10.255  -5.255   8.380  0.00  0.00    +0.000 C 
ENDBRANCH   2   8
ENDBRANCH  18   9
TORSDOF 4
ENDMDL
MODEL 6
REMARK VINA RESULT:      -6.7      1.395      1.987
REMARK  Name = 45783658
REMARK  4 active torsions:
REMARK  status: ('A' for Active; 'I' for Inactive)
REMARK    1  A    between atoms: N_2  and  C_8
REMARK    2  A    between atoms: N_6  and  C_24
REMARK    3  A    between atoms: C_9  and  C_18
REMARK    4  A    between atoms: C_19  and  C_20
REMARK                            x       y       z     vdW  Elec       q    Type
REMARK                         _______ _______ _______ _____ _____    ______ ____
ROOT
ATOM      1  O   UNL     1      20.892   7.953  22.870  0.00  0.00    -0.336 OA
ATOM      3  N   UNL     1      19.908   6.159  21.962  0.00  0.00    -0.190 NA
ATOM      4  N   UNL     1      19.751   8.427  22.211  0.00  0.00    -0.056 NA
ATOM     18  C   UNL     1      20.910   6.609  22.673  0.00  0.00    +0.245 A 
ATOM     19  C   UNL     1      19.224   7.310  21.701  0.00  0.00    +0.204 A 
ENDROOT
BRANCH  19  20
ATOM      5  N   UNL     1      15.978   8.438  20.281  0.00  0.00    -0.237 NA
ATOM     20  C   UNL     1      18.017   7.311  20.925  0.00  0.00    +0.041 A 
ATOM     21  C   UNL     1      17.698   6.243  20.094  0.00  0.00    +0.017 A 
ATOM     22  C   UNL     1      17.131   8.376  20.983  0.00  0.00    +0.124 A 
ATOM     23  C   UNL     1      16.520   6.271  19.355  0.00  0.00    +0.047 A 
ATOM     24  C   UNL     1      15.701   7.383  19.483  0.00  0.00    +0.139 A 
BRANCH  24   6
ATOM      6  N   UNL     1      14.526   7.415  18.749  0.00  0.00    -0.290 N 
ATOM      7  N   UNL     1      13.168   7.627  17.006  0.00  0.00    -0.244 NA
ATOM     25  C   UNL     1      13.265   7.199  19.229  0.00  0.00    +0.114 A 
ATOM     26  C   UNL     1      14.417   7.667  17.410  0.00  0.00    +0.205 A 
ATOM     27  C   UNL     1      12.444   7.337  18.135  0.00  0.00    +0.130 A 
ENDBRANCH  24   6
ENDBRANCH  19  20
BRANCH  18   9
ATOM      2  N   UNL     1      23.287   5.901  22.472  0.00  0.00    -0.288 NA
ATOM      9  C   UNL     1      22.063   5.851  23.296  0.00  0.00    +0.146 C 
ATOM     12  C   UNL     1      24.414   5.802  23.400  0.00  0.00    +0.085 C 
ATOM     13  C   UNL     1      22.486   6.430  24.660  0.00  0.00    +0.030 C 
ATOM     14  C   UNL     1      23.975   6.717  24.525  0.00  0.00    +0.017 C 
BRANCH   2   8
ATOM      8  C   UNL     1      23.330   4.865  21.442  0.00  0.00    +0.057 C 
ATOM     10  C   UNL     1      24.640   4.970  20.653  0.00  0.00    +0.019 C 
ATOM     11  C   UNL     1      23.182   3.483  22.086  0.00  0.00    +0.019 C 
ATOM     15  C   UNL     1      24.756   3.854  19.616  0.00  0.00    +0.002 C 
ATOM     16  C   UNL     1      23.299   2.368  21.047  0.00  0.00    +0.002 C 
ATOM     17  C   UNL     1      24.597   2.476  20.251  0.00  0.00    +0.000 C 
ENDBRANCH   2   8
ENDBRANCH  18   9
TORSDOF 4
ENDMDL
MODEL 7
REMARK VINA RESULT:      -6.7      9.020     10.909
REMARK  Name = 45783658
REMARK  4 active torsions:
REMARK  status: ('A' for Active; 'I' for Inactive)
REMARK    1  A    between atoms: N_2  and  C_8
REMARK    2  A    between atoms: N_6  and  C_24
REMARK    3  A    between atoms: C_9  and  C_18
REMARK    4  A    between atoms: C_19  and  C_20
REMARK                            x       y       z     vdW  Elec       q    Type
REMARK                         _______ _______ _______ _____ _____    ______ ____
ROOT
ATOM      1  O   UNL     1      11.742   7.840  18.453  0.00  0.00    -0.336 OA
ATOM      3  N   UNL     1      13.478   9.205  18.820  0.00  0.00    -0.190 NA
ATOM      4  N   UNL     1      12.154   8.292  17.193  0.00  0.00    -0.056 NA
ATOM     18  C   UNL     1      12.572   8.425  19.355  0.00  0.00    +0.245 A 
ATOM     19  C   UNL     1      13.182   9.092  17.494  0.00  0.00    +0.204 A 
ENDROOT
BRANCH  19  20
ATOM      5  N   UNL     1      15.151   9.733  14.405  0.00  0.00    -0.237 NA
ATOM     20  C   UNL     1      13.931   9.794  16.491  0.00  0.00    +0.041 A 
ATOM     21  C   UNL     1      14.174  11.158  16.602  0.00  0.00    +0.017 A 
ATOM     22  C   UNL     1      14.436   9.133  15.383  0.00  0.00    +0.124 A 
ATOM     23  C   UNL     1      14.905  11.812  15.616  0.00  0.00    +0.047 A 
ATOM     24  C   UNL     1      15.367  11.060  14.547  0.00  0.00    +0.139 A 
BRANCH  24   6
ATOM      6  N   UNL     1      16.096  11.706  13.561  0.00  0.00    -0.290 N 
ATOM      7  N   UNL     1      16.620  12.543  11.573  0.00  0.00    -0.244 NA
ATOM     25  C   UNL     1      17.330  12.275  13.708  0.00  0.00    +0.114 A 
ATOM     26  C   UNL     1      15.711  11.893  12.263  0.00  0.00    +0.205 A 
ATOM     27  C   UNL     1      17.633  12.784  12.467  0.00  0.00    +0.130 A 
ENDBRANCH  24   6
ENDBRANCH  19  20
BRANCH  18   9
ATOM      2  N   UNL     1      11.242   8.892  21.405  0.00  0.00    -0.288 NA
ATOM      9  C   UNL     1      12.331   8.091  20.811  0.00  0.00    +0.146 C 
ATOM     12  C   UNL     1      10.648   8.067  22.458  0.00  0.00    +0.085 C 
ATOM     13  C   UNL     1      11.898   6.628  21.021  0.00  0.00    +0.030 C 
ATOM     14  C   UNL     1      10.589   6.706  21.793  0.00  0.00    +0.017 C 
BRANCH   2   8
ATOM      8  C   UNL     1      11.690  10.188  21.909  0.00  0.00    +0.057 C 
ATOM     10  C   UNL     1      10.785  10.639  23.062  0.00  0.00    +0.019 C 
ATOM     11  C   UNL     1      13.152  10.097  22.357  0.00  0.00    +0.019 C 
ATOM     15  C   UNL     1      11.269  11.957  23.665  0.00  0.00    +0.002 C 
ATOM     16  C   UNL     1      13.633  11.415  22.962  0.00  0.00    +0.002 C 
ATOM     17  C   UNL     1      12.728  11.874  24.103  0.00  0.00    +0.000 C 
ENDBRANCH   2   8
ENDBRANCH  18   9
TORSDOF 4
ENDMDL
MODEL 8
REMARK VINA RESULT:      -6.4     27.648     31.893
REMARK  Name = 45783658
REMARK  4 active torsions:
REMARK  status: ('A' for Active; 'I' for Inactive)
REMARK    1  A    between atoms: N_2  and  C_8
REMARK    2  A    between atoms: N_6  and  C_24
REMARK    3  A    between atoms: C_9  and  C_18
REMARK    4  A    between atoms: C_19  and  C_20
REMARK                            x       y       z     vdW  Elec       q    Type
REMARK                         _______ _______ _______ _____ _____    ______ ____
ROOT
ATOM      1  O   UNL     1      -4.897  -9.844  16.243  0.00  0.00    -0.336 OA
ATOM      3  N   UNL     1      -5.093 -11.965  16.930  0.00  0.00    -0.190 NA
ATOM      4  N   UNL     1      -6.068  -9.898  17.008  0.00  0.00    -0.056 NA
ATOM     18  C   UNL     1      -4.385 -11.102  16.247  0.00  0.00    +0.245 A 
ATOM     19  C   UNL     1      -6.115 -11.181  17.378  0.00  0.00    +0.204 A 
ENDROOT
BRANCH  19  20
ATOM      5  N   UNL     1      -8.935 -11.317  19.797  0.00  0.00    -0.237 NA
ATOM     20  C   UNL     1      -7.170 -11.711  18.193  0.00  0.00    +0.041 A 
ATOM     21  C   UNL     1      -7.462 -13.070  18.195  0.00  0.00    +0.017 A 
ATOM     22  C   UNL     1      -7.930 -10.883  19.005  0.00  0.00    +0.124 A 
ATOM     23  C   UNL     1      -8.490 -13.555  18.997  0.00  0.00    +0.047 A 
ATOM     24  C   UNL     1      -9.190 -12.644  19.773  0.00  0.00    +0.139 A 
BRANCH  24   6
ATOM      6  N   UNL     1     -10.215 -13.123  20.574  0.00  0.00    -0.290 N 
ATOM      7  N   UNL     1     -12.229 -13.298  21.491  0.00  0.00    -0.244 NA
ATOM     25  C   UNL     1     -10.140 -14.174  21.443  0.00  0.00    +0.114 A 
ATOM     26  C   UNL     1     -11.489 -12.629  20.636  0.00  0.00    +0.205 A 
ATOM     27  C   UNL     1     -11.395 -14.262  21.998  0.00  0.00    +0.130 A 
ENDBRANCH  24   6
ENDBRANCH  19  20
BRANCH  18   9
ATOM      2  N   UNL     1      -3.057 -10.537  14.220  0.00  0.00    -0.288 NA
ATOM      9  C   UNL     1      -3.098 -11.310  15.478  0.00  0.00    +0.146 C 
ATOM     12  C   UNL     1      -1.647 -10.242  13.962  0.00  0.00    +0.085 C 
ATOM     13  C   UNL     1      -1.856 -10.846  16.262  0.00  0.00    +0.030 C 
ATOM     14  C   UNL     1      -1.148  -9.862  15.341  0.00  0.00    +0.017 C 
BRANCH   2   8
ATOM      8  C   UNL     1      -3.688 -11.228  13.099  0.00  0.00    +0.057 C 
ATOM     10  C   UNL     1      -4.106 -10.212  12.030  0.00  0.00    +0.019 C 
ATOM     11  C   UNL     1      -2.727 -12.273  12.522  0.00  0.00    +0.019 C 
ATOM     15  C   UNL     1      -4.703 -10.906  10.806  0.00  0.00    +0.002 C 
ATOM     16  C   UNL     1      -3.325 -12.964  11.297  0.00  0.00    +0.002 C 
ATOM     17  C   UNL     1      -3.754 -11.956  10.235  0.00  0.00    +0.000 C 
ENDBRANCH   2   8
ENDBRANCH  18   9
TORSDOF 4
ENDMDL
MODEL 9
REMARK VINA RESULT:      -6.4     17.198     21.502
REMARK  Name = 45783658
REMARK  4 active torsions:
REMARK  status: ('A' for Active; 'I' for Inactive)
REMARK    1  A    between atoms: N_2  and  C_8
REMARK    2  A    between atoms: N_6  and  C_24
REMARK    3  A    between atoms: C_9  and  C_18
REMARK    4  A    between atoms: C_19  and  C_20
REMARK                            x       y       z     vdW  Elec       q    Type
REMARK                         _______ _______ _______ _____ _____    ______ ____
ROOT
ATOM      1  O   UNL     1      10.208   4.286   5.437  0.00  0.00    -0.336 OA
ATOM      3  N   UNL     1      10.950   5.765   3.929  0.00  0.00    -0.190 NA
ATOM      4  N   UNL     1      10.439   3.560   4.262  0.00  0.00    -0.056 NA
ATOM     18  C   UNL     1      10.533   5.575   5.155  0.00  0.00    +0.245 A 
ATOM     19  C   UNL     1      10.875   4.502   3.420  0.00  0.00    +0.204 A 
ENDROOT
BRANCH  19  20
ATOM      5  N   UNL     1      10.670   4.257  -0.285  0.00  0.00    -0.237 NA
ATOM     20  C   UNL     1      11.243   4.213   2.063  0.00  0.00    +0.041 A 
ATOM     21  C   UNL     1      12.468   3.629   1.761  0.00  0.00    +0.017 A 
ATOM     22  C   UNL     1      10.387   4.505   1.013  0.00  0.00    +0.124 A 
ATOM     23  C   UNL     1      12.796   3.359   0.437  0.00  0.00    +0.047 A 
ATOM     24  C   UNL     1      11.870   3.689  -0.540  0.00  0.00    +0.139 A 
BRANCH  24   6
ATOM      6  N   UNL     1      12.192   3.421  -1.862  0.00  0.00    -0.290 N 
ATOM      7  N   UNL     1      12.931   3.748  -3.930  0.00  0.00    -0.244 NA
ATOM     25  C   UNL     1      12.022   2.232  -2.512  0.00  0.00    +0.114 A 
ATOM     26  C   UNL     1      12.742   4.301  -2.753  0.00  0.00    +0.205 A 
ATOM     27  C   UNL     1      12.484   2.459  -3.787  0.00  0.00    +0.130 A 
ENDBRANCH  24   6
ENDBRANCH  19  20
BRANCH  18   9
ATOM      2  N   UNL     1       9.046   7.231   6.267  0.00  0.00    -0.288 NA
ATOM      9  C   UNL     1      10.368   6.574   6.280  0.00  0.00    +0.146 C 
ATOM     12  C   UNL     1       8.738   7.569   7.657  0.00  0.00    +0.085 C 
ATOM     13  C   UNL     1      10.466   5.923   7.672  0.00  0.00    +0.030 C 
ATOM     14  C   UNL     1       9.184   6.320   8.389  0.00  0.00    +0.017 C 
BRANCH   2   8
ATOM      8  C   UNL     1       8.993   8.400   5.392  0.00  0.00    +0.057 C 
ATOM     10  C   UNL     1       7.918   8.198   4.317  0.00  0.00    +0.019 C 
ATOM     11  C   UNL     1       8.716   9.659   6.220  0.00  0.00    +0.019 C 
ATOM     15  C   UNL     1       7.780   9.433   3.429  0.00  0.00    +0.002 C 
ATOM     16  C   UNL     1       8.576  10.893   5.329  0.00  0.00    +0.002 C 
ATOM     17  C   UNL     1       7.516  10.692   4.250  0.00  0.00    +0.000 C 
ENDBRANCH   2   8
ENDBRANCH  18   9
TORSDOF 4
ENDMDL
MODEL 10
REMARK VINA RESULT:      -6.3     16.824     21.394
REMARK  Name = 45783658
REMARK  4 active torsions:
REMARK  status: ('A' for Active; 'I' for Inactive)
REMARK    1  A    between atoms: N_2  and  C_8
REMARK    2  A    between atoms: N_6  and  C_24
REMARK    3  A    between atoms: C_9  and  C_18
REMARK    4  A    between atoms: C_19  and  C_20
REMARK                            x       y       z     vdW  Elec       q    Type
REMARK                         _______ _______ _______ _____ _____    ______ ____
ROOT
ATOM      1  O   UNL     1      10.191   6.810  -0.208  0.00  0.00    -0.336 OA
ATOM      3  N   UNL     1      10.915   5.066   0.995  0.00  0.00    -0.190 NA
ATOM      4  N   UNL     1       9.799   7.059   1.113  0.00  0.00    -0.056 NA
ATOM     18  C   UNL     1      10.841   5.617  -0.191  0.00  0.00    +0.245 A 
ATOM     19  C   UNL     1      10.262   5.986   1.761  0.00  0.00    +0.204 A 
ENDROOT
BRANCH  19  20
ATOM      5  N   UNL     1       9.412   6.720   5.306  0.00  0.00    -0.237 NA
ATOM     20  C   UNL     1      10.088   5.803   3.174  0.00  0.00    +0.041 A 
ATOM     21  C   UNL     1      10.406   4.595   3.785  0.00  0.00    +0.017 A 
ATOM     22  C   UNL     1       9.598   6.825   3.971  0.00  0.00    +0.124 A 
ATOM     23  C   UNL     1      10.227   4.448   5.156  0.00  0.00    +0.047 A 
ATOM     24  C   UNL     1       9.732   5.532   5.865  0.00  0.00    +0.139 A 
BRANCH  24   6
ATOM      6  N   UNL     1       9.553   5.389   7.233  0.00  0.00    -0.290 N 
ATOM      7  N   UNL     1       9.035   5.910   9.328  0.00  0.00    -0.244 NA
ATOM     25  C   UNL     1       9.800   4.266   7.969  0.00  0.00    +0.114 A 
ATOM     26  C   UNL     1       9.095   6.350   8.091  0.00  0.00    +0.205 A 
ATOM     27  C   UNL     1       9.474   4.612   9.260  0.00  0.00    +0.130 A 
ENDBRANCH  24   6
ENDBRANCH  19  20
BRANCH  18   9
ATOM      2  N   UNL     1      12.384   4.054  -1.359  0.00  0.00    -0.288 NA
ATOM      9  C   UNL     1      11.373   5.118  -1.517  0.00  0.00    +0.146 C 
ATOM     12  C   UNL     1      12.288   3.212  -2.553  0.00  0.00    +0.085 C 
ATOM     13  C   UNL     1      10.277   4.489  -2.397  0.00  0.00    +0.030 C 
ATOM     14  C   UNL     1      10.788   3.096  -2.735  0.00  0.00    +0.017 C 
BRANCH   2   8
ATOM      8  C   UNL     1      13.736   4.569  -1.157  0.00  0.00    +0.057 C 
ATOM     10  C   UNL     1      14.390   3.859   0.034  0.00  0.00    +0.019 C 
ATOM     11  C   UNL     1      14.562   4.382  -2.434  0.00  0.00    +0.019 C 
ATOM     15  C   UNL     1      15.834   4.317   0.230  0.00  0.00    +0.002 C 
ATOM     16  C   UNL     1      16.006   4.839  -2.235  0.00  0.00    +0.002 C 
ATOM     17  C   UNL     1      16.658   4.144  -1.043  0.00  0.00    +0.000 C 
ENDBRANCH   2   8
ENDBRANCH  18   9
TORSDOF 4
ENDMDL
