MODEL 1
REMARK VINA RESULT:      -7.2      0.000      0.000
REMARK  Name = 44716528
REMARK  9 active torsions:
REMARK  status: ('A' for Active; 'I' for Inactive)
REMARK    1  A    between atoms: O_3  and  C_22
REMARK    2  A    between atoms: O_3  and  C_35
REMARK    3  A    between atoms: N_6  and  C_13
REMARK    4  A    between atoms: N_6  and  C_23
REMARK    5  A    between atoms: N_8  and  C_33
REMARK    6  A    between atoms: C_11  and  C_19
REMARK    7  A    between atoms: C_15  and  C_22
REMARK    8  A    between atoms: C_23  and  C_28
REMARK    9  A    between atoms: C_28  and  C_33
REMARK                            x       y       z     vdW  Elec       q    Type
REMARK                         _______ _______ _______ _____ _____    ______ ____
ROOT
ATOM      5  N   UNL     1      11.262   7.434   4.934  0.00  0.00    -0.274 NA
ATOM      7  N   UNL     1      13.738   6.687   2.169  0.00  0.00    -0.356 N 
ATOM     10  C   UNL     1      12.328   7.878   3.962  0.00  0.00    +0.106 C 
ATOM     11  C   UNL     1      11.811   6.533   5.995  0.00  0.00    +0.090 C 
ATOM     12  C   UNL     1      13.570   8.452   4.655  0.00  0.00    +0.044 C 
ATOM     13  C   UNL     1      14.158   7.475   5.667  0.00  0.00    +0.057 C 
ATOM     14  C   UNL     1      13.074   7.119   6.679  0.00  0.00    +0.042 C 
ATOM     15  C   UNL     1      10.135   6.861   4.124  0.00  0.00    +0.172 C 
ATOM     16  C   UNL     1      12.633   6.784   2.968  0.00  0.00    +0.038 A 
ATOM     17  C   UNL     1      10.485   5.563   3.360  0.00  0.00    +0.068 C 
ATOM     18  C   UNL     1      11.795   5.727   2.669  0.00  0.00    -0.016 A 
ATOM     20  C   UNL     1      12.430   4.936   1.677  0.00  0.00    +0.003 A 
ATOM     21  C   UNL     1      13.647   5.559   1.381  0.00  0.00    +0.047 A 
ATOM     26  C   UNL     1      12.093   3.751   0.993  0.00  0.00    +0.010 A 
ATOM     27  C   UNL     1      14.542   5.051   0.432  0.00  0.00    +0.026 A 
ATOM     29  C   UNL     1      12.980   3.232   0.044  0.00  0.00    +0.001 A 
ATOM     32  C   UNL     1      14.186   3.874  -0.230  0.00  0.00    +0.002 A 
ATOM     40  H   UNL     1      14.514   7.335   2.156  0.00  0.00    +0.166 HD
ENDROOT
BRANCH  11  19
ATOM      1  F   UNL     1       9.385   3.300   8.762  0.00  0.00    -0.202 F 
ATOM      2  F   UNL     1       8.174   5.319  10.152  0.00  0.00    -0.202 F 
ATOM     19  C   UNL     1      10.829   6.205   7.117  0.00  0.00    -0.027 A 
ATOM     24  C   UNL     1      10.550   4.876   7.433  0.00  0.00    +0.046 A 
ATOM     25  C   UNL     1      10.210   7.236   7.826  0.00  0.00    +0.008 A 
ATOM     30  C   UNL     1       9.653   4.577   8.458  0.00  0.00    +0.159 A 
ATOM     31  C   UNL     1       9.314   6.936   8.851  0.00  0.00    +0.041 A 
ATOM     34  C   UNL     1       9.034   5.606   9.167  0.00  0.00    +0.158 A 
ENDBRANCH  11  19
BRANCH  15  22
ATOM      4  O   UNL     1       8.413   5.631   5.260  0.00  0.00    -0.249 OA
ATOM     22  C   UNL     1       8.896   6.708   4.943  0.00  0.00    +0.325 C 
BRANCH  22   3
ATOM      3  O   UNL     1       8.410   7.941   5.269  0.00  0.00    -0.467 OA
ATOM     35  C   UNL     1       7.923   8.719   4.173  0.00  0.00    +0.280 C 
ENDBRANCH  22   3
ENDBRANCH  15  22
BRANCH  13   6
ATOM      6  N   UNL     1      15.309   8.064   6.351  0.00  0.00    -0.313 NA
ATOM     39  H   UNL     1      16.161   7.576   6.074  0.00  0.00    +0.122 HD
BRANCH   6  23
ATOM     23  C   UNL     1      15.443   9.472   6.013  0.00  0.00    +0.083 C 
BRANCH  23  28
ATOM     28  C   UNL     1      16.918   9.848   5.885  0.00  0.00    +0.037 C 
BRANCH  28  33
ATOM     33  C   UNL     1      17.658   8.870   4.968  0.00  0.00    +0.124 C 
BRANCH  33   8
ATOM      8  N   UNL     1      18.990   8.465   5.545  0.00  0.00    -0.337 N 
ATOM      9  N   UNL     1      20.651   8.263   7.005  0.00  0.00    -0.244 NA
ATOM     36  C   UNL     1      19.958   7.737   4.913  0.00  0.00    +0.106 A 
ATOM     37  C   UNL     1      19.452   8.757   6.799  0.00  0.00    +0.199 A 
ATOM     38  C   UNL     1      20.973   7.627   5.833  0.00  0.00    +0.130 A 
ENDBRANCH  33   8
ENDBRANCH  28  33
ENDBRANCH  23  28
ENDBRANCH   6  23
ENDBRANCH  13   6
TORSDOF 8
ENDMDL
MODEL 2
REMARK VINA RESULT:      -6.9      3.930      6.663
REMARK  Name = 44716528
REMARK  9 active torsions:
REMARK  status: ('A' for Active; 'I' for Inactive)
REMARK    1  A    between atoms: O_3  and  C_22
REMARK    2  A    between atoms: O_3  and  C_35
REMARK    3  A    between atoms: N_6  and  C_13
REMARK    4  A    between atoms: N_6  and  C_23
REMARK    5  A    between atoms: N_8  and  C_33
REMARK    6  A    between atoms: C_11  and  C_19
REMARK    7  A    between atoms: C_15  and  C_22
REMARK    8  A    between atoms: C_23  and  C_28
REMARK    9  A    between atoms: C_28  and  C_33
REMARK                            x       y       z     vdW  Elec       q    Type
REMARK                         _______ _______ _______ _____ _____    ______ ____
ROOT
ATOM      5  N   UNL     1       9.989   8.532   3.873  0.00  0.00    -0.274 NA
ATOM      7  N   UNL     1       7.757   9.143   0.877  0.00  0.00    -0.356 N 
ATOM     10  C   UNL     1       9.803   8.823   2.404  0.00  0.00    +0.106 C 
ATOM     11  C   UNL     1       9.532   7.154   4.233  0.00  0.00    +0.090 C 
ATOM     12  C   UNL     1      10.396   7.737   1.497  0.00  0.00    +0.044 C 
ATOM     13  C   UNL     1       9.843   6.356   1.832  0.00  0.00    +0.057 C 
ATOM     14  C   UNL     1      10.127   6.066   3.302  0.00  0.00    +0.042 C 
ATOM     15  C   UNL     1       9.330   9.647   4.633  0.00  0.00    +0.172 C 
ATOM     16  C   UNL     1       8.362   9.152   2.103  0.00  0.00    +0.038 A 
ATOM     17  C   UNL     1       7.793   9.716   4.473  0.00  0.00    +0.068 C 
ATOM     18  C   UNL     1       7.433   9.576   3.034  0.00  0.00    -0.016 A 
ATOM     20  C   UNL     1       6.207   9.799   2.354  0.00  0.00    +0.003 A 
ATOM     21  C   UNL     1       6.437   9.520   1.004  0.00  0.00    +0.047 A 
ATOM     26  C   UNL     1       4.920  10.216   2.751  0.00  0.00    +0.010 A 
ATOM     27  C   UNL     1       5.439   9.639   0.029  0.00  0.00    +0.026 A 
ATOM     29  C   UNL     1       3.913  10.336   1.786  0.00  0.00    +0.001 A 
ATOM     32  C   UNL     1       4.170  10.051   0.447  0.00  0.00    +0.002 A 
ATOM     40  H   UNL     1       8.201   8.892   0.004  0.00  0.00    +0.166 HD
ENDROOT
BRANCH  11  19
ATOM      1  F   UNL     1      12.787   6.175   7.761  0.00  0.00    -0.202 F 
ATOM      2  F   UNL     1      10.780   5.578   9.519  0.00  0.00    -0.202 F 
ATOM     19  C   UNL     1       9.869   6.728   5.660  0.00  0.00    -0.027 A 
ATOM     24  C   UNL     1      11.200   6.645   6.066  0.00  0.00    +0.046 A 
ATOM     25  C   UNL     1       8.845   6.423   6.557  0.00  0.00    +0.008 A 
ATOM     30  C   UNL     1      11.508   6.256   7.370  0.00  0.00    +0.159 A 
ATOM     31  C   UNL     1       9.153   6.034   7.861  0.00  0.00    +0.041 A 
ATOM     34  C   UNL     1      10.485   5.950   8.268  0.00  0.00    +0.158 A 
ENDBRANCH  11  19
BRANCH  15  22
ATOM      4  O   UNL     1       8.966   9.510   7.003  0.00  0.00    -0.249 OA
ATOM     22  C   UNL     1       9.741   9.649   6.068  0.00  0.00    +0.325 C 
BRANCH  22   3
ATOM      3  O   UNL     1      11.091   9.824   6.155  0.00  0.00    -0.467 OA
ATOM     35  C   UNL     1      11.595  10.078   7.469  0.00  0.00    +0.280 C 
ENDBRANCH  22   3
ENDBRANCH  15  22
BRANCH  13   6
ATOM      6  N   UNL     1      10.460   5.331   0.990  0.00  0.00    -0.313 NA
ATOM     39  H   UNL     1       9.905   4.476   1.025  0.00  0.00    +0.122 HD
BRANCH   6  23
ATOM     23  C   UNL     1      10.542   5.781  -0.391  0.00  0.00    +0.083 C 
BRANCH  23  28
ATOM     28  C   UNL     1      11.795   5.216  -1.058  0.00  0.00    +0.037 C 
BRANCH  28  33
ATOM     33  C   UNL     1      12.072   3.786  -0.587  0.00  0.00    +0.124 C 
BRANCH  33   8
ATOM      8  N   UNL     1      13.374   3.689   0.166  0.00  0.00    -0.337 N 
ATOM      9  N   UNL     1      14.794   3.293   1.827  0.00  0.00    -0.244 NA
ATOM     36  C   UNL     1      14.613   4.010  -0.315  0.00  0.00    +0.106 A 
ATOM     37  C   UNL     1      13.534   3.264   1.455  0.00  0.00    +0.199 A 
ATOM     38  C   UNL     1      15.471   3.758   0.728  0.00  0.00    +0.130 A 
ENDBRANCH  33   8
ENDBRANCH  28  33
ENDBRANCH  23  28
ENDBRANCH   6  23
ENDBRANCH  13   6
TORSDOF 8
ENDMDL
MODEL 3
REMARK VINA RESULT:      -6.8     28.097     31.593
REMARK  Name = 44716528
REMARK  9 active torsions:
REMARK  status: ('A' for Active; 'I' for Inactive)
REMARK    1  A    between atoms: O_3  and  C_22
REMARK    2  A    between atoms: O_3  and  C_35
REMARK    3  A    between atoms: N_6  and  C_13
REMARK    4  A    between atoms: N_6  and  C_23
REMARK    5  A    between atoms: N_8  and  C_33
REMARK    6  A    between atoms: C_11  and  C_19
REMARK    7  A    between atoms: C_15  and  C_22
REMARK    8  A    between atoms: C_23  and  C_28
REMARK    9  A    between atoms: C_28  and  C_33
REMARK                            x       y       z     vdW  Elec       q    Type
REMARK                         _______ _______ _______ _____ _____    ______ ____
ROOT
ATOM      5  N   UNL     1     -10.803 -10.314  16.583  0.00  0.00    -0.274 NA
ATOM      7  N   UNL     1      -7.209  -9.690  15.571  0.00  0.00    -0.356 N 
ATOM     10  C   UNL     1      -9.771  -9.924  15.552  0.00  0.00    +0.106 C 
ATOM     11  C   UNL     1     -10.925  -9.291  17.668  0.00  0.00    +0.090 C 
ATOM     12  C   UNL     1      -9.965  -8.500  15.017  0.00  0.00    +0.044 C 
ATOM     13  C   UNL     1      -9.998  -7.471  16.142  0.00  0.00    +0.057 C 
ATOM     14  C   UNL     1     -11.109  -7.854  17.114  0.00  0.00    +0.042 C 
ATOM     15  C   UNL     1     -10.466 -11.703  17.043  0.00  0.00    +0.172 C 
ATOM     16  C   UNL     1      -8.378 -10.201  16.061  0.00  0.00    +0.038 A 
ATOM     17  C   UNL     1      -9.130 -11.822  17.813  0.00  0.00    +0.068 C 
ATOM     18  C   UNL     1      -8.065 -11.077  17.084  0.00  0.00    -0.016 A 
ATOM     20  C   UNL     1      -6.655 -11.071  17.245  0.00  0.00    +0.003 A 
ATOM     21  C   UNL     1      -6.142 -10.194  16.285  0.00  0.00    +0.047 A 
ATOM     26  C   UNL     1      -5.758 -11.728  18.110  0.00  0.00    +0.010 A 
ATOM     27  C   UNL     1      -4.771  -9.942  16.150  0.00  0.00    +0.026 A 
ATOM     29  C   UNL     1      -4.385 -11.484  17.987  0.00  0.00    +0.001 A 
ATOM     32  C   UNL     1      -3.902 -10.604  17.021  0.00  0.00    +0.002 A 
ATOM     40  H   UNL     1      -7.128  -9.036  14.804  0.00  0.00    +0.166 HD
ENDROOT
BRANCH  11  19
ATOM      1  F   UNL     1     -15.718  -9.675  18.607  0.00  0.00    -0.202 F 
ATOM      2  F   UNL     1     -15.214 -10.176  21.247  0.00  0.00    -0.202 F 
ATOM     19  C   UNL     1     -12.084  -9.530  18.634  0.00  0.00    -0.027 A 
ATOM     24  C   UNL     1     -13.398  -9.493  18.169  0.00  0.00    +0.046 A 
ATOM     25  C   UNL     1     -11.826  -9.786  19.981  0.00  0.00    +0.008 A 
ATOM     30  C   UNL     1     -14.455  -9.711  19.053  0.00  0.00    +0.159 A 
ATOM     31  C   UNL     1     -12.884 -10.004  20.864  0.00  0.00    +0.041 A 
ATOM     34  C   UNL     1     -14.199  -9.966  20.399  0.00  0.00    +0.158 A 
ENDBRANCH  11  19
BRANCH  15  22
ATOM      4  O   UNL     1     -12.731 -12.442  17.349  0.00  0.00    -0.249 OA
ATOM     22  C   UNL     1     -11.599 -12.319  17.796  0.00  0.00    +0.325 C 
BRANCH  22   3
ATOM      3  O   UNL     1     -11.168 -12.709  19.030  0.00  0.00    -0.467 OA
ATOM     35  C   UNL     1     -12.079 -13.530  19.767  0.00  0.00    +0.280 C 
ENDBRANCH  22   3
ENDBRANCH  15  22
BRANCH  13   6
ATOM      6  N   UNL     1     -10.236  -6.129  15.612  0.00  0.00    -0.313 NA
ATOM     39  H   UNL     1      -9.908  -6.075  14.647  0.00  0.00    +0.122 HD
BRANCH   6  23
ATOM     23  C   UNL     1     -11.654  -5.807  15.645  0.00  0.00    +0.083 C 
BRANCH  23  28
ATOM     28  C   UNL     1     -12.150  -5.459  14.242  0.00  0.00    +0.037 C 
BRANCH  28  33
ATOM     33  C   UNL     1     -13.624  -5.835  14.070  0.00  0.00    +0.124 C 
BRANCH  33   8
ATOM      8  N   UNL     1     -14.317  -4.937  13.078  0.00  0.00    -0.337 N 
ATOM      9  N   UNL     1     -15.759  -4.272  11.525  0.00  0.00    -0.244 NA
ATOM     36  C   UNL     1     -13.999  -3.637  12.804  0.00  0.00    +0.106 A 
ATOM     37  C   UNL     1     -15.379  -5.274  12.286  0.00  0.00    +0.199 A 
ATOM     38  C   UNL     1     -14.902  -3.249  11.843  0.00  0.00    +0.130 A 
ENDBRANCH  33   8
ENDBRANCH  28  33
ENDBRANCH  23  28
ENDBRANCH   6  23
ENDBRANCH  13   6
TORSDOF 8
ENDMDL
MODEL 4
REMARK VINA RESULT:      -6.7     26.581     30.425
REMARK  Name = 44716528
REMARK  9 active torsions:
REMARK  status: ('A' for Active; 'I' for Inactive)
REMARK    1  A    between atoms: O_3  and  C_22
REMARK    2  A    between atoms: O_3  and  C_35
REMARK    3  A    between atoms: N_6  and  C_13
REMARK    4  A    between atoms: N_6  and  C_23
REMARK    5  A    between atoms: N_8  and  C_33
REMARK    6  A    between atoms: C_11  and  C_19
REMARK    7  A    between atoms: C_15  and  C_22
REMARK    8  A    between atoms: C_23  and  C_28
REMARK    9  A    between atoms: C_28  and  C_33
REMARK                            x       y       z     vdW  Elec       q    Type
REMARK                         _______ _______ _______ _____ _____    ______ ____
ROOT
ATOM      5  N   UNL     1      -6.790 -10.166  16.841  0.00  0.00    -0.274 NA
ATOM      7  N   UNL     1      -9.686 -10.498  19.256  0.00  0.00    -0.356 N 
ATOM     10  C   UNL     1      -7.806  -9.554  17.774  0.00  0.00    +0.106 C 
ATOM     11  C   UNL     1      -7.430 -10.749  15.621  0.00  0.00    +0.090 C 
ATOM     12  C   UNL     1      -8.758  -8.579  17.070  0.00  0.00    +0.044 C 
ATOM     13  C   UNL     1      -9.461  -9.230  15.883  0.00  0.00    +0.057 C 
ATOM     14  C   UNL     1      -8.399  -9.758  14.925  0.00  0.00    +0.042 C 
ATOM     15  C   UNL     1      -5.962 -11.122  17.651  0.00  0.00    +0.172 C 
ATOM     16  C   UNL     1      -8.509 -10.624  18.574  0.00  0.00    +0.038 A 
ATOM     17  C   UNL     1      -6.735 -12.347  18.191  0.00  0.00    +0.068 C 
ATOM     18  C   UNL     1      -8.026 -11.902  18.787  0.00  0.00    -0.016 A 
ATOM     20  C   UNL     1      -8.964 -12.590  19.601  0.00  0.00    +0.003 A 
ATOM     21  C   UNL     1      -9.995 -11.688  19.880  0.00  0.00    +0.047 A 
ATOM     26  C   UNL     1      -9.039 -13.892  20.134  0.00  0.00    +0.010 A 
ATOM     27  C   UNL     1     -11.100 -12.028  20.670  0.00  0.00    +0.026 A 
ATOM     29  C   UNL     1     -10.140 -14.245  20.923  0.00  0.00    +0.001 A 
ATOM     32  C   UNL     1     -11.153 -13.326  21.185  0.00  0.00    +0.002 A 
ATOM     40  H   UNL     1     -10.256  -9.664  19.297  0.00  0.00    +0.166 HD
ENDROOT
BRANCH  11  19
ATOM      1  F   UNL     1      -3.905  -9.816  12.349  0.00  0.00    -0.202 F 
ATOM      2  F   UNL     1      -3.781 -12.457  11.651  0.00  0.00    -0.202 F 
ATOM     19  C   UNL     1      -6.445 -11.210  14.549  0.00  0.00    -0.027 A 
ATOM     24  C   UNL     1      -5.608 -10.284  13.926  0.00  0.00    +0.046 A 
ATOM     25  C   UNL     1      -6.382 -12.558  14.193  0.00  0.00    +0.008 A 
ATOM     30  C   UNL     1      -4.709 -10.706  12.947  0.00  0.00    +0.159 A 
ATOM     31  C   UNL     1      -5.481 -12.979  13.214  0.00  0.00    +0.041 A 
ATOM     34  C   UNL     1      -4.645 -12.052  12.591  0.00  0.00    +0.158 A 
ENDBRANCH  11  19
BRANCH  15  22
ATOM      4  O   UNL     1      -4.453 -12.672  16.609  0.00  0.00    -0.249 OA
ATOM     22  C   UNL     1      -4.721 -11.521  16.925  0.00  0.00    +0.325 C 
BRANCH  22   3
ATOM      3  O   UNL     1      -3.960 -10.416  16.679  0.00  0.00    -0.467 OA
ATOM     35  C   UNL     1      -2.657 -10.673  16.147  0.00  0.00    +0.280 C 
ENDBRANCH  22   3
ENDBRANCH  15  22
BRANCH  13   6
ATOM      6  N   UNL     1     -10.322  -8.268  15.198  0.00  0.00    -0.313 NA
ATOM     39  H   UNL     1     -11.300  -8.535  15.314  0.00  0.00    +0.122 HD
BRANCH   6  23
ATOM     23  C   UNL     1     -10.133  -6.931  15.740  0.00  0.00    +0.083 C 
BRANCH  23  28
ATOM     28  C   UNL     1     -11.432  -6.133  15.644  0.00  0.00    +0.037 C 
BRANCH  28  33
ATOM     33  C   UNL     1     -12.236  -6.536  14.405  0.00  0.00    +0.124 C 
BRANCH  33   8
ATOM      8  N   UNL     1     -12.893  -5.346  13.754  0.00  0.00    -0.337 N 
ATOM      9  N   UNL     1     -13.102  -3.405  12.696  0.00  0.00    -0.244 NA
ATOM     36  C   UNL     1     -14.236  -5.131  13.628  0.00  0.00    +0.106 A 
ATOM     37  C   UNL     1     -12.253  -4.283  13.179  0.00  0.00    +0.199 A 
ATOM     38  C   UNL     1     -14.340  -3.927  12.973  0.00  0.00    +0.130 A 
ENDBRANCH  33   8
ENDBRANCH  28  33
ENDBRANCH  23  28
ENDBRANCH   6  23
ENDBRANCH  13   6
TORSDOF 8
ENDMDL
MODEL 5
REMARK VINA RESULT:      -6.6     28.678     33.298
REMARK  Name = 44716528
REMARK  9 active torsions:
REMARK  status: ('A' for Active; 'I' for Inactive)
REMARK    1  A    between atoms: O_3  and  C_22
REMARK    2  A    between atoms: O_3  and  C_35
REMARK    3  A    between atoms: N_6  and  C_13
REMARK    4  A    between atoms: N_6  and  C_23
REMARK    5  A    between atoms: N_8  and  C_33
REMARK    6  A    between atoms: C_11  and  C_19
REMARK    7  A    between atoms: C_15  and  C_22
REMARK    8  A    between atoms: C_23  and  C_28
REMARK    9  A    between atoms: C_28  and  C_33
REMARK                            x       y       z     vdW  Elec       q    Type
REMARK                         _______ _______ _______ _____ _____    ______ ____
ROOT
ATOM      5  N   UNL     1     -14.289   9.765  21.751  0.00  0.00    -0.274 NA
ATOM      7  N   UNL     1     -14.583   9.881  25.524  0.00  0.00    -0.356 N 
ATOM     10  C   UNL     1     -15.122   9.825  23.008  0.00  0.00    +0.106 C 
ATOM     11  C   UNL     1     -13.584   8.453  21.607  0.00  0.00    +0.090 C 
ATOM     12  C   UNL     1     -16.057   8.619  23.166  0.00  0.00    +0.044 C 
ATOM     13  C   UNL     1     -15.296   7.299  23.103  0.00  0.00    +0.057 C 
ATOM     14  C   UNL     1     -14.537   7.243  21.781  0.00  0.00    +0.042 C 
ATOM     15  C   UNL     1     -13.400  10.976  21.751  0.00  0.00    +0.172 C 
ATOM     16  C   UNL     1     -14.252  10.085  24.213  0.00  0.00    +0.038 A 
ATOM     17  C   UNL     1     -12.343  11.000  22.879  0.00  0.00    +0.068 C 
ATOM     18  C   UNL     1     -12.985  10.636  24.174  0.00  0.00    -0.016 A 
ATOM     20  C   UNL     1     -12.513  10.737  25.509  0.00  0.00    +0.003 A 
ATOM     21  C   UNL     1     -13.533  10.256  26.335  0.00  0.00    +0.047 A 
ATOM     26  C   UNL     1     -11.319  11.194  26.102  0.00  0.00    +0.010 A 
ATOM     27  C   UNL     1     -13.415  10.211  27.730  0.00  0.00    +0.026 A 
ATOM     29  C   UNL     1     -11.188  11.152  27.495  0.00  0.00    +0.001 A 
ATOM     32  C   UNL     1     -12.221  10.667  28.294  0.00  0.00    +0.002 A 
ATOM     40  H   UNL     1     -15.460   9.503  25.857  0.00  0.00    +0.166 HD
ENDROOT
BRANCH  11  19
ATOM      1  F   UNL     1     -13.693   8.046  16.727  0.00  0.00    -0.202 F 
ATOM      2  F   UNL     1     -10.979   7.726  16.640  0.00  0.00    -0.202 F 
ATOM     19  C   UNL     1     -12.881   8.257  20.266  0.00  0.00    -0.027 A 
ATOM     24  C   UNL     1     -13.623   8.241  19.086  0.00  0.00    +0.046 A 
ATOM     25  C   UNL     1     -11.496   8.093  20.222  0.00  0.00    +0.008 A 
ATOM     30  C   UNL     1     -12.980   8.062  17.861  0.00  0.00    +0.159 A 
ATOM     31  C   UNL     1     -10.854   7.914  18.997  0.00  0.00    +0.041 A 
ATOM     34  C   UNL     1     -11.596   7.898  17.816  0.00  0.00    +0.158 A 
ENDBRANCH  11  19
BRANCH  15  22
ATOM      4  O   UNL     1     -11.584  11.183  20.193  0.00  0.00    -0.249 OA
ATOM     22  C   UNL     1     -12.787  11.204  20.409  0.00  0.00    +0.325 C 
BRANCH  22   3
ATOM      3  O   UNL     1     -13.771  11.431  19.491  0.00  0.00    -0.467 OA
ATOM     35  C   UNL     1     -13.320  11.818  18.190  0.00  0.00    +0.280 C 
ENDBRANCH  22   3
ENDBRANCH  15  22
BRANCH  13   6
ATOM      6  N   UNL     1     -16.214   6.165  23.203  0.00  0.00    -0.313 NA
ATOM     39  H   UNL     1     -16.974   6.275  22.532  0.00  0.00    +0.122 HD
BRANCH   6  23
ATOM     23  C   UNL     1     -15.521   4.916  22.926  0.00  0.00    +0.083 C 
BRANCH  23  28
ATOM     28  C   UNL     1     -15.183   4.197  24.231  0.00  0.00    +0.037 C 
BRANCH  28  33
ATOM     33  C   UNL     1     -16.448   3.915  25.047  0.00  0.00    +0.124 C 
BRANCH  33   8
ATOM      8  N   UNL     1     -16.943   2.507  24.839  0.00  0.00    -0.337 N 
ATOM      9  N   UNL     1     -17.186   0.320  25.142  0.00  0.00    -0.244 NA
ATOM     36  C   UNL     1     -17.836   2.094  23.891  0.00  0.00    +0.106 A 
ATOM     37  C   UNL     1     -16.582   1.406  25.566  0.00  0.00    +0.199 A 
ATOM     38  C   UNL     1     -17.969   0.742  24.097  0.00  0.00    +0.130 A 
ENDBRANCH  33   8
ENDBRANCH  28  33
ENDBRANCH  23  28
ENDBRANCH   6  23
ENDBRANCH  13   6
TORSDOF 8
ENDMDL
MODEL 6
REMARK VINA RESULT:      -6.5     24.974     29.463
REMARK  Name = 44716528
REMARK  9 active torsions:
REMARK  status: ('A' for Active; 'I' for Inactive)
REMARK    1  A    between atoms: O_3  and  C_22
REMARK    2  A    between atoms: O_3  and  C_35
REMARK    3  A    between atoms: N_6  and  C_13
REMARK    4  A    between atoms: N_6  and  C_23
REMARK    5  A    between atoms: N_8  and  C_33
REMARK    6  A    between atoms: C_11  and  C_19
REMARK    7  A    between atoms: C_15  and  C_22
REMARK    8  A    between atoms: C_23  and  C_28
REMARK    9  A    between atoms: C_28  and  C_33
REMARK                            x       y       z     vdW  Elec       q    Type
REMARK                         _______ _______ _______ _____ _____    ______ ____
ROOT
ATOM      5  N   UNL     1      -7.446 -11.690  14.830  0.00  0.00    -0.274 NA
ATOM      7  N   UNL     1      -7.269 -10.008  11.443  0.00  0.00    -0.356 N 
ATOM     10  C   UNL     1      -8.061 -11.340  13.497  0.00  0.00    +0.106 C 
ATOM     11  C   UNL     1      -7.278 -10.486  15.703  0.00  0.00    +0.090 C 
ATOM     12  C   UNL     1      -9.344 -10.509  13.627  0.00  0.00    +0.044 C 
ATOM     13  C   UNL     1      -9.118  -9.243  14.448  0.00  0.00    +0.057 C 
ATOM     14  C   UNL     1      -8.578  -9.647  15.816  0.00  0.00    +0.042 C 
ATOM     15  C   UNL     1      -6.188 -12.460  14.550  0.00  0.00    +0.172 C 
ATOM     16  C   UNL     1      -7.031 -10.735  12.576  0.00  0.00    +0.038 A 
ATOM     17  C   UNL     1      -5.077 -11.647  13.845  0.00  0.00    +0.068 C 
ATOM     18  C   UNL     1      -5.663 -10.878  12.711  0.00  0.00    -0.016 A 
ATOM     20  C   UNL     1      -5.045 -10.181  11.640  0.00  0.00    +0.003 A 
ATOM     21  C   UNL     1      -6.074  -9.644  10.860  0.00  0.00    +0.047 A 
ATOM     26  C   UNL     1      -3.710  -9.954  11.250  0.00  0.00    +0.010 A 
ATOM     27  C   UNL     1      -5.830  -8.890   9.706  0.00  0.00    +0.026 A 
ATOM     29  C   UNL     1      -3.452  -9.200  10.100  0.00  0.00    +0.001 A 
ATOM     32  C   UNL     1      -4.497  -8.676   9.342  0.00  0.00    +0.002 A 
ATOM     40  H   UNL     1      -8.182  -9.762  11.083  0.00  0.00    +0.166 HD
ENDROOT
BRANCH  11  19
ATOM      1  F   UNL     1      -8.128 -12.425  20.120  0.00  0.00    -0.202 F 
ATOM      2  F   UNL     1      -5.661 -11.638  20.998  0.00  0.00    -0.202 F 
ATOM     19  C   UNL     1      -6.842 -10.797  17.133  0.00  0.00    -0.027 A 
ATOM     24  C   UNL     1      -7.702 -11.483  17.990  0.00  0.00    +0.046 A 
ATOM     25  C   UNL     1      -5.583 -10.394  17.581  0.00  0.00    +0.008 A 
ATOM     30  C   UNL     1      -7.303 -11.767  19.296  0.00  0.00    +0.159 A 
ATOM     31  C   UNL     1      -5.185 -10.679  18.887  0.00  0.00    +0.041 A 
ATOM     34  C   UNL     1      -6.045 -11.365  19.745  0.00  0.00    +0.158 A 
ENDBRANCH  11  19
BRANCH  15  22
ATOM      4  O   UNL     1      -4.569 -12.976  16.247  0.00  0.00    -0.249 OA
ATOM     22  C   UNL     1      -5.684 -13.148  15.775  0.00  0.00    +0.325 C 
BRANCH  22   3
ATOM      3  O   UNL     1      -6.651 -13.976  16.264  0.00  0.00    -0.467 OA
ATOM     35  C   UNL     1      -6.531 -15.351  15.889  0.00  0.00    +0.280 C 
ENDBRANCH  22   3
ENDBRANCH  15  22
BRANCH  13   6
ATOM      6  N   UNL     1     -10.365  -8.494  14.602  0.00  0.00    -0.313 NA
ATOM     39  H   UNL     1     -11.094  -9.108  14.965  0.00  0.00    +0.122 HD
BRANCH   6  23
ATOM     23  C   UNL     1     -10.186  -7.382  15.523  0.00  0.00    +0.083 C 
BRANCH  23  28
ATOM     28  C   UNL     1     -11.347  -7.324  16.514  0.00  0.00    +0.037 C 
BRANCH  28  33
ATOM     33  C   UNL     1     -12.078  -8.668  16.586  0.00  0.00    +0.124 C 
BRANCH  33   8
ATOM      8  N   UNL     1     -11.952  -9.299  17.949  0.00  0.00    -0.337 N 
ATOM      9  N   UNL     1     -11.008 -10.088  19.797  0.00  0.00    -0.244 NA
ATOM     36  C   UNL     1     -12.978  -9.752  18.729  0.00  0.00    +0.106 A 
ATOM     37  C   UNL     1     -10.789  -9.522  18.633  0.00  0.00    +0.199 A 
ATOM     38  C   UNL     1     -12.371 -10.235  19.863  0.00  0.00    +0.130 A 
ENDBRANCH  33   8
ENDBRANCH  28  33
ENDBRANCH  23  28
ENDBRANCH   6  23
ENDBRANCH  13   6
TORSDOF 8
ENDMDL
MODEL 7
REMARK VINA RESULT:      -6.4     15.870     18.688
REMARK  Name = 44716528
REMARK  9 active torsions:
REMARK  status: ('A' for Active; 'I' for Inactive)
REMARK    1  A    between atoms: O_3  and  C_22
REMARK    2  A    between atoms: O_3  and  C_35
REMARK    3  A    between atoms: N_6  and  C_13
REMARK    4  A    between atoms: N_6  and  C_23
REMARK    5  A    between atoms: N_8  and  C_33
REMARK    6  A    between atoms: C_11  and  C_19
REMARK    7  A    between atoms: C_15  and  C_22
REMARK    8  A    between atoms: C_23  and  C_28
REMARK    9  A    between atoms: C_28  and  C_33
REMARK                            x       y       z     vdW  Elec       q    Type
REMARK                         _______ _______ _______ _____ _____    ______ ____
ROOT
ATOM      5  N   UNL     1      20.156  -8.515  -1.369  0.00  0.00    -0.274 NA
ATOM      7  N   UNL     1      16.710  -9.071  -2.834  0.00  0.00    -0.356 N 
ATOM     10  C   UNL     1      19.141  -9.396  -2.057  0.00  0.00    +0.106 C 
ATOM     11  C   UNL     1      19.768  -8.210   0.043  0.00  0.00    +0.090 C 
ATOM     12  C   UNL     1      18.787 -10.649  -1.246  0.00  0.00    +0.044 C 
ATOM     13  C   UNL     1      18.311 -10.299   0.160  0.00  0.00    +0.057 C 
ATOM     14  C   UNL     1      19.400  -9.483   0.848  0.00  0.00    +0.042 C 
ATOM     15  C   UNL     1      20.372  -7.318  -2.250  0.00  0.00    +0.172 C 
ATOM     16  C   UNL     1      17.942  -8.589  -2.491  0.00  0.00    +0.038 A 
ATOM     17  C   UNL     1      19.141  -6.395  -2.398  0.00  0.00    +0.068 C 
ATOM     18  C   UNL     1      17.928  -7.219  -2.667  0.00  0.00    -0.016 A 
ATOM     20  C   UNL     1      16.627  -6.849  -3.099  0.00  0.00    +0.003 A 
ATOM     21  C   UNL     1      15.883  -8.028  -3.195  0.00  0.00    +0.047 A 
ATOM     26  C   UNL     1      16.005  -5.627  -3.422  0.00  0.00    +0.010 A 
ATOM     27  C   UNL     1      14.543  -8.043  -3.600  0.00  0.00    +0.026 A 
ATOM     29  C   UNL     1      14.666  -5.627  -3.827  0.00  0.00    +0.001 A 
ATOM     32  C   UNL     1      13.948  -6.818  -3.914  0.00  0.00    +0.002 A 
ATOM     40  H   UNL     1      16.434 -10.044  -2.821  0.00  0.00    +0.166 HD
ENDROOT
BRANCH  11  19
ATOM      1  F   UNL     1      21.349  -4.311   2.552  0.00  0.00    -0.202 F 
ATOM      2  F   UNL     1      23.747  -5.532   3.040  0.00  0.00    -0.202 F 
ATOM     19  C   UNL     1      20.842  -7.486   0.852  0.00  0.00    -0.027 A 
ATOM     24  C   UNL     1      20.600  -6.204   1.342  0.00  0.00    +0.046 A 
ATOM     25  C   UNL     1      22.066  -8.109   1.100  0.00  0.00    +0.008 A 
ATOM     30  C   UNL     1      21.582  -5.543   2.081  0.00  0.00    +0.159 A 
ATOM     31  C   UNL     1      23.047  -7.448   1.840  0.00  0.00    +0.041 A 
ATOM     34  C   UNL     1      22.805  -6.165   2.330  0.00  0.00    +0.158 A 
ENDBRANCH  11  19
BRANCH  15  22
ATOM      4  O   UNL     1      22.703  -7.058  -1.730  0.00  0.00    -0.249 OA
ATOM     22  C   UNL     1      21.593  -6.558  -1.848  0.00  0.00    +0.325 C 
BRANCH  22   3
ATOM      3  O   UNL     1      21.268  -5.249  -1.643  0.00  0.00    -0.467 OA
ATOM     35  C   UNL     1      22.091  -4.298  -2.324  0.00  0.00    +0.280 C 
ENDBRANCH  22   3
ENDBRANCH  15  22
BRANCH  13   6
ATOM      6  N   UNL     1      18.029 -11.510   0.930  0.00  0.00    -0.313 NA
ATOM     39  H   UNL     1      17.863 -11.268   1.907  0.00  0.00    +0.122 HD
BRANCH   6  23
ATOM     23  C   UNL     1      16.852 -12.188   0.409  0.00  0.00    +0.083 C 
BRANCH  23  28
ATOM     28  C   UNL     1      15.661 -11.974   1.342  0.00  0.00    +0.037 C 
BRANCH  28  33
ATOM     33  C   UNL     1      15.221 -13.293   1.984  0.00  0.00    +0.124 C 
BRANCH  33   8
ATOM      8  N   UNL     1      15.572 -13.345   3.448  0.00  0.00    -0.337 N 
ATOM      9  N   UNL     1      16.135 -14.186   5.425  0.00  0.00    -0.244 NA
ATOM     36  C   UNL     1      15.651 -12.279   4.300  0.00  0.00    +0.106 A 
ATOM     37  C   UNL     1      15.872 -14.468   4.169  0.00  0.00    +0.199 A 
ATOM     38  C   UNL     1      15.999 -12.824   5.513  0.00  0.00    +0.130 A 
ENDBRANCH  33   8
ENDBRANCH  28  33
ENDBRANCH  23  28
ENDBRANCH   6  23
ENDBRANCH  13   6
TORSDOF 8
ENDMDL
MODEL 8
REMARK VINA RESULT:      -6.4     24.829     29.065
REMARK  Name = 44716528
REMARK  9 active torsions:
REMARK  status: ('A' for Active; 'I' for Inactive)
REMARK    1  A    between atoms: O_3  and  C_22
REMARK    2  A    between atoms: O_3  and  C_35
REMARK    3  A    between atoms: N_6  and  C_13
REMARK    4  A    between atoms: N_6  and  C_23
REMARK    5  A    between atoms: N_8  and  C_33
REMARK    6  A    between atoms: C_11  and  C_19
REMARK    7  A    between atoms: C_15  and  C_22
REMARK    8  A    between atoms: C_23  and  C_28
REMARK    9  A    between atoms: C_28  and  C_33
REMARK                            x       y       z     vdW  Elec       q    Type
REMARK                         _______ _______ _______ _____ _____    ______ ____
ROOT
ATOM      5  N   UNL     1      -7.253 -11.831  14.725  0.00  0.00    -0.274 NA
ATOM      7  N   UNL     1      -7.001 -10.210  11.313  0.00  0.00    -0.356 N 
ATOM     10  C   UNL     1      -7.827 -11.531  13.361  0.00  0.00    +0.106 C 
ATOM     11  C   UNL     1      -7.164 -10.606  15.578  0.00  0.00    +0.090 C 
ATOM     12  C   UNL     1      -9.142 -10.744  13.423  0.00  0.00    +0.044 C 
ATOM     13  C   UNL     1      -8.995  -9.456  14.227  0.00  0.00    +0.057 C 
ATOM     14  C   UNL     1      -8.496  -9.813  15.623  0.00  0.00    +0.042 C 
ATOM     15  C   UNL     1      -5.959 -12.561  14.509  0.00  0.00    +0.172 C 
ATOM     16  C   UNL     1      -6.783 -10.906  12.469  0.00  0.00    +0.038 A 
ATOM     17  C   UNL     1      -4.850 -11.722  13.832  0.00  0.00    +0.068 C 
ATOM     18  C   UNL     1      -5.417 -10.996  12.661  0.00  0.00    -0.016 A 
ATOM     20  C   UNL     1      -4.782 -10.298  11.601  0.00  0.00    +0.003 A 
ATOM     21  C   UNL     1      -5.797  -9.815  10.770  0.00  0.00    +0.047 A 
ATOM     26  C   UNL     1      -3.441 -10.030  11.259  0.00  0.00    +0.010 A 
ATOM     27  C   UNL     1      -5.534  -9.074   9.611  0.00  0.00    +0.026 A 
ATOM     29  C   UNL     1      -3.165  -9.289  10.104  0.00  0.00    +0.001 A 
ATOM     32  C   UNL     1      -4.197  -8.819   9.295  0.00  0.00    +0.002 A 
ATOM     40  H   UNL     1      -7.907 -10.005  10.912  0.00  0.00    +0.166 HD
ENDROOT
BRANCH  11  19
ATOM      1  F   UNL     1      -8.095 -12.537  19.982  0.00  0.00    -0.202 F 
ATOM      2  F   UNL     1      -5.720 -11.596  20.955  0.00  0.00    -0.202 F 
ATOM     19  C   UNL     1      -6.774 -10.873  17.030  0.00  0.00    -0.027 A 
ATOM     24  C   UNL     1      -7.630 -11.597  17.859  0.00  0.00    +0.046 A 
ATOM     25  C   UNL     1      -5.562 -10.392  17.526  0.00  0.00    +0.008 A 
ATOM     30  C   UNL     1      -7.274 -11.841  19.185  0.00  0.00    +0.159 A 
ATOM     31  C   UNL     1      -5.206 -10.637  18.853  0.00  0.00    +0.041 A 
ATOM     34  C   UNL     1      -6.062 -11.361  19.683  0.00  0.00    +0.158 A 
ENDBRANCH  11  19
BRANCH  15  22
ATOM      4  O   UNL     1      -4.408 -12.954  16.301  0.00  0.00    -0.249 OA
ATOM     22  C   UNL     1      -5.479 -13.206  15.768  0.00  0.00    +0.325 C 
BRANCH  22   3
ATOM      3  O   UNL     1      -6.414 -14.097  16.208  0.00  0.00    -0.467 OA
ATOM     35  C   UNL     1      -6.396 -15.374  15.565  0.00  0.00    +0.280 C 
ENDBRANCH  22   3
ENDBRANCH  15  22
BRANCH  13   6
ATOM      6  N   UNL     1     -10.273  -8.750  14.316  0.00  0.00    -0.313 NA
ATOM     39  H   UNL     1     -11.038  -9.424  14.346  0.00  0.00    +0.122 HD
BRANCH   6  23
ATOM     23  C   UNL     1     -10.323  -7.928  15.515  0.00  0.00    +0.083 C 
BRANCH  23  28
ATOM     28  C   UNL     1     -11.773  -7.611  15.879  0.00  0.00    +0.037 C 
BRANCH  28  33
ATOM     33  C   UNL     1     -12.032  -6.103  15.846  0.00  0.00    +0.124 C 
BRANCH  33   8
ATOM      8  N   UNL     1     -12.804  -5.696  14.617  0.00  0.00    -0.337 N 
ATOM      9  N   UNL     1     -14.495  -5.505  13.191  0.00  0.00    -0.244 NA
ATOM     36  C   UNL     1     -12.332  -4.950  13.575  0.00  0.00    +0.106 A 
ATOM     37  C   UNL     1     -14.108  -6.005  14.342  0.00  0.00    +0.199 A 
ATOM     38  C   UNL     1     -13.393  -4.846  12.707  0.00  0.00    +0.130 A 
ENDBRANCH  33   8
ENDBRANCH  28  33
ENDBRANCH  23  28
ENDBRANCH   6  23
ENDBRANCH  13   6
TORSDOF 8
ENDMDL
MODEL 9
REMARK VINA RESULT:      -6.3     28.235     32.959
REMARK  Name = 44716528
REMARK  9 active torsions:
REMARK  status: ('A' for Active; 'I' for Inactive)
REMARK    1  A    between atoms: O_3  and  C_22
REMARK    2  A    between atoms: O_3  and  C_35
REMARK    3  A    between atoms: N_6  and  C_13
REMARK    4  A    between atoms: N_6  and  C_23
REMARK    5  A    between atoms: N_8  and  C_33
REMARK    6  A    between atoms: C_11  and  C_19
REMARK    7  A    between atoms: C_15  and  C_22
REMARK    8  A    between atoms: C_23  and  C_28
REMARK    9  A    between atoms: C_28  and  C_33
REMARK                            x       y       z     vdW  Elec       q    Type
REMARK                         _______ _______ _______ _____ _____    ______ ____
ROOT
ATOM      5  N   UNL     1     -14.276   9.725  21.061  0.00  0.00    -0.274 NA
ATOM      7  N   UNL     1     -14.396   9.639  24.844  0.00  0.00    -0.356 N 
ATOM     10  C   UNL     1     -15.044   9.594  22.354  0.00  0.00    +0.106 C 
ATOM     11  C   UNL     1     -13.372   8.556  20.826  0.00  0.00    +0.090 C 
ATOM     12  C   UNL     1     -15.758   8.244  22.495  0.00  0.00    +0.044 C 
ATOM     13  C   UNL     1     -14.793   7.073  22.336  0.00  0.00    +0.057 C 
ATOM     14  C   UNL     1     -14.103   7.197  20.982  0.00  0.00    +0.042 C 
ATOM     15  C   UNL     1     -13.601  11.066  21.081  0.00  0.00    +0.172 C 
ATOM     16  C   UNL     1     -14.169   9.948  23.532  0.00  0.00    +0.038 A 
ATOM     17  C   UNL     1     -12.507  11.222  22.163  0.00  0.00    +0.068 C 
ATOM     18  C   UNL     1     -13.015  10.705  23.465  0.00  0.00    -0.016 A 
ATOM     20  C   UNL     1     -12.500  10.830  24.782  0.00  0.00    +0.003 A 
ATOM     21  C   UNL     1     -13.384  10.153  25.627  0.00  0.00    +0.047 A 
ATOM     26  C   UNL     1     -11.370  11.456  25.345  0.00  0.00    +0.010 A 
ATOM     27  C   UNL     1     -13.190  10.072  27.012  0.00  0.00    +0.026 A 
ATOM     29  C   UNL     1     -11.163  11.381  26.727  0.00  0.00    +0.001 A 
ATOM     32  C   UNL     1     -12.061  10.699  27.546  0.00  0.00    +0.002 A 
ATOM     40  H   UNL     1     -15.181   9.108  25.197  0.00  0.00    +0.166 HD
ENDROOT
BRANCH  11  19
ATOM      1  F   UNL     1      -9.421   8.918  17.953  0.00  0.00    -0.202 F 
ATOM      2  F   UNL     1     -10.936   8.469  15.722  0.00  0.00    -0.202 F 
ATOM     19  C   UNL     1     -12.714   8.533  19.448  0.00  0.00    -0.027 A 
ATOM     24  C   UNL     1     -11.341   8.740  19.328  0.00  0.00    +0.046 A 
ATOM     25  C   UNL     1     -13.488   8.305  18.309  0.00  0.00    +0.008 A 
ATOM     30  C   UNL     1     -10.740   8.719  18.069  0.00  0.00    +0.159 A 
ATOM     31  C   UNL     1     -12.887   8.283  17.051  0.00  0.00    +0.041 A 
ATOM     34  C   UNL     1     -11.513   8.491  16.931  0.00  0.00    +0.158 A 
ENDBRANCH  11  19
BRANCH  15  22
ATOM      4  O   UNL     1     -13.793  11.448  18.718  0.00  0.00    -0.249 OA
ATOM     22  C   UNL     1     -13.102  11.446  19.726  0.00  0.00    +0.325 C 
BRANCH  22   3
ATOM      3  O   UNL     1     -11.782  11.783  19.804  0.00  0.00    -0.467 OA
ATOM     35  C   UNL     1     -11.231  12.383  18.629  0.00  0.00    +0.280 C 
ENDBRANCH  22   3
ENDBRANCH  15  22
BRANCH  13   6
ATOM      6  N   UNL     1     -15.505   5.798  22.422  0.00  0.00    -0.313 NA
ATOM     39  H   UNL     1     -15.288   5.226  21.605  0.00  0.00    +0.122 HD
BRANCH   6  23
ATOM     23  C   UNL     1     -15.115   5.071  23.620  0.00  0.00    +0.083 C 
BRANCH  23  28
ATOM     28  C   UNL     1     -16.280   4.224  24.128  0.00  0.00    +0.037 C 
BRANCH  28  33
ATOM     33  C   UNL     1     -15.818   3.242  25.208  0.00  0.00    +0.124 C 
BRANCH  33   8
ATOM      8  N   UNL     1     -16.237   3.689  26.585  0.00  0.00    -0.337 N 
ATOM      9  N   UNL     1     -16.400   3.733  28.799  0.00  0.00    -0.244 NA
ATOM     36  C   UNL     1     -17.053   4.745  26.879  0.00  0.00    +0.106 A 
ATOM     37  C   UNL     1     -15.870   3.113  27.769  0.00  0.00    +0.199 A 
ATOM     38  C   UNL     1     -17.139   4.751  28.251  0.00  0.00    +0.130 A 
ENDBRANCH  33   8
ENDBRANCH  28  33
ENDBRANCH  23  28
ENDBRANCH   6  23
ENDBRANCH  13   6
TORSDOF 8
ENDMDL
MODEL 10
REMARK VINA RESULT:      -6.3     23.016     26.195
REMARK  Name = 44716528
REMARK  9 active torsions:
REMARK  status: ('A' for Active; 'I' for Inactive)
REMARK    1  A    between atoms: O_3  and  C_22
REMARK    2  A    between atoms: O_3  and  C_35
REMARK    3  A    between atoms: N_6  and  C_13
REMARK    4  A    between atoms: N_6  and  C_23
REMARK    5  A    between atoms: N_8  and  C_33
REMARK    6  A    between atoms: C_11  and  C_19
REMARK    7  A    between atoms: C_15  and  C_22
REMARK    8  A    between atoms: C_23  and  C_28
REMARK    9  A    between atoms: C_28  and  C_33
REMARK                            x       y       z     vdW  Elec       q    Type
REMARK                         _______ _______ _______ _____ _____    ______ ____
ROOT
ATOM      5  N   UNL     1      18.587  -5.928  25.754  0.00  0.00    -0.274 NA
ATOM      7  N   UNL     1      17.308  -8.682  28.016  0.00  0.00    -0.356 N 
ATOM     10  C   UNL     1      18.756  -6.847  26.939  0.00  0.00    +0.106 C 
ATOM     11  C   UNL     1      17.509  -4.915  25.980  0.00  0.00    +0.090 C 
ATOM     12  C   UNL     1      18.908  -6.093  28.266  0.00  0.00    +0.044 C 
ATOM     13  C   UNL     1      17.749  -5.133  28.509  0.00  0.00    +0.057 C 
ATOM     14  C   UNL     1      17.667  -4.169  27.330  0.00  0.00    +0.042 C 
ATOM     15  C   UNL     1      18.408  -6.796  24.542  0.00  0.00    +0.172 C 
ATOM     16  C   UNL     1      17.677  -7.902  26.955  0.00  0.00    +0.038 A 
ATOM     17  C   UNL     1      17.108  -7.634  24.533  0.00  0.00    +0.068 C 
ATOM     18  C   UNL     1      16.925  -8.285  25.861  0.00  0.00    -0.016 A 
ATOM     20  C   UNL     1      16.039  -9.312  26.281  0.00  0.00    +0.003 A 
ATOM     21  C   UNL     1      16.300  -9.542  27.635  0.00  0.00    +0.047 A 
ATOM     26  C   UNL     1      15.042 -10.076  25.644  0.00  0.00    +0.010 A 
ATOM     27  C   UNL     1      15.608 -10.502  28.384  0.00  0.00    +0.026 A 
ATOM     29  C   UNL     1      14.341 -11.038  26.381  0.00  0.00    +0.001 A 
ATOM     32  C   UNL     1      14.621 -11.245  27.730  0.00  0.00    +0.002 A 
ATOM     40  H   UNL     1      17.705  -8.637  28.945  0.00  0.00    +0.166 HD
ENDROOT
BRANCH  11  19
ATOM      1  F   UNL     1      15.049  -2.584  22.443  0.00  0.00    -0.202 F 
ATOM      2  F   UNL     1      17.172  -0.922  21.989  0.00  0.00    -0.202 F 
ATOM     19  C   UNL     1      17.418  -3.837  24.902  0.00  0.00    -0.027 A 
ATOM     24  C   UNL     1      16.251  -3.700  24.150  0.00  0.00    +0.046 A 
ATOM     25  C   UNL     1      18.502  -2.989  24.670  0.00  0.00    +0.008 A 
ATOM     30  C   UNL     1      16.169  -2.715  23.166  0.00  0.00    +0.159 A 
ATOM     31  C   UNL     1      18.418  -2.005  23.686  0.00  0.00    +0.041 A 
ATOM     34  C   UNL     1      17.251  -1.868  22.934  0.00  0.00    +0.158 A 
ENDBRANCH  11  19
BRANCH  15  22
ATOM      4  O   UNL     1      17.714  -5.913  22.419  0.00  0.00    -0.249 OA
ATOM     22  C   UNL     1      18.576  -6.015  23.281  0.00  0.00    +0.325 C 
BRANCH  22   3
ATOM      3  O   UNL     1      19.818  -5.451  23.255  0.00  0.00    -0.467 OA
ATOM     35  C   UNL     1      20.883  -6.327  22.875  0.00  0.00    +0.280 C 
ENDBRANCH  22   3
ENDBRANCH  15  22
BRANCH  13   6
ATOM      6  N   UNL     1      17.942  -4.389  29.753  0.00  0.00    -0.313 NA
ATOM     39  H   UNL     1      18.936  -4.342  29.977  0.00  0.00    +0.122 HD
BRANCH   6  23
ATOM     23  C   UNL     1      17.425  -3.035  29.628  0.00  0.00    +0.083 C 
BRANCH  23  28
ATOM     28  C   UNL     1      16.166  -2.868  30.477  0.00  0.00    +0.037 C 
BRANCH  28  33
ATOM     33  C   UNL     1      16.051  -3.987  31.516  0.00  0.00    +0.124 C 
BRANCH  33   8
ATOM      8  N   UNL     1      14.783  -4.783  31.340  0.00  0.00    -0.337 N 
ATOM      9  N   UNL     1      12.712  -5.503  31.691  0.00  0.00    -0.244 NA
ATOM     36  C   UNL     1      14.558  -5.748  30.399  0.00  0.00    +0.106 A 
ATOM     37  C   UNL     1      13.646  -4.671  32.091  0.00  0.00    +0.199 A 
ATOM     38  C   UNL     1      13.274  -6.178  30.636  0.00  0.00    +0.130 A 
ENDBRANCH  33   8
ENDBRANCH  28  33
ENDBRANCH  23  28
ENDBRANCH   6  23
ENDBRANCH  13   6
TORSDOF 8
ENDMDL
