MODEL 1
REMARK VINA RESULT:      -6.4      0.000      0.000
REMARK  Name = 26763474
REMARK  10 active torsions:
REMARK  status: ('A' for Active; 'I' for Inactive)
REMARK    1  A    between atoms: S_1  and  N_9
REMARK    2  A    between atoms: S_1  and  C_23
REMARK    3  A    between atoms: N_9  and  C_14
REMARK    4  A    between atoms: N_10  and  C_22
REMARK    5  A    between atoms: N_11  and  C_29
REMARK    6  A    between atoms: C_16  and  C_19
REMARK    7  A    between atoms: C_20  and  C_21
REMARK    8  A    between atoms: C_22  and  C_25
REMARK    9  A    between atoms: C_22  and  C_28
REMARK   10  A    between atoms: C_26  and  C_32
REMARK                            x       y       z     vdW  Elec       q    Type
REMARK                         _______ _______ _______ _____ _____    ______ ____
ROOT
ATOM      4  O   UNL     1       8.330   7.717   4.025  0.00  0.00    -0.268 OA
ATOM      8  N   UNL     1      10.029   6.444   3.029  0.00  0.00    -0.285 N 
ATOM     14  C   UNL     1      11.045   5.041   0.689  0.00  0.00    +0.080 C 
ATOM     15  C   UNL     1      11.355   4.533   2.098  0.00  0.00    +0.052 C 
ATOM     16  C   UNL     1      11.245   5.624   3.166  0.00  0.00    +0.164 C 
ATOM     17  C   UNL     1       9.708   5.776   0.664  0.00  0.00    +0.039 C 
ATOM     18  C   UNL     1       9.700   6.913   1.678  0.00  0.00    +0.110 C 
ATOM     20  C   UNL     1       9.268   6.924   4.104  0.00  0.00    +0.265 C 
ENDROOT
BRANCH  20  21
ATOM     11  N   UNL     1      10.301   7.147   6.388  0.00  0.00    -0.262 N 
ATOM     12  N   UNL     1      10.467   6.488   7.546  0.00  0.00    -0.176 NA
ATOM     21  C   UNL     1       9.596   6.448   5.452  0.00  0.00    +0.123 A 
ATOM     24  C   UNL     1       9.278   5.249   6.041  0.00  0.00    +0.057 A 
ATOM     26  C   UNL     1       9.839   5.329   7.329  0.00  0.00    +0.061 A 
ATOM     29  C   UNL     1      10.858   8.472   6.243  0.00  0.00    +0.173 C 
ATOM     32  C   UNL     1       9.798   4.308   8.390  0.00  0.00    +0.067 C 
ENDBRANCH  20  21
BRANCH  16  19
ATOM      3  O   UNL     1      12.698   7.211   2.127  0.00  0.00    -0.274 OA
ATOM     10  N   UNL     1      13.103   6.589   4.333  0.00  0.00    -0.303 N 
ATOM     19  C   UNL     1      12.413   6.567   3.132  0.00  0.00    +0.234 C 
ATOM     34  H   UNL     1      12.744   6.053   5.119  0.00  0.00    +0.149 HD
BRANCH  10  22
ATOM     22  C   UNL     1      14.280   7.397   4.554  0.00  0.00    +0.156 C 
ATOM     25  C   UNL     1      15.439   6.925   3.692  0.00  0.00    +0.038 C 
BRANCH  22  28
ATOM      7  O   UNL     1      15.542   7.973   6.548  0.00  0.00    -0.274 OA
ATOM     13  N   UNL     1      13.800   6.488   6.742  0.00  0.00    -0.328 N 
ATOM     28  C   UNL     1      14.635   7.326   6.031  0.00  0.00    +0.231 C 
ATOM     35  H   UNL     1      13.040   5.976   6.306  0.00  0.00    +0.145 HD
ATOM     36  H   UNL     1      13.919   6.359   7.741  0.00  0.00    +0.145 HD
ENDBRANCH  22  28
ENDBRANCH  10  22
ENDBRANCH  16  19
BRANCH  14   9
ATOM      9  N   UNL     1      10.990   3.893  -0.249  0.00  0.00    -0.186 NA
ATOM     33  H   UNL     1      10.587   3.026   0.129  0.00  0.00    +0.148 HD
BRANCH   9   1
ATOM      1  S   UNL     1      12.108   3.786  -1.521  0.00  0.00    +0.065 S 
ATOM      5  O   UNL     1      11.770   4.759  -2.544  0.00  0.00    -0.153 OA
ATOM      6  O   UNL     1      12.286   2.391  -1.872  0.00  0.00    -0.153 OA
BRANCH   1  23
ATOM      2  S   UNL     1      14.162   5.858  -1.233  0.00  0.00    -0.077 S 
ATOM     23  C   UNL     1      13.602   4.317  -0.739  0.00  0.00    +0.142 A 
ATOM     27  C   UNL     1      14.429   3.743   0.202  0.00  0.00    +0.036 A 
ATOM     30  C   UNL     1      15.536   4.581   0.522  0.00  0.00    +0.010 A 
ATOM     31  C   UNL     1      15.514   5.762  -0.187  0.00  0.00    +0.047 A 
ENDBRANCH   1  23
ENDBRANCH   9   1
ENDBRANCH  14   9
TORSDOF 7
ENDMDL
MODEL 2
REMARK VINA RESULT:      -6.3      1.815      2.547
REMARK  Name = 26763474
REMARK  10 active torsions:
REMARK  status: ('A' for Active; 'I' for Inactive)
REMARK    1  A    between atoms: S_1  and  N_9
REMARK    2  A    between atoms: S_1  and  C_23
REMARK    3  A    between atoms: N_9  and  C_14
REMARK    4  A    between atoms: N_10  and  C_22
REMARK    5  A    between atoms: N_11  and  C_29
REMARK    6  A    between atoms: C_16  and  C_19
REMARK    7  A    between atoms: C_20  and  C_21
REMARK    8  A    between atoms: C_22  and  C_25
REMARK    9  A    between atoms: C_22  and  C_28
REMARK   10  A    between atoms: C_26  and  C_32
REMARK                            x       y       z     vdW  Elec       q    Type
REMARK                         _______ _______ _______ _____ _____    ______ ____
ROOT
ATOM      4  O   UNL     1       8.280   7.846   4.331  0.00  0.00    -0.268 OA
ATOM      8  N   UNL     1       9.994   6.574   3.360  0.00  0.00    -0.285 N 
ATOM     14  C   UNL     1      11.033   5.148   1.043  0.00  0.00    +0.080 C 
ATOM     15  C   UNL     1      11.340   4.662   2.460  0.00  0.00    +0.052 C 
ATOM     16  C   UNL     1      11.216   5.766   3.513  0.00  0.00    +0.164 C 
ATOM     17  C   UNL     1       9.689   5.872   1.002  0.00  0.00    +0.039 C 
ATOM     18  C   UNL     1       9.667   7.022   2.001  0.00  0.00    +0.110 C 
ATOM     20  C   UNL     1       9.224   7.062   4.424  0.00  0.00    +0.265 C 
ENDROOT
BRANCH  20  21
ATOM     11  N   UNL     1      10.309   7.291   6.684  0.00  0.00    -0.262 N 
ATOM     12  N   UNL     1      10.458   6.656   7.858  0.00  0.00    -0.176 NA
ATOM     21  C   UNL     1       9.549   6.607   5.781  0.00  0.00    +0.123 A 
ATOM     24  C   UNL     1       9.176   5.444   6.409  0.00  0.00    +0.057 A 
ATOM     26  C   UNL     1       9.764   5.528   7.685  0.00  0.00    +0.061 A 
ATOM     29  C   UNL     1      10.936   8.578   6.492  0.00  0.00    +0.173 C 
ATOM     32  C   UNL     1       9.685   4.542   8.776  0.00  0.00    +0.067 C 
ENDBRANCH  20  21
BRANCH  16  19
ATOM      3  O   UNL     1      12.581   7.451   2.510  0.00  0.00    -0.274 OA
ATOM     10  N   UNL     1      13.159   6.638   4.613  0.00  0.00    -0.303 N 
ATOM     19  C   UNL     1      12.376   6.717   3.473  0.00  0.00    +0.234 C 
ATOM     34  H   UNL     1      12.864   6.031   5.374  0.00  0.00    +0.149 HD
BRANCH  10  22
ATOM     22  C   UNL     1      14.349   7.433   4.813  0.00  0.00    +0.156 C 
ATOM     25  C   UNL     1      15.470   6.983   3.890  0.00  0.00    +0.038 C 
BRANCH  22  28
ATOM      7  O   UNL     1      15.744   7.873   6.752  0.00  0.00    -0.274 OA
ATOM     13  N   UNL     1      13.891   6.539   7.011  0.00  0.00    -0.328 N 
ATOM     28  C   UNL     1      14.762   7.312   6.271  0.00  0.00    +0.231 C 
ATOM     35  H   UNL     1      13.072   6.098   6.605  0.00  0.00    +0.145 HD
ATOM     36  H   UNL     1      14.044   6.386   8.002  0.00  0.00    +0.145 HD
ENDBRANCH  22  28
ENDBRANCH  10  22
ENDBRANCH  16  19
BRANCH  14   9
ATOM      9  N   UNL     1      10.991   3.988   0.121  0.00  0.00    -0.186 NA
ATOM     33  H   UNL     1      10.727   3.089   0.544  0.00  0.00    +0.148 HD
BRANCH   9   1
ATOM      1  S   UNL     1      11.961   3.980  -1.272  0.00  0.00    +0.065 S 
ATOM      5  O   UNL     1      12.941   2.914  -1.172  0.00  0.00    -0.153 OA
ATOM      6  O   UNL     1      12.387   5.337  -1.553  0.00  0.00    -0.153 OA
BRANCH   1  23
ATOM      2  S   UNL     1       9.778   4.809  -3.043  0.00  0.00    -0.077 S 
ATOM     23  C   UNL     1      10.796   3.534  -2.525  0.00  0.00    +0.142 A 
ATOM     27  C   UNL     1      10.528   2.356  -3.186  0.00  0.00    +0.036 A 
ATOM     30  C   UNL     1       9.473   2.502  -4.132  0.00  0.00    +0.010 A 
ATOM     31  C   UNL     1       8.974   3.786  -4.157  0.00  0.00    +0.047 A 
ENDBRANCH   1  23
ENDBRANCH   9   1
ENDBRANCH  14   9
TORSDOF 7
ENDMDL
MODEL 3
REMARK VINA RESULT:      -6.1      1.959      2.396
REMARK  Name = 26763474
REMARK  10 active torsions:
REMARK  status: ('A' for Active; 'I' for Inactive)
REMARK    1  A    between atoms: S_1  and  N_9
REMARK    2  A    between atoms: S_1  and  C_23
REMARK    3  A    between atoms: N_9  and  C_14
REMARK    4  A    between atoms: N_10  and  C_22
REMARK    5  A    between atoms: N_11  and  C_29
REMARK    6  A    between atoms: C_16  and  C_19
REMARK    7  A    between atoms: C_20  and  C_21
REMARK    8  A    between atoms: C_22  and  C_25
REMARK    9  A    between atoms: C_22  and  C_28
REMARK   10  A    between atoms: C_26  and  C_32
REMARK                            x       y       z     vdW  Elec       q    Type
REMARK                         _______ _______ _______ _____ _____    ______ ____
ROOT
ATOM      4  O   UNL     1       7.879   7.893   4.932  0.00  0.00    -0.268 OA
ATOM      8  N   UNL     1       9.814   6.866   4.095  0.00  0.00    -0.285 N 
ATOM     14  C   UNL     1      11.246   5.716   1.836  0.00  0.00    +0.080 C 
ATOM     15  C   UNL     1      11.445   5.164   3.248  0.00  0.00    +0.052 C 
ATOM     16  C   UNL     1      11.090   6.173   4.342  0.00  0.00    +0.164 C 
ATOM     17  C   UNL     1       9.846   6.305   1.681  0.00  0.00    +0.039 C 
ATOM     18  C   UNL     1       9.593   7.374   2.736  0.00  0.00    +0.110 C 
ATOM     20  C   UNL     1       8.884   7.200   5.089  0.00  0.00    +0.265 C 
ENDROOT
BRANCH  20  21
ATOM     11  N   UNL     1       9.309   7.448   7.558  0.00  0.00    -0.262 N 
ATOM     12  N   UNL     1       9.486   6.733   8.681  0.00  0.00    -0.176 NA
ATOM     21  C   UNL     1       9.105   6.685   6.445  0.00  0.00    +0.123 A 
ATOM     24  C   UNL     1       9.152   5.380   6.871  0.00  0.00    +0.057 A 
ATOM     26  C   UNL     1       9.389   5.470   8.256  0.00  0.00    +0.061 A 
ATOM     29  C   UNL     1       9.348   8.891   7.625  0.00  0.00    +0.173 C 
ATOM     32  C   UNL     1       9.531   4.362   9.215  0.00  0.00    +0.067 C 
ENDBRANCH  20  21
BRANCH  16  19
ATOM      3  O   UNL     1      12.077   8.091   5.371  0.00  0.00    -0.274 OA
ATOM     10  N   UNL     1      13.133   7.130   3.533  0.00  0.00    -0.303 N 
ATOM     19  C   UNL     1      12.141   7.235   4.493  0.00  0.00    +0.234 C 
ATOM     34  H   UNL     1      13.114   6.347   2.885  0.00  0.00    +0.149 HD
BRANCH  10  22
ATOM     22  C   UNL     1      14.248   8.045   3.444  0.00  0.00    +0.156 C 
ATOM     25  C   UNL     1      14.245   8.787   2.118  0.00  0.00    +0.038 C 
BRANCH  22  28
ATOM      7  O   UNL     1      16.556   7.703   4.123  0.00  0.00    -0.274 OA
ATOM     13  N   UNL     1      15.412   5.941   3.194  0.00  0.00    -0.328 N 
ATOM     28  C   UNL     1      15.532   7.248   3.620  0.00  0.00    +0.231 C 
ATOM     35  H   UNL     1      14.553   5.572   2.799  0.00  0.00    +0.145 HD
ATOM     36  H   UNL     1      16.192   5.296   3.266  0.00  0.00    +0.145 HD
ENDBRANCH  22  28
ENDBRANCH  10  22
ENDBRANCH  16  19
BRANCH  14   9
ATOM      9  N   UNL     1      11.429   4.624   0.849  0.00  0.00    -0.186 NA
ATOM     33  H   UNL     1      10.617   4.010   0.705  0.00  0.00    +0.148 HD
BRANCH   9   1
ATOM      1  S   UNL     1      12.982   4.009   0.547  0.00  0.00    +0.065 S 
ATOM      5  O   UNL     1      13.165   2.774   1.288  0.00  0.00    -0.153 OA
ATOM      6  O   UNL     1      13.945   5.085   0.676  0.00  0.00    -0.153 OA
BRANCH   1  23
ATOM      2  S   UNL     1      13.801   4.623  -2.199  0.00  0.00    -0.077 S 
ATOM     23  C   UNL     1      12.886   3.604  -1.171  0.00  0.00    +0.142 A 
ATOM     27  C   UNL     1      12.220   2.625  -1.873  0.00  0.00    +0.036 A 
ATOM     30  C   UNL     1      12.464   2.711  -3.274  0.00  0.00    +0.010 A 
ATOM     31  C   UNL     1      13.308   3.754  -3.590  0.00  0.00    +0.047 A 
ENDBRANCH   1  23
ENDBRANCH   9   1
ENDBRANCH  14   9
TORSDOF 7
ENDMDL
MODEL 4
REMARK VINA RESULT:      -6.1     24.267     28.066
REMARK  Name = 26763474
REMARK  10 active torsions:
REMARK  status: ('A' for Active; 'I' for Inactive)
REMARK    1  A    between atoms: S_1  and  N_9
REMARK    2  A    between atoms: S_1  and  C_23
REMARK    3  A    between atoms: N_9  and  C_14
REMARK    4  A    between atoms: N_10  and  C_22
REMARK    5  A    between atoms: N_11  and  C_29
REMARK    6  A    between atoms: C_16  and  C_19
REMARK    7  A    between atoms: C_20  and  C_21
REMARK    8  A    between atoms: C_22  and  C_25
REMARK    9  A    between atoms: C_22  and  C_28
REMARK   10  A    between atoms: C_26  and  C_32
REMARK                            x       y       z     vdW  Elec       q    Type
REMARK                         _______ _______ _______ _____ _____    ______ ____
ROOT
ATOM      4  O   UNL     1     -10.586  14.913  16.956  0.00  0.00    -0.268 OA
ATOM      8  N   UNL     1     -10.580  12.578  17.165  0.00  0.00    -0.285 N 
ATOM     14  C   UNL     1     -11.362  10.208  18.666  0.00  0.00    +0.080 C 
ATOM     15  C   UNL     1     -10.044  10.241  17.892  0.00  0.00    +0.052 C 
ATOM     16  C   UNL     1     -10.039  11.269  16.758  0.00  0.00    +0.164 C 
ATOM     17  C   UNL     1     -11.751  11.611  19.125  0.00  0.00    +0.039 C 
ATOM     18  C   UNL     1     -11.829  12.563  17.937  0.00  0.00    +0.110 C 
ATOM     20  C   UNL     1     -10.075  13.814  16.741  0.00  0.00    +0.265 C 
ENDROOT
BRANCH  20  21
ATOM     11  N   UNL     1      -8.725  13.984  14.623  0.00  0.00    -0.262 N 
ATOM     12  N   UNL     1      -7.462  13.957  14.165  0.00  0.00    -0.176 NA
ATOM     21  C   UNL     1      -8.824  13.825  15.975  0.00  0.00    +0.123 A 
ATOM     24  C   UNL     1      -7.536  13.686  16.431  0.00  0.00    +0.057 A 
ATOM     26  C   UNL     1      -6.740  13.775  15.274  0.00  0.00    +0.061 A 
ATOM     29  C   UNL     1      -9.812  14.169  13.690  0.00  0.00    +0.173 C 
ATOM     32  C   UNL     1      -5.273  13.689  15.186  0.00  0.00    +0.067 C 
ENDBRANCH  20  21
BRANCH  16  19
ATOM      3  O   UNL     1     -11.621  11.563  14.991  0.00  0.00    -0.274 OA
ATOM     10  N   UNL     1     -10.620   9.480  15.273  0.00  0.00    -0.303 N 
ATOM     19  C   UNL     1     -10.846  10.812  15.578  0.00  0.00    +0.234 C 
ATOM     34  H   UNL     1      -9.914   8.967  15.794  0.00  0.00    +0.149 HD
BRANCH  10  22
ATOM     22  C   UNL     1     -11.291   8.791  14.194  0.00  0.00    +0.156 C 
ATOM     25  C   UNL     1     -12.654   8.282  14.632  0.00  0.00    +0.038 C 
BRANCH  22  28
ATOM      7  O   UNL     1      -9.965   7.530  12.596  0.00  0.00    -0.274 OA
ATOM     13  N   UNL     1     -10.099   6.764  14.758  0.00  0.00    -0.328 N 
ATOM     28  C   UNL     1     -10.402   7.643  13.739  0.00  0.00    +0.231 C 
ATOM     35  H   UNL     1     -10.450   6.882  15.703  0.00  0.00    +0.145 HD
ATOM     36  H   UNL     1      -9.504   5.960  14.592  0.00  0.00    +0.145 HD
ENDBRANCH  22  28
ENDBRANCH  10  22
ENDBRANCH  16  19
BRANCH  14   9
ATOM      9  N   UNL     1     -11.217   9.330  19.852  0.00  0.00    -0.186 NA
ATOM     33  H   UNL     1     -10.458   9.576  20.501  0.00  0.00    +0.148 HD
BRANCH   9   1
ATOM      1  S   UNL     1     -11.734   7.715  19.776  0.00  0.00    +0.065 S 
ATOM      5  O   UNL     1     -11.272   7.003  20.953  0.00  0.00    -0.153 OA
ATOM      6  O   UNL     1     -11.451   7.195  18.452  0.00  0.00    -0.153 OA
BRANCH   1  23
ATOM      2  S   UNL     1     -14.059   8.322  21.453  0.00  0.00    -0.077 S 
ATOM     23  C   UNL     1     -13.489   7.888  19.898  0.00  0.00    +0.142 A 
ATOM     27  C   UNL     1     -14.516   7.745  18.991  0.00  0.00    +0.036 A 
ATOM     30  C   UNL     1     -15.788   7.996  19.581  0.00  0.00    +0.010 A 
ATOM     31  C   UNL     1     -15.685   8.321  20.916  0.00  0.00    +0.047 A 
ENDBRANCH   1  23
ENDBRANCH   9   1
ENDBRANCH  14   9
TORSDOF 7
ENDMDL
MODEL 5
REMARK VINA RESULT:      -6.1      4.159      6.071
REMARK  Name = 26763474
REMARK  10 active torsions:
REMARK  status: ('A' for Active; 'I' for Inactive)
REMARK    1  A    between atoms: S_1  and  N_9
REMARK    2  A    between atoms: S_1  and  C_23
REMARK    3  A    between atoms: N_9  and  C_14
REMARK    4  A    between atoms: N_10  and  C_22
REMARK    5  A    between atoms: N_11  and  C_29
REMARK    6  A    between atoms: C_16  and  C_19
REMARK    7  A    between atoms: C_20  and  C_21
REMARK    8  A    between atoms: C_22  and  C_25
REMARK    9  A    between atoms: C_22  and  C_28
REMARK   10  A    between atoms: C_26  and  C_32
REMARK                            x       y       z     vdW  Elec       q    Type
REMARK                         _______ _______ _______ _____ _____    ______ ____
ROOT
ATOM      4  O   UNL     1      10.172   6.496   4.342  0.00  0.00    -0.268 OA
ATOM      8  N   UNL     1      12.047   7.498   5.332  0.00  0.00    -0.285 N 
ATOM     14  C   UNL     1      14.860   8.231   5.165  0.00  0.00    +0.080 C 
ATOM     15  C   UNL     1      14.231   7.852   6.507  0.00  0.00    +0.052 C 
ATOM     16  C   UNL     1      12.712   8.037   6.531  0.00  0.00    +0.164 C 
ATOM     17  C   UNL     1      14.148   7.519   4.017  0.00  0.00    +0.039 C 
ATOM     18  C   UNL     1      12.656   7.825   4.037  0.00  0.00    +0.110 C 
ATOM     20  C   UNL     1      10.811   6.836   5.337  0.00  0.00    +0.265 C 
ENDROOT
BRANCH  20  21
ATOM     11  N   UNL     1       9.295   7.269   7.300  0.00  0.00    -0.262 N 
ATOM     12  N   UNL     1       8.898   6.742   8.470  0.00  0.00    -0.176 NA
ATOM     21  C   UNL     1      10.208   6.505   6.633  0.00  0.00    +0.123 A 
ATOM     24  C   UNL     1      10.421   5.402   7.423  0.00  0.00    +0.057 A 
ATOM     26  C   UNL     1       9.589   5.601   8.540  0.00  0.00    +0.061 A 
ATOM     29  C   UNL     1       8.748   8.536   6.873  0.00  0.00    +0.173 C 
ATOM     32  C   UNL     1       9.425   4.717   9.706  0.00  0.00    +0.067 C 
ENDBRANCH  20  21
BRANCH  16  19
ATOM      3  O   UNL     1      11.772  10.074   5.707  0.00  0.00    -0.274 OA
ATOM     10  N   UNL     1      12.670  10.035   7.854  0.00  0.00    -0.303 N 
ATOM     19  C   UNL     1      12.321   9.483   6.633  0.00  0.00    +0.234 C 
ATOM     34  H   UNL     1      13.074   9.436   8.570  0.00  0.00    +0.149 HD
BRANCH  10  22
ATOM     22  C   UNL     1      12.425  11.417   8.197  0.00  0.00    +0.156 C 
ATOM     25  C   UNL     1      13.709  12.229   8.154  0.00  0.00    +0.038 C 
BRANCH  22  28
ATOM      7  O   UNL     1      12.402  11.817  10.593  0.00  0.00    -0.274 OA
ATOM     13  N   UNL     1      10.470  11.094   9.582  0.00  0.00    -0.328 N 
ATOM     28  C   UNL     1      11.800  11.459   9.583  0.00  0.00    +0.231 C 
ATOM     35  H   UNL     1       9.980  10.820   8.736  0.00  0.00    +0.145 HD
ATOM     36  H   UNL     1       9.930  11.090  10.441  0.00  0.00    +0.145 HD
ENDBRANCH  22  28
ENDBRANCH  10  22
ENDBRANCH  16  19
BRANCH  14   9
ATOM      9  N   UNL     1      16.292   7.847   5.165  0.00  0.00    -0.186 NA
ATOM     33  H   UNL     1      16.630   7.378   6.015  0.00  0.00    +0.148 HD
BRANCH   9   1
ATOM      1  S   UNL     1      17.400   8.715   4.217  0.00  0.00    +0.065 S 
ATOM      5  O   UNL     1      17.244  10.136   4.470  0.00  0.00    -0.153 OA
ATOM      6  O   UNL     1      17.354   8.208   2.860  0.00  0.00    -0.153 OA
BRANCH   1  23
ATOM      2  S   UNL     1      19.235   8.754   6.502  0.00  0.00    -0.077 S 
ATOM     23  C   UNL     1      18.947   8.206   4.906  0.00  0.00    +0.142 A 
ATOM     27  C   UNL     1      19.990   7.448   4.422  0.00  0.00    +0.036 A 
ATOM     30  C   UNL     1      21.040   7.314   5.376  0.00  0.00    +0.010 A 
ATOM     31  C   UNL     1      20.760   7.976   6.552  0.00  0.00    +0.047 A 
ENDBRANCH   1  23
ENDBRANCH   9   1
ENDBRANCH  14   9
TORSDOF 7
ENDMDL
MODEL 6
REMARK VINA RESULT:      -6.1      4.054      7.946
REMARK  Name = 26763474
REMARK  10 active torsions:
REMARK  status: ('A' for Active; 'I' for Inactive)
REMARK    1  A    between atoms: S_1  and  N_9
REMARK    2  A    between atoms: S_1  and  C_23
REMARK    3  A    between atoms: N_9  and  C_14
REMARK    4  A    between atoms: N_10  and  C_22
REMARK    5  A    between atoms: N_11  and  C_29
REMARK    6  A    between atoms: C_16  and  C_19
REMARK    7  A    between atoms: C_20  and  C_21
REMARK    8  A    between atoms: C_22  and  C_25
REMARK    9  A    between atoms: C_22  and  C_28
REMARK   10  A    between atoms: C_26  and  C_32
REMARK                            x       y       z     vdW  Elec       q    Type
REMARK                         _______ _______ _______ _____ _____    ______ ____
ROOT
ATOM      4  O   UNL     1      17.779  10.875   4.053  0.00  0.00    -0.268 OA
ATOM      8  N   UNL     1      16.233   9.143   4.385  0.00  0.00    -0.285 N 
ATOM     14  C   UNL     1      13.718   8.235   5.536  0.00  0.00    +0.080 C 
ATOM     15  C   UNL     1      14.909   7.282   5.413  0.00  0.00    +0.052 C 
ATOM     16  C   UNL     1      15.908   7.707   4.334  0.00  0.00    +0.164 C 
ATOM     17  C   UNL     1      14.197   9.676   5.693  0.00  0.00    +0.039 C 
ATOM     18  C   UNL     1      15.105  10.070   4.535  0.00  0.00    +0.110 C 
ATOM     20  C   UNL     1      17.507   9.679   4.149  0.00  0.00    +0.265 C 
ENDROOT
BRANCH  20  21
ATOM     11  N   UNL     1      19.151   8.310   2.822  0.00  0.00    -0.262 N 
ATOM     12  N   UNL     1      20.184   7.463   2.963  0.00  0.00    -0.176 NA
ATOM     21  C   UNL     1      18.634   8.750   4.005  0.00  0.00    +0.123 A 
ATOM     24  C   UNL     1      19.381   8.148   4.988  0.00  0.00    +0.057 A 
ATOM     26  C   UNL     1      20.320   7.367   4.289  0.00  0.00    +0.061 A 
ATOM     29  C   UNL     1      18.702   8.663   1.495  0.00  0.00    +0.173 C 
ATOM     32  C   UNL     1      21.372   6.508   4.856  0.00  0.00    +0.067 C 
ENDBRANCH  20  21
BRANCH  16  19
ATOM      3  O   UNL     1      15.267   8.312   2.113  0.00  0.00    -0.274 OA
ATOM     10  N   UNL     1      15.096   6.085   2.768  0.00  0.00    -0.303 N 
ATOM     19  C   UNL     1      15.400   7.424   2.950  0.00  0.00    +0.234 C 
ATOM     34  H   UNL     1      15.298   5.426   3.515  0.00  0.00    +0.149 HD
BRANCH  10  22
ATOM     22  C   UNL     1      14.569   5.555   1.531  0.00  0.00    +0.156 C 
ATOM     25  C   UNL     1      13.066   5.346   1.622  0.00  0.00    +0.038 C 
BRANCH  22  28
ATOM      7  O   UNL     1      15.720   3.944   0.125  0.00  0.00    -0.274 OA
ATOM     13  N   UNL     1      15.430   3.449   2.349  0.00  0.00    -0.328 N 
ATOM     28  C   UNL     1      15.283   4.246   1.233  0.00  0.00    +0.231 C 
ATOM     35  H   UNL     1      15.082   3.721   3.263  0.00  0.00    +0.145 HD
ATOM     36  H   UNL     1      15.900   2.553   2.291  0.00  0.00    +0.145 HD
ENDBRANCH  22  28
ENDBRANCH  10  22
ENDBRANCH  16  19
BRANCH  14   9
ATOM      9  N   UNL     1      12.905   7.858   6.717  0.00  0.00    -0.186 NA
ATOM     33  H   UNL     1      13.328   7.168   7.351  0.00  0.00    +0.148 HD
BRANCH   9   1
ATOM      1  S   UNL     1      11.213   7.974   6.650  0.00  0.00    +0.065 S 
ATOM      5  O   UNL     1      10.838   9.097   5.811  0.00  0.00    -0.153 OA
ATOM      6  O   UNL     1      10.683   7.860   7.995  0.00  0.00    -0.153 OA
BRANCH   1  23
ATOM      2  S   UNL     1       9.862   5.374   6.718  0.00  0.00    -0.077 S 
ATOM     23  C   UNL     1      10.779   6.488   5.797  0.00  0.00    +0.142 A 
ATOM     27  C   UNL     1      11.027   6.026   4.523  0.00  0.00    +0.036 A 
ATOM     30  C   UNL     1      10.455   4.740   4.300  0.00  0.00    +0.010 A 
ATOM     31  C   UNL     1       9.793   4.268   5.412  0.00  0.00    +0.047 A 
ENDBRANCH   1  23
ENDBRANCH   9   1
ENDBRANCH  14   9
TORSDOF 7
ENDMDL
MODEL 7
REMARK VINA RESULT:      -6.0      2.244      3.524
REMARK  Name = 26763474
REMARK  10 active torsions:
REMARK  status: ('A' for Active; 'I' for Inactive)
REMARK    1  A    between atoms: S_1  and  N_9
REMARK    2  A    between atoms: S_1  and  C_23
REMARK    3  A    between atoms: N_9  and  C_14
REMARK    4  A    between atoms: N_10  and  C_22
REMARK    5  A    between atoms: N_11  and  C_29
REMARK    6  A    between atoms: C_16  and  C_19
REMARK    7  A    between atoms: C_20  and  C_21
REMARK    8  A    between atoms: C_22  and  C_25
REMARK    9  A    between atoms: C_22  and  C_28
REMARK   10  A    between atoms: C_26  and  C_32
REMARK                            x       y       z     vdW  Elec       q    Type
REMARK                         _______ _______ _______ _____ _____    ______ ____
ROOT
ATOM      4  O   UNL     1       9.057   8.355   4.732  0.00  0.00    -0.268 OA
ATOM      8  N   UNL     1      10.158   6.734   3.445  0.00  0.00    -0.285 N 
ATOM     14  C   UNL     1      10.476   5.373   0.891  0.00  0.00    +0.080 C 
ATOM     15  C   UNL     1      10.703   4.626   2.206  0.00  0.00    +0.052 C 
ATOM     16  C   UNL     1      11.041   5.556   3.374  0.00  0.00    +0.164 C 
ATOM     17  C   UNL     1       9.459   6.496   1.079  0.00  0.00    +0.039 C 
ATOM     18  C   UNL     1       9.904   7.444   2.186  0.00  0.00    +0.110 C 
ATOM     20  C   UNL     1       9.681   7.300   4.636  0.00  0.00    +0.265 C 
ENDROOT
BRANCH  20  21
ATOM     11  N   UNL     1      10.828   6.959   6.850  0.00  0.00    -0.262 N 
ATOM     12  N   UNL     1      10.867   6.132   7.908  0.00  0.00    -0.176 NA
ATOM     21  C   UNL     1       9.932   6.584   5.892  0.00  0.00    +0.123 A 
ATOM     24  C   UNL     1       9.346   5.433   6.356  0.00  0.00    +0.057 A 
ATOM     26  C   UNL     1       9.960   5.202   7.601  0.00  0.00    +0.061 A 
ATOM     29  C   UNL     1      11.695   8.114   6.823  0.00  0.00    +0.173 C 
ATOM     32  C   UNL     1       9.705   4.092   8.535  0.00  0.00    +0.067 C 
ENDBRANCH  20  21
BRANCH  16  19
ATOM      3  O   UNL     1      12.843   6.993   4.005  0.00  0.00    -0.274 OA
ATOM     10  N   UNL     1      13.199   5.403   2.343  0.00  0.00    -0.303 N 
ATOM     19  C   UNL     1      12.449   6.070   3.297  0.00  0.00    +0.234 C 
ATOM     34  H   UNL     1      12.785   4.616   1.851  0.00  0.00    +0.149 HD
BRANCH  10  22
ATOM     22  C   UNL     1      14.579   5.722   2.057  0.00  0.00    +0.156 C 
ATOM     25  C   UNL     1      14.685   6.943   1.158  0.00  0.00    +0.038 C 
BRANCH  22  28
ATOM      7  O   UNL     1      15.630   4.492   0.245  0.00  0.00    -0.274 OA
ATOM     13  N   UNL     1      15.339   3.436   2.264  0.00  0.00    -0.328 N 
ATOM     28  C   UNL     1      15.221   4.508   1.404  0.00  0.00    +0.231 C 
ATOM     35  H   UNL     1      15.016   3.471   3.226  0.00  0.00    +0.145 HD
ATOM     36  H   UNL     1      15.761   2.566   1.959  0.00  0.00    +0.145 HD
ENDBRANCH  22  28
ENDBRANCH  10  22
ENDBRANCH  16  19
BRANCH  14   9
ATOM      9  N   UNL     1       9.974   4.426  -0.134  0.00  0.00    -0.186 NA
ATOM     33  H   UNL     1       9.457   3.612   0.223  0.00  0.00    +0.148 HD
BRANCH   9   1
ATOM      1  S   UNL     1      10.771   4.295  -1.627  0.00  0.00    +0.065 S 
ATOM      5  O   UNL     1      10.760   2.911  -2.061  0.00  0.00    -0.153 OA
ATOM      6  O   UNL     1      12.021   5.027  -1.555  0.00  0.00    -0.153 OA
BRANCH   1  23
ATOM      2  S   UNL     1      10.156   5.206  -4.344  0.00  0.00    -0.077 S 
ATOM     23  C   UNL     1       9.698   5.209  -2.694  0.00  0.00    +0.142 A 
ATOM     27  C   UNL     1       8.549   5.937  -2.477  0.00  0.00    +0.036 A 
ATOM     30  C   UNL     1       8.037   6.500  -3.682  0.00  0.00    +0.010 A 
ATOM     31  C   UNL     1       8.815   6.180  -4.774  0.00  0.00    +0.047 A 
ENDBRANCH   1  23
ENDBRANCH   9   1
ENDBRANCH  14   9
TORSDOF 7
ENDMDL
MODEL 8
REMARK VINA RESULT:      -5.9     24.068     25.854
REMARK  Name = 26763474
REMARK  10 active torsions:
REMARK  status: ('A' for Active; 'I' for Inactive)
REMARK    1  A    between atoms: S_1  and  N_9
REMARK    2  A    between atoms: S_1  and  C_23
REMARK    3  A    between atoms: N_9  and  C_14
REMARK    4  A    between atoms: N_10  and  C_22
REMARK    5  A    between atoms: N_11  and  C_29
REMARK    6  A    between atoms: C_16  and  C_19
REMARK    7  A    between atoms: C_20  and  C_21
REMARK    8  A    between atoms: C_22  and  C_25
REMARK    9  A    between atoms: C_22  and  C_28
REMARK   10  A    between atoms: C_26  and  C_32
REMARK                            x       y       z     vdW  Elec       q    Type
REMARK                         _______ _______ _______ _____ _____    ______ ____
ROOT
ATOM      4  O   UNL     1      -3.342 -12.930  11.433  0.00  0.00    -0.268 OA
ATOM      8  N   UNL     1      -4.751 -11.056  11.396  0.00  0.00    -0.285 N 
ATOM     14  C   UNL     1      -6.280  -9.118   9.852  0.00  0.00    +0.080 C 
ATOM     15  C   UNL     1      -5.616  -8.716  11.170  0.00  0.00    +0.052 C 
ATOM     16  C   UNL     1      -5.350  -9.906  12.095  0.00  0.00    +0.164 C 
ATOM     17  C   UNL     1      -5.498 -10.243   9.177  0.00  0.00    +0.039 C 
ATOM     18  C   UNL     1      -5.356 -11.436  10.114  0.00  0.00    +0.110 C 
ATOM     20  C   UNL     1      -3.762 -11.890  11.937  0.00  0.00    +0.265 C 
ENDROOT
BRANCH  20  21
ATOM     11  N   UNL     1      -3.582 -11.907  14.448  0.00  0.00    -0.262 N 
ATOM     12  N   UNL     1      -2.853 -11.412  15.463  0.00  0.00    -0.176 NA
ATOM     21  C   UNL     1      -3.155 -11.504  13.216  0.00  0.00    +0.123 A 
ATOM     24  C   UNL     1      -2.073 -10.689  13.442  0.00  0.00    +0.057 A 
ATOM     26  C   UNL     1      -1.933 -10.669  14.842  0.00  0.00    +0.061 A 
ATOM     29  C   UNL     1      -4.697 -12.779  14.737  0.00  0.00    +0.173 C 
ATOM     32  C   UNL     1      -0.924  -9.945  15.633  0.00  0.00    +0.067 C 
ENDBRANCH  20  21
BRANCH  16  19
ATOM      3  O   UNL     1      -7.278 -11.306  12.269  0.00  0.00    -0.274 OA
ATOM     10  N   UNL     1      -6.894  -9.709  13.918  0.00  0.00    -0.303 N 
ATOM     19  C   UNL     1      -6.605 -10.401  12.753  0.00  0.00    +0.234 C 
ATOM     34  H   UNL     1      -6.235  -9.012  14.254  0.00  0.00    +0.149 HD
BRANCH  10  22
ATOM     22  C   UNL     1      -8.060  -9.976  14.729  0.00  0.00    +0.156 C 
ATOM     25  C   UNL     1      -9.263  -9.191  14.234  0.00  0.00    +0.038 C 
BRANCH  22  28
ATOM      7  O   UNL     1      -8.552  -9.625  17.081  0.00  0.00    -0.274 OA
ATOM     13  N   UNL     1      -6.394  -9.319  16.353  0.00  0.00    -0.328 N 
ATOM     28  C   UNL     1      -7.729  -9.616  16.169  0.00  0.00    +0.231 C 
ATOM     35  H   UNL     1      -5.722  -9.335  15.594  0.00  0.00    +0.145 HD
ATOM     36  H   UNL     1      -6.038  -9.073  17.270  0.00  0.00    +0.145 HD
ENDBRANCH  22  28
ENDBRANCH  10  22
ENDBRANCH  16  19
BRANCH  14   9
ATOM      9  N   UNL     1      -6.329  -7.945   8.946  0.00  0.00    -0.186 NA
ATOM     33  H   UNL     1      -5.575  -7.256   9.064  0.00  0.00    +0.148 HD
BRANCH   9   1
ATOM      1  S   UNL     1      -7.816  -7.427   8.315  0.00  0.00    +0.065 S 
ATOM      5  O   UNL     1      -7.811  -5.981   8.189  0.00  0.00    -0.153 OA
ATOM      6  O   UNL     1      -8.887  -8.092   9.033  0.00  0.00    -0.153 OA
BRANCH   1  23
ATOM      2  S   UNL     1      -8.952  -7.475   5.613  0.00  0.00    -0.077 S 
ATOM     23  C   UNL     1      -7.782  -8.115   6.687  0.00  0.00    +0.142 A 
ATOM     27  C   UNL     1      -6.998  -9.075   6.086  0.00  0.00    +0.036 A 
ATOM     30  C   UNL     1      -7.363  -9.288   4.725  0.00  0.00    +0.010 A 
ATOM     31  C   UNL     1      -8.412  -8.482   4.338  0.00  0.00    +0.047 A 
ENDBRANCH   1  23
ENDBRANCH   9   1
ENDBRANCH  14   9
TORSDOF 7
ENDMDL
MODEL 9
REMARK VINA RESULT:      -5.9      4.403      7.087
REMARK  Name = 26763474
REMARK  10 active torsions:
REMARK  status: ('A' for Active; 'I' for Inactive)
REMARK    1  A    between atoms: S_1  and  N_9
REMARK    2  A    between atoms: S_1  and  C_23
REMARK    3  A    between atoms: N_9  and  C_14
REMARK    4  A    between atoms: N_10  and  C_22
REMARK    5  A    between atoms: N_11  and  C_29
REMARK    6  A    between atoms: C_16  and  C_19
REMARK    7  A    between atoms: C_20  and  C_21
REMARK    8  A    between atoms: C_22  and  C_25
REMARK    9  A    between atoms: C_22  and  C_28
REMARK   10  A    between atoms: C_26  and  C_32
REMARK                            x       y       z     vdW  Elec       q    Type
REMARK                         _______ _______ _______ _____ _____    ______ ____
ROOT
ATOM      4  O   UNL     1      10.543   9.648   7.827  0.00  0.00    -0.268 OA
ATOM      8  N   UNL     1       9.483   8.884   5.881  0.00  0.00    -0.285 N 
ATOM     14  C   UNL     1       7.705   9.419   3.638  0.00  0.00    +0.080 C 
ATOM     15  C   UNL     1       7.768   8.027   4.268  0.00  0.00    +0.052 C 
ATOM     16  C   UNL     1       9.079   7.764   5.012  0.00  0.00    +0.164 C 
ATOM     17  C   UNL     1       8.036  10.493   4.671  0.00  0.00    +0.039 C 
ATOM     18  C   UNL     1       9.398  10.230   5.302  0.00  0.00    +0.110 C 
ATOM     20  C   UNL     1      10.076   8.739   7.142  0.00  0.00    +0.265 C 
ENDROOT
BRANCH  20  21
ATOM     11  N   UNL     1      11.238   6.567   7.660  0.00  0.00    -0.262 N 
ATOM     12  N   UNL     1      11.053   5.384   8.270  0.00  0.00    -0.176 NA
ATOM     21  C   UNL     1      10.154   7.393   7.720  0.00  0.00    +0.123 A 
ATOM     24  C   UNL     1       9.194   6.701   8.418  0.00  0.00    +0.057 A 
ATOM     26  C   UNL     1       9.803   5.471   8.731  0.00  0.00    +0.061 A 
ATOM     29  C   UNL     1      12.506   6.845   7.026  0.00  0.00    +0.173 C 
ATOM     32  C   UNL     1       9.217   4.344   9.475  0.00  0.00    +0.067 C 
ENDBRANCH  20  21
BRANCH  16  19
ATOM      3  O   UNL     1      11.249   8.178   4.102  0.00  0.00    -0.274 OA
ATOM     10  N   UNL     1       9.952   6.473   3.192  0.00  0.00    -0.303 N 
ATOM     19  C   UNL     1      10.221   7.508   4.072  0.00  0.00    +0.234 C 
ATOM     34  H   UNL     1       9.086   5.951   3.293  0.00  0.00    +0.149 HD
BRANCH  10  22
ATOM     22  C   UNL     1      10.879   6.042   2.170  0.00  0.00    +0.156 C 
ATOM     25  C   UNL     1      10.162   5.772   0.858  0.00  0.00    +0.038 C 
BRANCH  22  28
ATOM      7  O   UNL     1      11.035   3.900   3.305  0.00  0.00    -0.274 OA
ATOM     13  N   UNL     1      12.918   4.749   2.297  0.00  0.00    -0.328 N 
ATOM     28  C   UNL     1      11.590   4.794   2.670  0.00  0.00    +0.231 C 
ATOM     35  H   UNL     1      13.357   5.485   1.755  0.00  0.00    +0.145 HD
ATOM     36  H   UNL     1      13.505   3.963   2.556  0.00  0.00    +0.145 HD
ENDBRANCH  22  28
ENDBRANCH  10  22
ENDBRANCH  16  19
BRANCH  14   9
ATOM      9  N   UNL     1       6.342   9.658   3.105  0.00  0.00    -0.186 NA
ATOM     33  H   UNL     1       5.610   9.022   3.445  0.00  0.00    +0.148 HD
BRANCH   9   1
ATOM      1  S   UNL     1       6.145  10.391   1.586  0.00  0.00    +0.065 S 
ATOM      5  O   UNL     1       6.586   9.478   0.548  0.00  0.00    -0.153 OA
ATOM      6  O   UNL     1       6.676  11.739   1.645  0.00  0.00    -0.153 OA
BRANCH   1  23
ATOM      2  S   UNL     1       3.723  10.072  -0.034  0.00  0.00    -0.077 S 
ATOM     23  C   UNL     1       4.386  10.534   1.476  0.00  0.00    +0.142 A 
ATOM     27  C   UNL     1       3.416  10.945   2.363  0.00  0.00    +0.036 A 
ATOM     30  C   UNL     1       2.111  10.880   1.795  0.00  0.00    +0.010 A 
ATOM     31  C   UNL     1       2.133  10.421   0.496  0.00  0.00    +0.047 A 
ENDBRANCH   1  23
ENDBRANCH   9   1
ENDBRANCH  14   9
TORSDOF 7
ENDMDL
MODEL 10
REMARK VINA RESULT:      -5.8     26.396     29.372
REMARK  Name = 26763474
REMARK  10 active torsions:
REMARK  status: ('A' for Active; 'I' for Inactive)
REMARK    1  A    between atoms: S_1  and  N_9
REMARK    2  A    between atoms: S_1  and  C_23
REMARK    3  A    between atoms: N_9  and  C_14
REMARK    4  A    between atoms: N_10  and  C_22
REMARK    5  A    between atoms: N_11  and  C_29
REMARK    6  A    between atoms: C_16  and  C_19
REMARK    7  A    between atoms: C_20  and  C_21
REMARK    8  A    between atoms: C_22  and  C_25
REMARK    9  A    between atoms: C_22  and  C_28
REMARK   10  A    between atoms: C_26  and  C_32
REMARK                            x       y       z     vdW  Elec       q    Type
REMARK                         _______ _______ _______ _____ _____    ______ ____
ROOT
ATOM      4  O   UNL     1     -13.459  -9.207  15.858  0.00  0.00    -0.268 OA
ATOM      8  N   UNL     1     -11.128  -9.347  16.065  0.00  0.00    -0.285 N 
ATOM     14  C   UNL     1      -8.809 -10.161  17.626  0.00  0.00    +0.080 C 
ATOM     15  C   UNL     1      -8.755  -8.915  16.742  0.00  0.00    +0.052 C 
ATOM     16  C   UNL     1      -9.787  -8.935  15.612  0.00  0.00    +0.164 C 
ATOM     17  C   UNL     1     -10.233 -10.411  18.116  0.00  0.00    +0.039 C 
ATOM     18  C   UNL     1     -11.195 -10.523  16.940  0.00  0.00    +0.110 C 
ATOM     20  C   UNL     1     -12.329  -8.794  15.599  0.00  0.00    +0.265 C 
ENDROOT
BRANCH  20  21
ATOM     11  N   UNL     1     -11.880  -6.364  15.121  0.00  0.00    -0.262 N 
ATOM     12  N   UNL     1     -11.899  -5.457  14.131  0.00  0.00    -0.176 NA
ATOM     21  C   UNL     1     -12.258  -7.615  14.729  0.00  0.00    +0.123 A 
ATOM     24  C   UNL     1     -12.543  -7.518  13.389  0.00  0.00    +0.057 A 
ATOM     26  C   UNL     1     -12.304  -6.167  13.075  0.00  0.00    +0.061 A 
ATOM     29  C   UNL     1     -11.482  -5.954  16.448  0.00  0.00    +0.173 C 
ATOM     32  C   UNL     1     -12.455  -5.511  11.765  0.00  0.00    +0.067 C 
ENDBRANCH  20  21
BRANCH  16  19
ATOM      3  O   UNL     1     -10.230 -10.487  13.850  0.00  0.00    -0.274 OA
ATOM     10  N   UNL     1      -8.021  -9.949  14.349  0.00  0.00    -0.303 N 
ATOM     19  C   UNL     1      -9.395  -9.869  14.505  0.00  0.00    +0.234 C 
ATOM     34  H   UNL     1      -7.424  -9.349  14.913  0.00  0.00    +0.149 HD
BRANCH  10  22
ATOM     22  C   UNL     1      -7.384 -10.795  13.366  0.00  0.00    +0.156 C 
ATOM     25  C   UNL     1      -7.022 -12.147  13.960  0.00  0.00    +0.038 C 
BRANCH  22  28
ATOM      7  O   UNL     1      -5.041 -10.607  12.751  0.00  0.00    -0.274 OA
ATOM     13  N   UNL     1      -6.401  -8.777  12.468  0.00  0.00    -0.328 N 
ATOM     28  C   UNL     1      -6.146 -10.077  12.852  0.00  0.00    +0.231 C 
ATOM     35  H   UNL     1      -7.324  -8.359  12.538  0.00  0.00    +0.145 HD
ATOM     36  H   UNL     1      -5.664  -8.189  12.095  0.00  0.00    +0.145 HD
ENDBRANCH  22  28
ENDBRANCH  10  22
ENDBRANCH  16  19
BRANCH  14   9
ATOM      9  N   UNL     1      -7.915  -9.977  18.795  0.00  0.00    -0.186 NA
ATOM     33  H   UNL     1      -7.683  -9.004  19.032  0.00  0.00    +0.148 HD
BRANCH   9   1
ATOM      1  S   UNL     1      -6.825 -11.204  19.227  0.00  0.00    +0.065 S 
ATOM      5  O   UNL     1      -7.499 -12.489  19.175  0.00  0.00    -0.153 OA
ATOM      6  O   UNL     1      -6.117 -10.801  20.427  0.00  0.00    -0.153 OA
BRANCH   1  23
ATOM      2  S   UNL     1      -5.127 -12.675  17.345  0.00  0.00    -0.077 S 
ATOM     23  C   UNL     1      -5.663 -11.145  17.897  0.00  0.00    +0.142 A 
ATOM     27  C   UNL     1      -5.084 -10.110  17.196  0.00  0.00    +0.036 A 
ATOM     30  C   UNL     1      -4.190 -10.579  16.191  0.00  0.00    +0.010 A 
ATOM     31  C   UNL     1      -4.118 -11.955  16.163  0.00  0.00    +0.047 A 
ENDBRANCH   1  23
ENDBRANCH   9   1
ENDBRANCH  14   9
TORSDOF 7
ENDMDL
