REMARK  Name = 25389952
REMARK  8 active torsions:
REMARK  status: ('A' for Active; 'I' for Inactive)
REMARK    1  A    between atoms: O_2  and  C_20
REMARK    2  A    between atoms: O_2  and  C_32
REMARK    3  A    between atoms: O_4  and  C_26
REMARK    4  A    between atoms: N_7  and  C_11
REMARK    5  A    between atoms: N_7  and  C_21
REMARK    6  A    between atoms: C_9  and  C_17
REMARK    7  A    between atoms: C_13  and  C_20
REMARK    8  A    between atoms: C_21  and  C_26
REMARK                            x       y       z     vdW  Elec       q    Type
REMARK                         _______ _______ _______ _____ _____    ______ ____
ROOT
ATOM      5  N   UNL     1      -0.240  -0.210  -0.085  0.00  0.00    -0.274 NA
ATOM      6  N   UNL     1       2.989   1.704   0.045  0.00  0.00    -0.356 N 
ATOM      8  C   UNL     1       0.569   0.950   0.402  0.00  0.00    +0.106 C 
ATOM      9  C   UNL     1      -1.671  -0.086   0.291  0.00  0.00    +0.090 C 
ATOM     10  C   UNL     1       0.014   2.270  -0.156  0.00  0.00    +0.044 C 
ATOM     11  C   UNL     1      -1.447   2.453   0.255  0.00  0.00    +0.057 C 
ATOM     12  C   UNL     1      -2.265   1.250  -0.215  0.00  0.00    +0.042 C 
ATOM     13  C   UNL     1       0.379  -1.524   0.241  0.00  0.00    +0.172 C 
ATOM     14  C   UNL     1       2.008   0.753   0.029  0.00  0.00    +0.038 A 
ATOM     15  C   UNL     1       1.777  -1.699  -0.405  0.00  0.00    +0.068 C 
ATOM     16  C   UNL     1       2.581  -0.449  -0.324  0.00  0.00    -0.016 A 
ATOM     18  C   UNL     1       3.962  -0.217  -0.567  0.00  0.00    +0.003 A 
ATOM     19  C   UNL     1       4.191   1.142  -0.330  0.00  0.00    +0.047 A 
ATOM     24  C   UNL     1       5.045  -1.028  -0.962  0.00  0.00    +0.010 A 
ATOM     25  C   UNL     1       5.454   1.729  -0.470  0.00  0.00    +0.026 A 
ATOM     27  C   UNL     1       6.312  -0.452  -1.108  0.00  0.00    +0.001 A 
ATOM     30  C   UNL     1       6.511   0.905  -0.866  0.00  0.00    +0.002 A 
ATOM     33  H   UNL     1       2.861   2.676   0.291  0.00  0.00    +0.166 HD
ENDROOT
BRANCH   9  17
ATOM      1  F   UNL     1      -4.944  -4.263  -1.665  0.00  0.00    -0.205 F 
ATOM     17  C   UNL     1      -2.554  -1.214  -0.237  0.00  0.00    -0.030 A 
ATOM     22  C   UNL     1      -3.643  -1.657   0.515  0.00  0.00    +0.008 A 
ATOM     23  C   UNL     1      -2.274  -1.801  -1.470  0.00  0.00    +0.008 A 
ATOM     28  C   UNL     1      -4.450  -2.687   0.033  0.00  0.00    +0.038 A 
ATOM     29  C   UNL     1      -3.081  -2.831  -1.953  0.00  0.00    +0.038 A 
ATOM     31  C   UNL     1      -4.169  -3.274  -1.201  0.00  0.00    +0.123 A 
ENDBRANCH   9  17
BRANCH  13  20
ATOM      3  O   UNL     1       0.054  -0.899   2.547  0.00  0.00    -0.249 OA
ATOM     20  C   UNL     1       0.448  -1.720   1.729  0.00  0.00    +0.325 C 
BRANCH  20   2
ATOM      2  O   UNL     1       1.008  -2.932   2.005  0.00  0.00    -0.467 OA
ATOM     32  C   UNL     1       1.135  -3.249   3.394  0.00  0.00    +0.280 C 
ENDBRANCH  20   2
ENDBRANCH  13  20
BRANCH  11   7
ATOM      7  N   UNL     1      -1.976   3.694  -0.307  0.00  0.00    -0.311 NA
ATOM     34  H   UNL     1      -1.264   4.423  -0.267  0.00  0.00    +0.122 HD
BRANCH   7  21
ATOM     21  C   UNL     1      -3.144   4.140   0.437  0.00  0.00    +0.109 C 
BRANCH  21  26
ATOM     26  C   UNL     1      -3.718   5.408  -0.175  0.00  0.00    +0.171 C 
BRANCH  26   4
ATOM      4  O   UNL     1      -4.864   5.796   0.571  0.00  0.00    -0.394 OA
ATOM     35  H   UNL     1      -5.211   6.606   0.159  0.00  0.00    +0.209 HD
ENDBRANCH  26   4
ENDBRANCH  21  26
ENDBRANCH   7  21
ENDBRANCH  11   7
TORSDOF 7
