MODEL 1
REMARK VINA RESULT:      -7.1      0.000      0.000
REMARK  Name = 45361091
REMARK  8 active torsions:
REMARK  status: ('A' for Active; 'I' for Inactive)
REMARK    1  A    between atoms: S_1  and  C_30
REMARK    2  A    between atoms: S_1  and  C_33
REMARK    3  A    between atoms: N_7  and  C_19
REMARK    4  A    between atoms: N_8  and  C_20
REMARK    5  A    between atoms: C_15  and  C_18
REMARK    6  A    between atoms: C_18  and  C_21
REMARK    7  A    between atoms: C_19  and  C_22
REMARK    8  A    between atoms: C_21  and  C_23
REMARK                            x       y       z     vdW  Elec       q    Type
REMARK                         _______ _______ _______ _____ _____    ______ ____
ROOT
ATOM      2  O   UNL     1      18.778   5.835  19.338  0.00  0.00    -0.274 OA
ATOM      7  N   UNL     1      19.360   7.202  21.593  0.00  0.00    -0.286 NA
ATOM      8  N   UNL     1      16.476   8.861  20.069  0.00  0.00    -0.296 NA
ATOM      9  N   UNL     1      16.509   6.020  19.570  0.00  0.00    -0.312 N 
ATOM     11  C   UNL     1      17.341   8.495  21.212  0.00  0.00    +0.084 C 
ATOM     12  C   UNL     1      17.930   7.054  21.266  0.00  0.00    +0.161 C 
ATOM     13  C   UNL     1      18.608   9.363  21.340  0.00  0.00    +0.036 C 
ATOM     14  C   UNL     1      19.528   8.520  22.197  0.00  0.00    +0.087 C 
ATOM     15  C   UNL     1      15.208   8.086  19.984  0.00  0.00    +0.074 C 
ATOM     16  C   UNL     1      17.811   6.260  19.968  0.00  0.00    +0.232 C 
ATOM     17  C   UNL     1      15.352   6.574  20.244  0.00  0.00    +0.123 C 
ATOM     20  C   UNL     1      16.192  10.306  20.068  0.00  0.00    +0.105 C 
ATOM     34  H   UNL     1      16.360   5.430  18.758  0.00  0.00    +0.149 HD
ENDROOT
BRANCH  15  18
ATOM     18  C   UNL     1      14.562   8.257  18.592  0.00  0.00    +0.029 C 
BRANCH  18  21
ATOM     21  C   UNL     1      13.218   8.957  18.673  0.00  0.00    +0.097 C 
BRANCH  21  23
ATOM      3  O   UNL     1      12.002   6.950  19.005  0.00  0.00    -0.276 OA
ATOM      4  O   UNL     1      10.745   9.522  23.038  0.00  0.00    -0.377 OA
ATOM     10  N   UNL     1      11.543   8.696  20.464  0.00  0.00    -0.297 N 
ATOM     23  C   UNL     1      12.201   8.106  19.389  0.00  0.00    +0.216 C 
ATOM     26  C   UNL     1      10.543   7.938  21.217  0.00  0.00    +0.136 C 
ATOM     27  C   UNL     1      11.661  10.102  20.867  0.00  0.00    +0.136 C 
ATOM     31  C   UNL     1      10.748   8.130  22.713  0.00  0.00    +0.179 C 
ATOM     32  C   UNL     1      11.815  10.205  22.379  0.00  0.00    +0.179 C 
ENDBRANCH  21  23
ENDBRANCH  18  21
ENDBRANCH  15  18
BRANCH   7  19
ATOM     19  C   UNL     1      19.870   6.138  22.448  0.00  0.00    +0.120 C 
BRANCH  19  22
ATOM     22  C   UNL     1      21.174   5.584  21.937  0.00  0.00    -0.033 A 
ATOM     24  C   UNL     1      21.794   4.532  22.611  0.00  0.00    +0.007 A 
ATOM     25  C   UNL     1      21.759   6.121  20.791  0.00  0.00    +0.007 A 
ATOM     28  C   UNL     1      23.002   4.018  22.138  0.00  0.00    +0.027 A 
ATOM     29  C   UNL     1      22.966   5.607  20.318  0.00  0.00    +0.027 A 
ATOM     30  C   UNL     1      23.588   4.556  20.991  0.00  0.00    +0.088 A 
BRANCH  30   1
ATOM      1  S   UNL     1      25.098   3.909  20.398  0.00  0.00    -0.006 S 
ATOM      5  O   UNL     1      25.910   3.491  21.532  0.00  0.00    -0.170 OA
ATOM      6  O   UNL     1      24.792   2.960  19.338  0.00  0.00    -0.170 OA
ATOM     33  C   UNL     1      25.916   5.306  19.660  0.00  0.00    +0.200 C 
ENDBRANCH  30   1
ENDBRANCH  19  22
ENDBRANCH   7  19
TORSDOF 6
ENDMDL
MODEL 2
REMARK VINA RESULT:      -6.9     28.039     30.644
REMARK  Name = 45361091
REMARK  8 active torsions:
REMARK  status: ('A' for Active; 'I' for Inactive)
REMARK    1  A    between atoms: S_1  and  C_30
REMARK    2  A    between atoms: S_1  and  C_33
REMARK    3  A    between atoms: N_7  and  C_19
REMARK    4  A    between atoms: N_8  and  C_20
REMARK    5  A    between atoms: C_15  and  C_18
REMARK    6  A    between atoms: C_18  and  C_21
REMARK    7  A    between atoms: C_19  and  C_22
REMARK    8  A    between atoms: C_21  and  C_23
REMARK                            x       y       z     vdW  Elec       q    Type
REMARK                         _______ _______ _______ _____ _____    ______ ____
ROOT
ATOM      2  O   UNL     1      -1.153 -11.087  15.586  0.00  0.00    -0.274 OA
ATOM      7  N   UNL     1      -2.262 -12.467  13.546  0.00  0.00    -0.286 NA
ATOM      8  N   UNL     1      -4.536 -12.787  16.395  0.00  0.00    -0.296 NA
ATOM      9  N   UNL     1      -3.137 -10.264  16.375  0.00  0.00    -0.312 N 
ATOM     11  C   UNL     1      -4.218 -12.778  14.950  0.00  0.00    +0.084 C 
ATOM     12  C   UNL     1      -3.192 -11.731  14.423  0.00  0.00    +0.161 C 
ATOM     13  C   UNL     1      -3.619 -14.100  14.434  0.00  0.00    +0.036 C 
ATOM     14  C   UNL     1      -2.934 -13.698  13.146  0.00  0.00    +0.087 C 
ATOM     15  C   UNL     1      -5.193 -11.545  16.888  0.00  0.00    +0.074 C 
ATOM     16  C   UNL     1      -2.379 -11.024  15.504  0.00  0.00    +0.232 C 
ATOM     17  C   UNL     1      -4.586 -10.233  16.355  0.00  0.00    +0.123 C 
ATOM     20  C   UNL     1      -5.345 -13.966  16.747  0.00  0.00    +0.105 C 
ATOM     34  H   UNL     1      -2.649  -9.705  17.068  0.00  0.00    +0.149 HD
ENDROOT
BRANCH  15  18
ATOM     18  C   UNL     1      -5.147 -11.485  18.430  0.00  0.00    +0.029 C 
BRANCH  18  21
ATOM     21  C   UNL     1      -6.056 -10.404  18.983  0.00  0.00    +0.097 C 
BRANCH  21  23
ATOM      3  O   UNL     1      -7.672 -11.762  20.063  0.00  0.00    -0.276 OA
ATOM      4  O   UNL     1     -10.549  -8.875  17.260  0.00  0.00    -0.377 OA
ATOM     10  N   UNL     1      -8.441 -10.394  18.351  0.00  0.00    -0.297 N 
ATOM     23  C   UNL     1      -7.458 -10.920  19.186  0.00  0.00    +0.216 C 
ATOM     26  C   UNL     1      -9.828 -10.837  18.484  0.00  0.00    +0.136 C 
ATOM     27  C   UNL     1      -8.202  -9.492  17.220  0.00  0.00    +0.136 C 
ATOM     31  C   UNL     1     -10.772  -9.644  18.446  0.00  0.00    +0.179 C 
ATOM     32  C   UNL     1      -9.217  -8.356  17.229  0.00  0.00    +0.179 C 
ENDBRANCH  21  23
ENDBRANCH  18  21
ENDBRANCH  15  18
BRANCH   7  19
ATOM     19  C   UNL     1      -1.814 -11.688  12.399  0.00  0.00    +0.120 C 
BRANCH  19  22
ATOM     22  C   UNL     1      -2.966 -11.254  11.530  0.00  0.00    -0.033 A 
ATOM     24  C   UNL     1      -3.515 -12.143  10.606  0.00  0.00    +0.007 A 
ATOM     25  C   UNL     1      -3.483  -9.964  11.651  0.00  0.00    +0.007 A 
ATOM     28  C   UNL     1      -4.581 -11.742   9.802  0.00  0.00    +0.027 A 
ATOM     29  C   UNL     1      -4.549  -9.563  10.847  0.00  0.00    +0.027 A 
ATOM     30  C   UNL     1      -5.099 -10.451   9.923  0.00  0.00    +0.088 A 
BRANCH  30   1
ATOM      1  S   UNL     1      -6.436  -9.950   8.918  0.00  0.00    -0.006 S 
ATOM      5  O   UNL     1      -7.430 -11.014   8.890  0.00  0.00    -0.170 OA
ATOM      6  O   UNL     1      -6.825  -8.608   9.327  0.00  0.00    -0.170 OA
ATOM     33  C   UNL     1      -5.744  -9.842   7.283  0.00  0.00    +0.200 C 
ENDBRANCH  30   1
ENDBRANCH  19  22
ENDBRANCH   7  19
TORSDOF 6
ENDMDL
MODEL 3
REMARK VINA RESULT:      -6.8     28.164     31.159
REMARK  Name = 45361091
REMARK  8 active torsions:
REMARK  status: ('A' for Active; 'I' for Inactive)
REMARK    1  A    between atoms: S_1  and  C_30
REMARK    2  A    between atoms: S_1  and  C_33
REMARK    3  A    between atoms: N_7  and  C_19
REMARK    4  A    between atoms: N_8  and  C_20
REMARK    5  A    between atoms: C_15  and  C_18
REMARK    6  A    between atoms: C_18  and  C_21
REMARK    7  A    between atoms: C_19  and  C_22
REMARK    8  A    between atoms: C_21  and  C_23
REMARK                            x       y       z     vdW  Elec       q    Type
REMARK                         _______ _______ _______ _____ _____    ______ ____
ROOT
ATOM      2  O   UNL     1      -6.034  -9.510  13.383  0.00  0.00    -0.274 OA
ATOM      7  N   UNL     1      -3.901 -10.577  12.116  0.00  0.00    -0.286 NA
ATOM      8  N   UNL     1      -3.244 -10.859  15.705  0.00  0.00    -0.296 NA
ATOM      9  N   UNL     1      -6.053 -11.050  15.077  0.00  0.00    -0.312 N 
ATOM     11  C   UNL     1      -3.077 -11.267  14.293  0.00  0.00    +0.084 C 
ATOM     12  C   UNL     1      -4.325 -11.243  13.362  0.00  0.00    +0.161 C 
ATOM     13  C   UNL     1      -2.075 -10.402  13.506  0.00  0.00    +0.036 C 
ATOM     14  C   UNL     1      -2.445 -10.658  12.061  0.00  0.00    +0.087 C 
ATOM     15  C   UNL     1      -4.146 -11.739  16.498  0.00  0.00    +0.074 C 
ATOM     16  C   UNL     1      -5.534 -10.497  13.921  0.00  0.00    +0.232 C 
ATOM     17  C   UNL     1      -5.440 -12.161  15.777  0.00  0.00    +0.123 C 
ATOM     20  C   UNL     1      -1.937 -10.733  16.372  0.00  0.00    +0.105 C 
ATOM     34  H   UNL     1      -6.905 -10.648  15.455  0.00  0.00    +0.149 HD
ENDROOT
BRANCH  15  18
ATOM     18  C   UNL     1      -4.554 -11.047  17.816  0.00  0.00    +0.029 C 
BRANCH  18  21
ATOM     21  C   UNL     1      -5.301 -11.988  18.743  0.00  0.00    +0.097 C 
BRANCH  21  23
ATOM      3  O   UNL     1      -6.296 -10.410  20.207  0.00  0.00    -0.276 OA
ATOM      4  O   UNL     1     -10.236 -12.005  17.678  0.00  0.00    -0.377 OA
ATOM     10  N   UNL     1      -7.745 -11.735  18.967  0.00  0.00    -0.297 N 
ATOM     23  C   UNL     1      -6.485 -11.304  19.376  0.00  0.00    +0.216 C 
ATOM     26  C   UNL     1      -8.948 -11.121  19.529  0.00  0.00    +0.136 C 
ATOM     27  C   UNL     1      -8.007 -12.875  18.082  0.00  0.00    +0.136 C 
ATOM     31  C   UNL     1      -9.953 -10.819  18.427  0.00  0.00    +0.179 C 
ATOM     32  C   UNL     1      -9.057 -12.503  17.043  0.00  0.00    +0.179 C 
ENDBRANCH  21  23
ENDBRANCH  18  21
ENDBRANCH  15  18
BRANCH   7  19
ATOM     19  C   UNL     1      -4.527 -11.132  10.923  0.00  0.00    +0.120 C 
BRANCH  19  22
ATOM     22  C   UNL     1      -5.435 -10.136  10.251  0.00  0.00    -0.033 A 
ATOM     24  C   UNL     1      -4.994  -8.833  10.023  0.00  0.00    +0.007 A 
ATOM     25  C   UNL     1      -6.717 -10.518   9.856  0.00  0.00    +0.007 A 
ATOM     28  C   UNL     1      -5.834  -7.911   9.400  0.00  0.00    +0.027 A 
ATOM     29  C   UNL     1      -7.558  -9.596   9.234  0.00  0.00    +0.027 A 
ATOM     30  C   UNL     1      -7.118  -8.293   9.006  0.00  0.00    +0.088 A 
BRANCH  30   1
ATOM      1  S   UNL     1      -8.169  -7.139   8.223  0.00  0.00    -0.006 S 
ATOM      5  O   UNL     1      -9.509  -7.269   8.778  0.00  0.00    -0.170 OA
ATOM      6  O   UNL     1      -7.503  -5.844   8.239  0.00  0.00    -0.170 OA
ATOM     33  C   UNL     1      -8.251  -7.690   6.534  0.00  0.00    +0.200 C 
ENDBRANCH  30   1
ENDBRANCH  19  22
ENDBRANCH   7  19
TORSDOF 6
ENDMDL
MODEL 4
REMARK VINA RESULT:      -6.7      2.254      3.830
REMARK  Name = 45361091
REMARK  8 active torsions:
REMARK  status: ('A' for Active; 'I' for Inactive)
REMARK    1  A    between atoms: S_1  and  C_30
REMARK    2  A    between atoms: S_1  and  C_33
REMARK    3  A    between atoms: N_7  and  C_19
REMARK    4  A    between atoms: N_8  and  C_20
REMARK    5  A    between atoms: C_15  and  C_18
REMARK    6  A    between atoms: C_18  and  C_21
REMARK    7  A    between atoms: C_19  and  C_22
REMARK    8  A    between atoms: C_21  and  C_23
REMARK                            x       y       z     vdW  Elec       q    Type
REMARK                         _______ _______ _______ _____ _____    ______ ____
ROOT
ATOM      2  O   UNL     1      20.177   6.336  23.868  0.00  0.00    -0.274 OA
ATOM      7  N   UNL     1      21.297   5.465  21.570  0.00  0.00    -0.286 NA
ATOM      8  N   UNL     1      17.988   6.769  20.704  0.00  0.00    -0.296 NA
ATOM      9  N   UNL     1      19.182   8.170  22.926  0.00  0.00    -0.312 N 
ATOM     11  C   UNL     1      19.392   6.411  20.399  0.00  0.00    +0.084 C 
ATOM     12  C   UNL     1      20.479   6.689  21.479  0.00  0.00    +0.161 C 
ATOM     13  C   UNL     1      19.606   4.914  20.109  0.00  0.00    +0.036 C 
ATOM     14  C   UNL     1      21.089   4.719  20.333  0.00  0.00    +0.087 C 
ATOM     15  C   UNL     1      17.754   8.226  20.903  0.00  0.00    +0.074 C 
ATOM     16  C   UNL     1      19.940   7.014  22.869  0.00  0.00    +0.232 C 
ATOM     17  C   UNL     1      18.818   8.944  21.756  0.00  0.00    +0.123 C 
ATOM     20  C   UNL     1      17.078   6.242  19.674  0.00  0.00    +0.105 C 
ATOM     34  H   UNL     1      18.860   8.484  23.835  0.00  0.00    +0.149 HD
ENDROOT
BRANCH  15  18
ATOM     18  C   UNL     1      16.384   8.467  21.572  0.00  0.00    +0.029 C 
BRANCH  18  21
ATOM     21  C   UNL     1      15.483   9.341  20.720  0.00  0.00    +0.097 C 
BRANCH  21  23
ATOM      3  O   UNL     1      13.594   9.553  22.137  0.00  0.00    -0.276 OA
ATOM      4  O   UNL     1      11.515   7.796  18.008  0.00  0.00    -0.377 OA
ATOM     10  N   UNL     1      13.261   8.453  20.120  0.00  0.00    -0.297 N 
ATOM     23  C   UNL     1      14.031   9.128  21.064  0.00  0.00    +0.216 C 
ATOM     26  C   UNL     1      11.842   8.208  20.372  0.00  0.00    +0.136 C 
ATOM     27  C   UNL     1      13.773   7.825  18.897  0.00  0.00    +0.136 C 
ATOM     31  C   UNL     1      11.019   8.528  19.132  0.00  0.00    +0.179 C 
ATOM     32  C   UNL     1      12.868   8.156  17.717  0.00  0.00    +0.179 C 
ENDBRANCH  21  23
ENDBRANCH  18  21
ENDBRANCH  15  18
BRANCH   7  19
ATOM     19  C   UNL     1      22.706   5.731  21.821  0.00  0.00    +0.120 C 
BRANCH  19  22
ATOM     22  C   UNL     1      23.468   4.470  22.137  0.00  0.00    -0.033 A 
ATOM     24  C   UNL     1      23.024   3.624  23.153  0.00  0.00    +0.007 A 
ATOM     25  C   UNL     1      24.615   4.148  21.412  0.00  0.00    +0.007 A 
ATOM     28  C   UNL     1      23.728   2.456  23.445  0.00  0.00    +0.027 A 
ATOM     29  C   UNL     1      25.319   2.980  21.704  0.00  0.00    +0.027 A 
ATOM     30  C   UNL     1      24.876   2.134  22.720  0.00  0.00    +0.088 A 
BRANCH  30   1
ATOM      1  S   UNL     1      25.756   0.670  23.084  0.00  0.00    -0.006 S 
ATOM      5  O   UNL     1      25.609  -0.258  21.971  0.00  0.00    -0.170 OA
ATOM      6  O   UNL     1      27.086   1.048  23.538  0.00  0.00    -0.170 OA
ATOM     33  C   UNL     1      24.886  -0.036  24.466  0.00  0.00    +0.200 C 
ENDBRANCH  30   1
ENDBRANCH  19  22
ENDBRANCH   7  19
TORSDOF 6
ENDMDL
MODEL 5
REMARK VINA RESULT:      -6.5     29.224     31.117
REMARK  Name = 45361091
REMARK  8 active torsions:
REMARK  status: ('A' for Active; 'I' for Inactive)
REMARK    1  A    between atoms: S_1  and  C_30
REMARK    2  A    between atoms: S_1  and  C_33
REMARK    3  A    between atoms: N_7  and  C_19
REMARK    4  A    between atoms: N_8  and  C_20
REMARK    5  A    between atoms: C_15  and  C_18
REMARK    6  A    between atoms: C_18  and  C_21
REMARK    7  A    between atoms: C_19  and  C_22
REMARK    8  A    between atoms: C_21  and  C_23
REMARK                            x       y       z     vdW  Elec       q    Type
REMARK                         _______ _______ _______ _____ _____    ______ ____
ROOT
ATOM      2  O   UNL     1      -5.675 -10.390  13.251  0.00  0.00    -0.274 OA
ATOM      7  N   UNL     1      -3.702 -12.228  13.395  0.00  0.00    -0.286 NA
ATOM      8  N   UNL     1      -4.281 -11.578   9.840  0.00  0.00    -0.296 NA
ATOM      9  N   UNL     1      -4.766  -9.256  11.482  0.00  0.00    -0.312 N 
ATOM     11  C   UNL     1      -3.453 -12.004  10.991  0.00  0.00    +0.084 C 
ATOM     12  C   UNL     1      -3.581 -11.217  12.328  0.00  0.00    +0.161 C 
ATOM     13  C   UNL     1      -3.714 -13.452  11.446  0.00  0.00    +0.036 C 
ATOM     14  C   UNL     1      -3.177 -13.480  12.860  0.00  0.00    +0.087 C 
ATOM     15  C   UNL     1      -3.977 -10.210   9.337  0.00  0.00    +0.074 C 
ATOM     16  C   UNL     1      -4.781 -10.279  12.413  0.00  0.00    +0.232 C 
ATOM     17  C   UNL     1      -3.773  -9.146  10.433  0.00  0.00    +0.123 C 
ATOM     20  C   UNL     1      -4.195 -12.556   8.743  0.00  0.00    +0.105 C 
ATOM     34  H   UNL     1      -5.495  -8.553  11.536  0.00  0.00    +0.149 HD
ENDROOT
BRANCH  15  18
ATOM     18  C   UNL     1      -5.108  -9.712   8.412  0.00  0.00    +0.029 C 
BRANCH  18  21
ATOM     21  C   UNL     1      -6.457 -10.280   8.809  0.00  0.00    +0.097 C 
BRANCH  21  23
ATOM      3  O   UNL     1      -7.428  -8.919  10.490  0.00  0.00    -0.276 OA
ATOM      4  O   UNL     1      -9.142  -6.757   6.385  0.00  0.00    -0.377 OA
ATOM     10  N   UNL     1      -8.153  -8.558   8.314  0.00  0.00    -0.297 N 
ATOM     23  C   UNL     1      -7.387  -9.194   9.288  0.00  0.00    +0.216 C 
ATOM     26  C   UNL     1      -9.078  -7.490   8.692  0.00  0.00    +0.136 C 
ATOM     27  C   UNL     1      -8.224  -8.944   6.901  0.00  0.00    +0.136 C 
ATOM     31  C   UNL     1      -8.954  -6.316   7.732  0.00  0.00    +0.179 C 
ATOM     32  C   UNL     1      -8.141  -7.709   6.013  0.00  0.00    +0.179 C 
ENDBRANCH  21  23
ENDBRANCH  18  21
ENDBRANCH  15  18
BRANCH   7  19
ATOM     19  C   UNL     1      -3.042 -11.841  14.634  0.00  0.00    +0.120 C 
BRANCH  19  22
ATOM     22  C   UNL     1      -4.016 -11.721  15.776  0.00  0.00    -0.033 A 
ATOM     24  C   UNL     1      -4.086 -10.539  16.512  0.00  0.00    +0.007 A 
ATOM     25  C   UNL     1      -4.850 -12.793  16.096  0.00  0.00    +0.007 A 
ATOM     28  C   UNL     1      -4.989 -10.428  17.569  0.00  0.00    +0.027 A 
ATOM     29  C   UNL     1      -5.753 -12.682  17.153  0.00  0.00    +0.027 A 
ATOM     30  C   UNL     1      -5.823 -11.500  17.890  0.00  0.00    +0.088 A 
BRANCH  30   1
ATOM      1  S   UNL     1      -6.956 -11.360  19.211  0.00  0.00    -0.006 S 
ATOM      5  O   UNL     1      -7.357 -12.695  19.633  0.00  0.00    -0.170 OA
ATOM      6  O   UNL     1      -6.396 -10.432  20.184  0.00  0.00    -0.170 OA
ATOM     33  C   UNL     1      -8.388 -10.593  18.486  0.00  0.00    +0.200 C 
ENDBRANCH  30   1
ENDBRANCH  19  22
ENDBRANCH   7  19
TORSDOF 6
ENDMDL
MODEL 6
REMARK VINA RESULT:      -6.4     28.203     31.814
REMARK  Name = 45361091
REMARK  8 active torsions:
REMARK  status: ('A' for Active; 'I' for Inactive)
REMARK    1  A    between atoms: S_1  and  C_30
REMARK    2  A    between atoms: S_1  and  C_33
REMARK    3  A    between atoms: N_7  and  C_19
REMARK    4  A    between atoms: N_8  and  C_20
REMARK    5  A    between atoms: C_15  and  C_18
REMARK    6  A    between atoms: C_18  and  C_21
REMARK    7  A    between atoms: C_19  and  C_22
REMARK    8  A    between atoms: C_21  and  C_23
REMARK                            x       y       z     vdW  Elec       q    Type
REMARK                         _______ _______ _______ _____ _____    ______ ____
ROOT
ATOM      2  O   UNL     1      -5.892  -9.771  16.706  0.00  0.00    -0.274 OA
ATOM      7  N   UNL     1      -6.123 -12.321  17.565  0.00  0.00    -0.286 NA
ATOM      8  N   UNL     1      -3.817 -12.370  14.724  0.00  0.00    -0.296 NA
ATOM      9  N   UNL     1      -3.657  -9.919  16.236  0.00  0.00    -0.312 N 
ATOM     11  C   UNL     1      -4.377 -12.908  15.984  0.00  0.00    +0.084 C 
ATOM     12  C   UNL     1      -4.787 -11.903  17.101  0.00  0.00    +0.161 C 
ATOM     13  C   UNL     1      -5.672 -13.721  15.795  0.00  0.00    +0.036 C 
ATOM     14  C   UNL     1      -6.296 -13.716  17.173  0.00  0.00    +0.087 C 
ATOM     15  C   UNL     1      -2.521 -11.654  14.883  0.00  0.00    +0.074 C 
ATOM     16  C   UNL     1      -4.863 -10.444  16.661  0.00  0.00    +0.232 C 
ATOM     17  C   UNL     1      -2.448 -10.705  16.095  0.00  0.00    +0.123 C 
ATOM     20  C   UNL     1      -3.692 -13.432  13.711  0.00  0.00    +0.105 C 
ATOM     34  H   UNL     1      -3.623  -8.931  16.005  0.00  0.00    +0.149 HD
ENDROOT
BRANCH  15  18
ATOM     18  C   UNL     1      -2.206 -10.821  13.622  0.00  0.00    +0.029 C 
BRANCH  18  21
ATOM     21  C   UNL     1      -3.467 -10.365  12.914  0.00  0.00    +0.097 C 
BRANCH  21  23
ATOM      3  O   UNL     1      -2.009  -9.946  11.093  0.00  0.00    -0.276 OA
ATOM      4  O   UNL     1      -6.424  -9.223   8.985  0.00  0.00    -0.377 OA
ATOM     10  N   UNL     1      -4.251  -9.440  10.766  0.00  0.00    -0.297 N 
ATOM     23  C   UNL     1      -3.169  -9.899  11.512  0.00  0.00    +0.216 C 
ATOM     26  C   UNL     1      -4.050  -8.974   9.394  0.00  0.00    +0.136 C 
ATOM     27  C   UNL     1      -5.615  -9.252  11.272  0.00  0.00    +0.136 C 
ATOM     31  C   UNL     1      -5.125  -9.541   8.478  0.00  0.00    +0.179 C 
ATOM     32  C   UNL     1      -6.627  -9.803  10.276  0.00  0.00    +0.179 C 
ENDBRANCH  21  23
ENDBRANCH  18  21
ENDBRANCH  15  18
BRANCH   7  19
ATOM     19  C   UNL     1      -6.326 -12.123  18.994  0.00  0.00    +0.120 C 
BRANCH  19  22
ATOM     22  C   UNL     1      -7.783 -11.951  19.336  0.00  0.00    -0.033 A 
ATOM     24  C   UNL     1      -8.453 -10.787  18.962  0.00  0.00    +0.007 A 
ATOM     25  C   UNL     1      -8.461 -12.957  20.024  0.00  0.00    +0.007 A 
ATOM     28  C   UNL     1      -9.802 -10.627  19.278  0.00  0.00    +0.027 A 
ATOM     29  C   UNL     1      -9.810 -12.798  20.340  0.00  0.00    +0.027 A 
ATOM     30  C   UNL     1     -10.481 -11.633  19.967  0.00  0.00    +0.088 A 
BRANCH  30   1
ATOM      1  S   UNL     1     -12.171 -11.435  20.360  0.00  0.00    -0.006 S 
ATOM      5  O   UNL     1     -12.574 -12.503  21.264  0.00  0.00    -0.170 OA
ATOM      6  O   UNL     1     -12.381 -10.046  20.742  0.00  0.00    -0.170 OA
ATOM     33  C   UNL     1     -13.018 -11.711  18.820  0.00  0.00    +0.200 C 
ENDBRANCH  30   1
ENDBRANCH  19  22
ENDBRANCH   7  19
TORSDOF 6
ENDMDL
MODEL 7
REMARK VINA RESULT:      -6.2     28.804     33.096
REMARK  Name = 45361091
REMARK  8 active torsions:
REMARK  status: ('A' for Active; 'I' for Inactive)
REMARK    1  A    between atoms: S_1  and  C_30
REMARK    2  A    between atoms: S_1  and  C_33
REMARK    3  A    between atoms: N_7  and  C_19
REMARK    4  A    between atoms: N_8  and  C_20
REMARK    5  A    between atoms: C_15  and  C_18
REMARK    6  A    between atoms: C_18  and  C_21
REMARK    7  A    between atoms: C_19  and  C_22
REMARK    8  A    between atoms: C_21  and  C_23
REMARK                            x       y       z     vdW  Elec       q    Type
REMARK                         _______ _______ _______ _____ _____    ______ ____
ROOT
ATOM      2  O   UNL     1      -8.120 -10.956  19.968  0.00  0.00    -0.274 OA
ATOM      7  N   UNL     1      -8.410 -10.894  17.284  0.00  0.00    -0.286 NA
ATOM      8  N   UNL     1     -11.485 -12.340  18.643  0.00  0.00    -0.296 NA
ATOM      9  N   UNL     1     -10.295 -10.401  20.418  0.00  0.00    -0.312 N 
ATOM     11  C   UNL     1     -10.703 -11.620  17.614  0.00  0.00    +0.084 C 
ATOM     12  C   UNL     1      -9.617 -10.607  18.081  0.00  0.00    +0.161 C 
ATOM     13  C   UNL     1      -9.897 -12.545  16.682  0.00  0.00    +0.036 C 
ATOM     14  C   UNL     1      -8.844 -11.628  16.099  0.00  0.00    +0.087 C 
ATOM     15  C   UNL     1     -12.334 -11.462  19.496  0.00  0.00    +0.074 C 
ATOM     16  C   UNL     1      -9.250 -10.690  19.560  0.00  0.00    +0.232 C 
ATOM     17  C   UNL     1     -11.653 -10.164  19.973  0.00  0.00    +0.123 C 
ATOM     20  C   UNL     1     -12.301 -13.402  18.034  0.00  0.00    +0.105 C 
ATOM     34  H   UNL     1     -10.097 -10.362  21.413  0.00  0.00    +0.149 HD
ENDROOT
BRANCH  15  18
ATOM     18  C   UNL     1     -12.808 -12.225  20.752  0.00  0.00    +0.029 C 
BRANCH  18  21
ATOM     21  C   UNL     1     -13.545 -11.319  21.721  0.00  0.00    +0.097 C 
BRANCH  21  23
ATOM      3  O   UNL     1     -15.553 -12.574  21.826  0.00  0.00    -0.276 OA
ATOM      4  O   UNL     1     -17.305  -7.994  21.177  0.00  0.00    -0.377 OA
ATOM     10  N   UNL     1     -15.752 -10.346  21.205  0.00  0.00    -0.297 N 
ATOM     23  C   UNL     1     -15.038 -11.478  21.589  0.00  0.00    +0.216 C 
ATOM     26  C   UNL     1     -17.206 -10.411  21.058  0.00  0.00    +0.136 C 
ATOM     27  C   UNL     1     -15.162  -9.066  20.794  0.00  0.00    +0.136 C 
ATOM     31  C   UNL     1     -17.860  -9.201  21.708  0.00  0.00    +0.179 C 
ATOM     32  C   UNL     1     -15.904  -7.910  21.451  0.00  0.00    +0.179 C 
ENDBRANCH  21  23
ENDBRANCH  18  21
ENDBRANCH  15  18
BRANCH   7  19
ATOM     19  C   UNL     1      -7.646  -9.702  16.942  0.00  0.00    +0.120 C 
BRANCH  19  22
ATOM     22  C   UNL     1      -6.301 -10.045  16.358  0.00  0.00    -0.033 A 
ATOM     24  C   UNL     1      -5.250 -10.414  17.198  0.00  0.00    +0.007 A 
ATOM     25  C   UNL     1      -6.107  -9.996  14.978  0.00  0.00    +0.007 A 
ATOM     28  C   UNL     1      -4.004 -10.732  16.657  0.00  0.00    +0.027 A 
ATOM     29  C   UNL     1      -4.861 -10.314  14.437  0.00  0.00    +0.027 A 
ATOM     30  C   UNL     1      -3.810 -10.682  15.276  0.00  0.00    +0.088 A 
BRANCH  30   1
ATOM      1  S   UNL     1      -2.251 -11.084  14.600  0.00  0.00    -0.006 S 
ATOM      5  O   UNL     1      -2.099 -12.532  14.592  0.00  0.00    -0.170 OA
ATOM      6  O   UNL     1      -2.094 -10.334  13.361  0.00  0.00    -0.170 OA
ATOM     33  C   UNL     1      -1.081 -10.445  15.777  0.00  0.00    +0.200 C 
ENDBRANCH  30   1
ENDBRANCH  19  22
ENDBRANCH   7  19
TORSDOF 6
ENDMDL
MODEL 8
REMARK VINA RESULT:      -6.2     15.769     19.616
REMARK  Name = 45361091
REMARK  8 active torsions:
REMARK  status: ('A' for Active; 'I' for Inactive)
REMARK    1  A    between atoms: S_1  and  C_30
REMARK    2  A    between atoms: S_1  and  C_33
REMARK    3  A    between atoms: N_7  and  C_19
REMARK    4  A    between atoms: N_8  and  C_20
REMARK    5  A    between atoms: C_15  and  C_18
REMARK    6  A    between atoms: C_18  and  C_21
REMARK    7  A    between atoms: C_19  and  C_22
REMARK    8  A    between atoms: C_21  and  C_23
REMARK                            x       y       z     vdW  Elec       q    Type
REMARK                         _______ _______ _______ _____ _____    ______ ____
ROOT
ATOM      2  O   UNL     1      10.305  10.006   4.795  0.00  0.00    -0.274 OA
ATOM      7  N   UNL     1       9.869   9.071   7.291  0.00  0.00    -0.286 NA
ATOM      8  N   UNL     1       9.934   6.162   5.071  0.00  0.00    -0.296 NA
ATOM      9  N   UNL     1      11.673   8.280   4.169  0.00  0.00    -0.312 N 
ATOM     11  C   UNL     1      10.086   6.830   6.383  0.00  0.00    +0.084 C 
ATOM     12  C   UNL     1      10.731   8.247   6.422  0.00  0.00    +0.161 C 
ATOM     13  C   UNL     1       8.756   7.063   7.124  0.00  0.00    +0.036 C 
ATOM     14  C   UNL     1       9.092   8.154   8.117  0.00  0.00    +0.087 C 
ATOM     15  C   UNL     1      11.219   5.855   4.384  0.00  0.00    +0.074 C 
ATOM     16  C   UNL     1      10.853   8.939   5.068  0.00  0.00    +0.232 C 
ATOM     17  C   UNL     1      12.266   6.984   4.431  0.00  0.00    +0.123 C 
ATOM     20  C   UNL     1       9.118   4.943   5.196  0.00  0.00    +0.105 C 
ATOM     34  H   UNL     1      11.859   8.728   3.278  0.00  0.00    +0.149 HD
ENDROOT
BRANCH  15  18
ATOM     18  C   UNL     1      10.969   5.515   2.899  0.00  0.00    +0.029 C 
BRANCH  18  21
ATOM     21  C   UNL     1      11.361   4.087   2.571  0.00  0.00    +0.097 C 
BRANCH  21  23
ATOM      3  O   UNL     1      10.497   3.966   0.366  0.00  0.00    -0.276 OA
ATOM      4  O   UNL     1      15.367   3.840  -0.493  0.00  0.00    -0.377 OA
ATOM     10  N   UNL     1      12.781   3.624   0.607  0.00  0.00    -0.297 N 
ATOM     23  C   UNL     1      11.499   3.887   1.083  0.00  0.00    +0.216 C 
ATOM     26  C   UNL     1      13.004   3.421  -0.824  0.00  0.00    +0.136 C 
ATOM     27  C   UNL     1      13.968   3.397   1.440  0.00  0.00    +0.136 C 
ATOM     31  C   UNL     1      14.230   4.197  -1.285  0.00  0.00    +0.179 C 
ATOM     32  C   UNL     1      15.157   4.169   0.883  0.00  0.00    +0.179 C 
ENDBRANCH  21  23
ENDBRANCH  18  21
ENDBRANCH  15  18
BRANCH   7  19
ATOM     19  C   UNL     1      10.610  10.037   8.090  0.00  0.00    +0.120 C 
BRANCH  19  22
ATOM     22  C   UNL     1       9.727  11.153   8.583  0.00  0.00    -0.033 A 
ATOM     24  C   UNL     1       9.110  12.008   7.671  0.00  0.00    +0.007 A 
ATOM     25  C   UNL     1       9.526  11.330   9.952  0.00  0.00    +0.007 A 
ATOM     28  C   UNL     1       8.292  13.042   8.127  0.00  0.00    +0.027 A 
ATOM     29  C   UNL     1       8.708  12.364  10.408  0.00  0.00    +0.027 A 
ATOM     30  C   UNL     1       8.091  13.219   9.496  0.00  0.00    +0.088 A 
BRANCH  30   1
ATOM      1  S   UNL     1       7.064  14.511  10.067  0.00  0.00    -0.006 S 
ATOM      5  O   UNL     1       7.405  14.809  11.451  0.00  0.00    -0.170 OA
ATOM      6  O   UNL     1       7.088  15.574   9.072  0.00  0.00    -0.170 OA
ATOM     33  C   UNL     1       5.431  13.807  10.075  0.00  0.00    +0.200 C 
ENDBRANCH  30   1
ENDBRANCH  19  22
ENDBRANCH   7  19
TORSDOF 6
ENDMDL
MODEL 9
REMARK VINA RESULT:      -6.2     28.503     31.534
REMARK  Name = 45361091
REMARK  8 active torsions:
REMARK  status: ('A' for Active; 'I' for Inactive)
REMARK    1  A    between atoms: S_1  and  C_30
REMARK    2  A    between atoms: S_1  and  C_33
REMARK    3  A    between atoms: N_7  and  C_19
REMARK    4  A    between atoms: N_8  and  C_20
REMARK    5  A    between atoms: C_15  and  C_18
REMARK    6  A    between atoms: C_18  and  C_21
REMARK    7  A    between atoms: C_19  and  C_22
REMARK    8  A    between atoms: C_21  and  C_23
REMARK                            x       y       z     vdW  Elec       q    Type
REMARK                         _______ _______ _______ _____ _____    ______ ____
ROOT
ATOM      2  O   UNL     1      -6.170  -9.723  11.673  0.00  0.00    -0.274 OA
ATOM      7  N   UNL     1      -3.884 -11.156  11.792  0.00  0.00    -0.286 NA
ATOM      8  N   UNL     1      -5.193 -11.541   8.396  0.00  0.00    -0.296 NA
ATOM      9  N   UNL     1      -5.823  -8.968   9.539  0.00  0.00    -0.312 N 
ATOM     11  C   UNL     1      -4.109 -11.530   9.404  0.00  0.00    +0.084 C 
ATOM     12  C   UNL     1      -4.150 -10.450  10.525  0.00  0.00    +0.161 C 
ATOM     13  C   UNL     1      -4.001 -12.832  10.220  0.00  0.00    +0.036 C 
ATOM     14  C   UNL     1      -3.228 -12.414  11.452  0.00  0.00    +0.087 C 
ATOM     15  C   UNL     1      -5.254 -10.321   7.545  0.00  0.00    +0.074 C 
ATOM     16  C   UNL     1      -5.476  -9.706  10.657  0.00  0.00    +0.232 C 
ATOM     17  C   UNL     1      -5.071  -8.991   8.302  0.00  0.00    +0.123 C 
ATOM     20  C   UNL     1      -5.114 -12.747   7.555  0.00  0.00    +0.105 C 
ATOM     34  H   UNL     1      -6.654  -8.388   9.592  0.00  0.00    +0.149 HD
ENDROOT
BRANCH  15  18
ATOM     18  C   UNL     1      -6.604 -10.249   6.800  0.00  0.00    +0.029 C 
BRANCH  18  21
ATOM     21  C   UNL     1      -6.509  -9.419   5.534  0.00  0.00    +0.097 C 
BRANCH  21  23
ATOM      3  O   UNL     1      -7.791  -7.651   6.456  0.00  0.00    -0.276 OA
ATOM      4  O   UNL     1      -9.325  -7.610   1.754  0.00  0.00    -0.377 OA
ATOM     10  N   UNL     1      -8.334  -8.311   4.297  0.00  0.00    -0.297 N 
ATOM     23  C   UNL     1      -7.600  -8.380   5.479  0.00  0.00    +0.216 C 
ATOM     26  C   UNL     1      -9.408  -7.328   4.158  0.00  0.00    +0.136 C 
ATOM     27  C   UNL     1      -8.220  -9.242   3.169  0.00  0.00    +0.136 C 
ATOM     31  C   UNL     1      -9.324  -6.638   2.804  0.00  0.00    +0.179 C 
ATOM     32  C   UNL     1      -8.191  -8.474   1.854  0.00  0.00    +0.179 C 
ENDBRANCH  21  23
ENDBRANCH  18  21
ENDBRANCH  15  18
BRANCH   7  19
ATOM     19  C   UNL     1      -3.104 -10.369  12.738  0.00  0.00    +0.120 C 
BRANCH  19  22
ATOM     22  C   UNL     1      -3.512 -10.639  14.163  0.00  0.00    -0.033 A 
ATOM     24  C   UNL     1      -4.863 -10.736  14.494  0.00  0.00    +0.007 A 
ATOM     25  C   UNL     1      -2.538 -10.792  15.150  0.00  0.00    +0.007 A 
ATOM     28  C   UNL     1      -5.241 -10.987  15.813  0.00  0.00    +0.027 A 
ATOM     29  C   UNL     1      -2.916 -11.042  16.469  0.00  0.00    +0.027 A 
ATOM     30  C   UNL     1      -4.267 -11.140  16.801  0.00  0.00    +0.088 A 
BRANCH  30   1
ATOM      1  S   UNL     1      -4.740 -11.456  18.452  0.00  0.00    -0.006 S 
ATOM      5  O   UNL     1      -3.578 -11.922  19.195  0.00  0.00    -0.170 OA
ATOM      6  O   UNL     1      -5.491 -10.304  18.931  0.00  0.00    -0.170 OA
ATOM     33  C   UNL     1      -5.865 -12.829  18.333  0.00  0.00    +0.200 C 
ENDBRANCH  30   1
ENDBRANCH  19  22
ENDBRANCH   7  19
TORSDOF 6
ENDMDL
MODEL 10
REMARK VINA RESULT:      -6.2     31.465     35.240
REMARK  Name = 45361091
REMARK  8 active torsions:
REMARK  status: ('A' for Active; 'I' for Inactive)
REMARK    1  A    between atoms: S_1  and  C_30
REMARK    2  A    between atoms: S_1  and  C_33
REMARK    3  A    between atoms: N_7  and  C_19
REMARK    4  A    between atoms: N_8  and  C_20
REMARK    5  A    between atoms: C_15  and  C_18
REMARK    6  A    between atoms: C_18  and  C_21
REMARK    7  A    between atoms: C_19  and  C_22
REMARK    8  A    between atoms: C_21  and  C_23
REMARK                            x       y       z     vdW  Elec       q    Type
REMARK                         _______ _______ _______ _____ _____    ______ ____
ROOT
ATOM      2  O   UNL     1     -11.899  -4.730  12.501  0.00  0.00    -0.274 OA
ATOM      7  N   UNL     1     -14.585  -4.896  12.732  0.00  0.00    -0.286 NA
ATOM      8  N   UNL     1     -13.190  -7.729  14.582  0.00  0.00    -0.296 NA
ATOM      9  N   UNL     1     -11.470  -5.413  14.643  0.00  0.00    -0.312 N 
ATOM     11  C   UNL     1     -14.239  -6.727  14.288  0.00  0.00    +0.084 C 
ATOM     12  C   UNL     1     -13.799  -5.279  13.920  0.00  0.00    +0.161 C 
ATOM     13  C   UNL     1     -15.141  -7.099  13.096  0.00  0.00    +0.036 C 
ATOM     14  C   UNL     1     -15.748  -5.775  12.686  0.00  0.00    +0.087 C 
ATOM     15  C   UNL     1     -12.365  -7.421  15.783  0.00  0.00    +0.074 C 
ATOM     16  C   UNL     1     -12.317  -5.119  13.591  0.00  0.00    +0.232 C 
ATOM     17  C   UNL     1     -11.925  -5.950  15.909  0.00  0.00    +0.123 C 
ATOM     20  C   UNL     1     -13.770  -9.078  14.693  0.00  0.00    +0.105 C 
ATOM     34  H   UNL     1     -10.476  -5.251  14.514  0.00  0.00    +0.149 HD
ENDROOT
BRANCH  15  18
ATOM     18  C   UNL     1     -11.089  -8.290  15.799  0.00  0.00    +0.029 C 
BRANCH  18  21
ATOM     21  C   UNL     1     -10.224  -8.005  17.012  0.00  0.00    +0.097 C 
BRANCH  21  23
ATOM      3  O   UNL     1     -11.234  -9.456  18.591  0.00  0.00    -0.276 OA
ATOM      4  O   UNL     1      -6.942 -11.769  17.756  0.00  0.00    -0.377 OA
ATOM     10  N   UNL     1      -9.014  -9.883  18.058  0.00  0.00    -0.297 N 
ATOM     23  C   UNL     1     -10.210  -9.176  17.960  0.00  0.00    +0.216 C 
ATOM     26  C   UNL     1      -8.916 -11.036  18.952  0.00  0.00    +0.136 C 
ATOM     27  C   UNL     1      -7.748  -9.504  17.423  0.00  0.00    +0.136 C 
ATOM     31  C   UNL     1      -8.215 -12.192  18.253  0.00  0.00    +0.179 C 
ATOM     32  C   UNL     1      -7.090 -10.724  16.791  0.00  0.00    +0.179 C 
ENDBRANCH  21  23
ENDBRANCH  18  21
ENDBRANCH  15  18
BRANCH   7  19
ATOM     19  C   UNL     1     -14.959  -3.489  12.717  0.00  0.00    +0.120 C 
BRANCH  19  22
ATOM     22  C   UNL     1     -15.027  -2.940  11.316  0.00  0.00    -0.033 A 
ATOM     24  C   UNL     1     -15.888  -1.883  11.023  0.00  0.00    +0.007 A 
ATOM     25  C   UNL     1     -14.227  -3.488  10.314  0.00  0.00    +0.007 A 
ATOM     28  C   UNL     1     -15.950  -1.374   9.726  0.00  0.00    +0.027 A 
ATOM     29  C   UNL     1     -14.290  -2.979   9.017  0.00  0.00    +0.027 A 
ATOM     30  C   UNL     1     -15.151  -1.922   8.723  0.00  0.00    +0.088 A 
BRANCH  30   1
ATOM      1  S   UNL     1     -15.227  -1.283   7.099  0.00  0.00    -0.006 S 
ATOM      5  O   UNL     1     -16.248  -0.246   7.048  0.00  0.00    -0.170 OA
ATOM      6  O   UNL     1     -13.868  -0.981   6.673  0.00  0.00    -0.170 OA
ATOM     33  C   UNL     1     -15.817  -2.643   6.116  0.00  0.00    +0.200 C 
ENDBRANCH  30   1
ENDBRANCH  19  22
ENDBRANCH   7  19
TORSDOF 6
ENDMDL
