MODEL 1
REMARK VINA RESULT:      -5.8      0.000      0.000
REMARK  Name = 38027204
REMARK  12 active torsions:
REMARK  status: ('A' for Active; 'I' for Inactive)
REMARK    1  A    between atoms: N_3  and  C_10
REMARK    2  A    between atoms: N_4  and  C_22
REMARK    3  A    between atoms: N_4  and  C_23
REMARK    4  A    between atoms: C_5  and  C_9
REMARK    5  A    between atoms: C_6  and  C_10
REMARK    6  A    between atoms: C_8  and  C_16
REMARK    7  A    between atoms: C_9  and  C_17
REMARK    8  A    between atoms: C_9  and  C_18
REMARK    9  A    between atoms: C_11  and  C_20
REMARK   10  A    between atoms: C_13  and  C_19
REMARK   11  A    between atoms: C_16  and  C_21
REMARK   12  A    between atoms: C_22  and  C_24
REMARK                            x       y       z     vdW  Elec       q    Type
REMARK                         _______ _______ _______ _____ _____    ______ ____
ROOT
ATOM      5  C   UNL     1      -7.347 -10.304  16.189  0.00  0.00    +0.000 C 
ATOM      6  C   UNL     1      -6.411  -9.996  14.995  0.00  0.00    +0.032 C 
ATOM      7  C   UNL     1      -6.690  -9.875  17.510  0.00  0.00    +0.012 C 
ATOM      8  C   UNL     1      -5.344 -10.587  17.748  0.00  0.00    +0.023 C 
ATOM     11  C   UNL     1      -4.465 -10.556  16.514  0.00  0.00    -0.073 C 
ATOM     12  C   UNL     1      -4.957 -10.277  15.294  0.00  0.00    -0.022 C 
ATOM     20  C   UNL     1      -2.998 -10.810  16.722  0.00  0.00    +0.039 C 
ENDROOT
BRANCH   5   9
ATOM      9  C   UNL     1      -8.707  -9.615  16.038  0.00  0.00    -0.013 C 
ATOM     17  C   UNL     1      -9.834 -10.639  16.126  0.00  0.00    +0.007 C 
ATOM     18  C   UNL     1      -8.875  -8.532  17.099  0.00  0.00    +0.007 C 
ENDBRANCH   5   9
BRANCH   6  10
ATOM     10  C   UNL     1      -6.834 -10.775  13.743  0.00  0.00    +0.112 C 
BRANCH  10   3
ATOM      1  O   UNL     1      -5.850  -9.019  11.644  0.00  0.00    -0.276 OA
ATOM      3  N   UNL     1      -5.717 -10.992  12.879  0.00  0.00    -0.315 N 
ATOM     19  C   UNL     1      -5.316 -10.093  11.897  0.00  0.00    +0.216 C 
ATOM     30  H   UNL     1      -5.158 -11.829  13.018  0.00  0.00    +0.149 HD
BRANCH  19  13
ATOM     13  C   UNL     1      -4.121 -10.523  11.113  0.00  0.00    +0.075 C 
ATOM     14  C   UNL     1      -3.253  -9.479  10.473  0.00  0.00    +0.013 C 
ATOM     15  C   UNL     1      -2.750 -10.249  11.660  0.00  0.00    +0.013 C 
ENDBRANCH  19  13
ENDBRANCH  10   3
ENDBRANCH   6  10
BRANCH   8  16
ATOM     16  C   UNL     1      -5.557 -12.024  18.236  0.00  0.00    +0.103 C 
BRANCH  16  21
ATOM      2  O   UNL     1      -6.444 -11.521  20.405  0.00  0.00    -0.276 OA
ATOM      4  N   UNL     1      -7.727 -12.888  19.040  0.00  0.00    -0.300 N 
ATOM     21  C   UNL     1      -6.602 -12.110  19.333  0.00  0.00    +0.216 C 
ATOM     23  C   UNL     1      -7.892 -13.575  17.765  0.00  0.00    +0.132 C 
BRANCH   4  22
ATOM     22  C   UNL     1      -8.821 -13.071  19.991  0.00  0.00    +0.142 C 
BRANCH  22  24
ATOM     24  C   UNL     1      -9.991 -12.183  19.678  0.00  0.00    -0.030 A 
ATOM     25  C   UNL     1      -9.931 -10.821  19.975  0.00  0.00    +0.005 A 
ATOM     26  C   UNL     1     -11.138 -12.719  19.093  0.00  0.00    +0.005 A 
ATOM     27  C   UNL     1     -11.017  -9.995  19.685  0.00  0.00    +0.000 A 
ATOM     28  C   UNL     1     -12.225 -11.893  18.804  0.00  0.00    +0.000 A 
ATOM     29  C   UNL     1     -12.164 -10.532  19.099  0.00  0.00    +0.000 A 
ENDBRANCH  22  24
ENDBRANCH   4  22
ENDBRANCH  16  21
ENDBRANCH   8  16
TORSDOF 8
ENDMDL
MODEL 2
REMARK VINA RESULT:      -5.6      1.940      8.323
REMARK  Name = 38027204
REMARK  12 active torsions:
REMARK  status: ('A' for Active; 'I' for Inactive)
REMARK    1  A    between atoms: N_3  and  C_10
REMARK    2  A    between atoms: N_4  and  C_22
REMARK    3  A    between atoms: N_4  and  C_23
REMARK    4  A    between atoms: C_5  and  C_9
REMARK    5  A    between atoms: C_6  and  C_10
REMARK    6  A    between atoms: C_8  and  C_16
REMARK    7  A    between atoms: C_9  and  C_17
REMARK    8  A    between atoms: C_9  and  C_18
REMARK    9  A    between atoms: C_11  and  C_20
REMARK   10  A    between atoms: C_13  and  C_19
REMARK   11  A    between atoms: C_16  and  C_21
REMARK   12  A    between atoms: C_22  and  C_24
REMARK                            x       y       z     vdW  Elec       q    Type
REMARK                         _______ _______ _______ _____ _____    ______ ____
ROOT
ATOM      5  C   UNL     1      -5.727 -11.505  17.587  0.00  0.00    +0.000 C 
ATOM      6  C   UNL     1      -7.021 -10.753  17.184  0.00  0.00    +0.032 C 
ATOM      7  C   UNL     1      -4.496 -10.820  16.974  0.00  0.00    +0.012 C 
ATOM      8  C   UNL     1      -4.567 -10.763  15.436  0.00  0.00    +0.023 C 
ATOM     11  C   UNL     1      -5.921 -10.281  14.953  0.00  0.00    -0.073 C 
ATOM     12  C   UNL     1      -7.002 -10.271  15.752  0.00  0.00    -0.022 C 
ATOM     20  C   UNL     1      -5.991  -9.768  13.542  0.00  0.00    +0.039 C 
ENDROOT
BRANCH   5   9
ATOM      9  C   UNL     1      -5.571 -11.588  19.109  0.00  0.00    -0.013 C 
ATOM     17  C   UNL     1      -4.144 -11.985  19.475  0.00  0.00    +0.007 C 
ATOM     18  C   UNL     1      -5.945 -10.259  19.756  0.00  0.00    +0.007 C 
ENDBRANCH   5   9
BRANCH   6  10
ATOM     10  C   UNL     1      -8.261 -11.625  17.413  0.00  0.00    +0.112 C 
BRANCH  10   3
ATOM      1  O   UNL     1      -9.013 -11.830  20.215  0.00  0.00    -0.276 OA
ATOM      3  N   UNL     1      -9.277 -10.889  18.099  0.00  0.00    -0.315 N 
ATOM     19  C   UNL     1      -9.570 -11.054  19.448  0.00  0.00    +0.216 C 
ATOM     30  H   UNL     1      -9.784 -10.175  17.583  0.00  0.00    +0.149 HD
BRANCH  19  13
ATOM     13  C   UNL     1     -10.668 -10.179  19.956  0.00  0.00    +0.075 C 
ATOM     14  C   UNL     1     -11.741  -9.730  19.009  0.00  0.00    +0.013 C 
ATOM     15  C   UNL     1     -12.055 -10.741  20.074  0.00  0.00    +0.013 C 
ENDBRANCH  19  13
ENDBRANCH  10   3
ENDBRANCH   6  10
BRANCH   8  16
ATOM     16  C   UNL     1      -4.214 -12.119  14.816  0.00  0.00    +0.103 C 
BRANCH  16  21
ATOM      2  O   UNL     1      -2.236 -11.437  13.646  0.00  0.00    -0.276 OA
ATOM      4  N   UNL     1      -3.881 -12.493  12.397  0.00  0.00    -0.300 N 
ATOM     21  C   UNL     1      -3.344 -11.977  13.581  0.00  0.00    +0.216 C 
ATOM     23  C   UNL     1      -5.192 -13.127  12.345  0.00  0.00    +0.132 C 
BRANCH   4  22
ATOM     22  C   UNL     1      -3.167 -12.435  11.123  0.00  0.00    +0.142 C 
BRANCH  22  24
ATOM     24  C   UNL     1      -3.645 -11.301  10.263  0.00  0.00    -0.030 A 
ATOM     25  C   UNL     1      -3.340  -9.985  10.612  0.00  0.00    +0.005 A 
ATOM     26  C   UNL     1      -4.394 -11.563   9.116  0.00  0.00    +0.005 A 
ATOM     27  C   UNL     1      -3.785  -8.931   9.813  0.00  0.00    +0.000 A 
ATOM     28  C   UNL     1      -4.839 -10.508   8.318  0.00  0.00    +0.000 A 
ATOM     29  C   UNL     1      -4.534  -9.193   8.666  0.00  0.00    +0.000 A 
ENDBRANCH  22  24
ENDBRANCH   4  22
ENDBRANCH  16  21
ENDBRANCH   8  16
TORSDOF 8
ENDMDL
MODEL 3
REMARK VINA RESULT:      -5.5      1.771      2.453
REMARK  Name = 38027204
REMARK  12 active torsions:
REMARK  status: ('A' for Active; 'I' for Inactive)
REMARK    1  A    between atoms: N_3  and  C_10
REMARK    2  A    between atoms: N_4  and  C_22
REMARK    3  A    between atoms: N_4  and  C_23
REMARK    4  A    between atoms: C_5  and  C_9
REMARK    5  A    between atoms: C_6  and  C_10
REMARK    6  A    between atoms: C_8  and  C_16
REMARK    7  A    between atoms: C_9  and  C_17
REMARK    8  A    between atoms: C_9  and  C_18
REMARK    9  A    between atoms: C_11  and  C_20
REMARK   10  A    between atoms: C_13  and  C_19
REMARK   11  A    between atoms: C_16  and  C_21
REMARK   12  A    between atoms: C_22  and  C_24
REMARK                            x       y       z     vdW  Elec       q    Type
REMARK                         _______ _______ _______ _____ _____    ______ ____
ROOT
ATOM      5  C   UNL     1      -7.303 -10.101  16.872  0.00  0.00    +0.000 C 
ATOM      6  C   UNL     1      -5.826  -9.760  16.552  0.00  0.00    +0.032 C 
ATOM      7  C   UNL     1      -7.504 -10.239  18.389  0.00  0.00    +0.012 C 
ATOM      8  C   UNL     1      -6.607 -11.333  18.999  0.00  0.00    +0.023 C 
ATOM     11  C   UNL     1      -5.175 -11.222  18.514  0.00  0.00    -0.073 C 
ATOM     12  C   UNL     1      -4.844 -10.503  17.426  0.00  0.00    -0.022 C 
ATOM     20  C   UNL     1      -4.127 -11.920  19.335  0.00  0.00    +0.039 C 
ENDROOT
BRANCH   5   9
ATOM      9  C   UNL     1      -8.264  -9.046  16.315  0.00  0.00    -0.013 C 
ATOM     17  C   UNL     1      -9.100  -9.635  15.183  0.00  0.00    +0.007 C 
ATOM     18  C   UNL     1      -9.159  -8.504  17.424  0.00  0.00    +0.007 C 
ENDBRANCH   5   9
BRANCH   6  10
ATOM     10  C   UNL     1      -5.503 -10.029  15.078  0.00  0.00    +0.112 C 
BRANCH  10   3
ATOM      1  O   UNL     1      -4.120 -10.693  12.607  0.00  0.00    -0.276 OA
ATOM      3  N   UNL     1      -4.123 -10.366  14.915  0.00  0.00    -0.315 N 
ATOM     19  C   UNL     1      -3.544 -10.671  13.688  0.00  0.00    +0.216 C 
ATOM     30  H   UNL     1      -3.522 -10.338  15.733  0.00  0.00    +0.149 HD
BRANCH  19  13
ATOM     13  C   UNL     1      -2.088 -10.991  13.752  0.00  0.00    +0.075 C 
ATOM     14  C   UNL     1      -1.463 -11.293  15.082  0.00  0.00    +0.013 C 
ATOM     15  C   UNL     1      -1.661 -12.392  14.080  0.00  0.00    +0.013 C 
ENDBRANCH  19  13
ENDBRANCH  10   3
ENDBRANCH   6  10
BRANCH   8  16
ATOM     16  C   UNL     1      -7.174 -12.730  18.722  0.00  0.00    +0.103 C 
BRANCH  16  21
ATOM      2  O   UNL     1      -9.100 -12.694  20.149  0.00  0.00    -0.276 OA
ATOM      4  N   UNL     1      -9.479 -13.026  17.884  0.00  0.00    -0.300 N 
ATOM     21  C   UNL     1      -8.663 -12.812  19.000  0.00  0.00    +0.216 C 
ATOM     23  C   UNL     1      -8.940 -13.163  16.537  0.00  0.00    +0.132 C 
BRANCH   4  22
ATOM     22  C   UNL     1     -10.933 -13.129  17.986  0.00  0.00    +0.142 C 
BRANCH  22  24
ATOM     24  C   UNL     1     -11.604 -11.797  17.811  0.00  0.00    -0.030 A 
ATOM     25  C   UNL     1     -11.766 -10.950  18.906  0.00  0.00    +0.005 A 
ATOM     26  C   UNL     1     -12.065 -11.407  16.553  0.00  0.00    +0.005 A 
ATOM     27  C   UNL     1     -12.390  -9.712  18.745  0.00  0.00    +0.000 A 
ATOM     28  C   UNL     1     -12.689 -10.170  16.392  0.00  0.00    +0.000 A 
ATOM     29  C   UNL     1     -12.850  -9.323  17.487  0.00  0.00    +0.000 A 
ENDBRANCH  22  24
ENDBRANCH   4  22
ENDBRANCH  16  21
ENDBRANCH   8  16
TORSDOF 8
ENDMDL
MODEL 4
REMARK VINA RESULT:      -5.5     27.339     30.045
REMARK  Name = 38027204
REMARK  12 active torsions:
REMARK  status: ('A' for Active; 'I' for Inactive)
REMARK    1  A    between atoms: N_3  and  C_10
REMARK    2  A    between atoms: N_4  and  C_22
REMARK    3  A    between atoms: N_4  and  C_23
REMARK    4  A    between atoms: C_5  and  C_9
REMARK    5  A    between atoms: C_6  and  C_10
REMARK    6  A    between atoms: C_8  and  C_16
REMARK    7  A    between atoms: C_9  and  C_17
REMARK    8  A    between atoms: C_9  and  C_18
REMARK    9  A    between atoms: C_11  and  C_20
REMARK   10  A    between atoms: C_13  and  C_19
REMARK   11  A    between atoms: C_16  and  C_21
REMARK   12  A    between atoms: C_22  and  C_24
REMARK                            x       y       z     vdW  Elec       q    Type
REMARK                         _______ _______ _______ _____ _____    ______ ____
ROOT
ATOM      5  C   UNL     1      14.218   9.421  19.017  0.00  0.00    +0.000 C 
ATOM      6  C   UNL     1      14.553   8.041  18.398  0.00  0.00    +0.032 C 
ATOM      7  C   UNL     1      15.499  10.116  19.505  0.00  0.00    +0.012 C 
ATOM      8  C   UNL     1      16.251   9.278  20.557  0.00  0.00    +0.023 C 
ATOM     11  C   UNL     1      16.386   7.829  20.132  0.00  0.00    -0.073 C 
ATOM     12  C   UNL     1      15.628   7.298  19.156  0.00  0.00    -0.022 C 
ATOM     20  C   UNL     1      17.444   7.018  20.825  0.00  0.00    +0.039 C 
ENDROOT
BRANCH   5   9
ATOM      9  C   UNL     1      13.483  10.327  18.023  0.00  0.00    -0.013 C 
ATOM     17  C   UNL     1      13.419  11.756  18.553  0.00  0.00    +0.007 C 
ATOM     18  C   UNL     1      14.166  10.284  16.661  0.00  0.00    +0.007 C 
ENDBRANCH   5   9
BRANCH   6  10
ATOM     10  C   UNL     1      13.301   7.162  18.295  0.00  0.00    +0.112 C 
BRANCH  10   3
ATOM      1  O   UNL     1      11.051   8.141  19.856  0.00  0.00    -0.276 OA
ATOM      3  N   UNL     1      12.882   6.723  19.588  0.00  0.00    -0.315 N 
ATOM     19  C   UNL     1      11.788   7.250  20.264  0.00  0.00    +0.216 C 
ATOM     30  H   UNL     1      13.384   5.952  20.019  0.00  0.00    +0.149 HD
BRANCH  19  13
ATOM     13  C   UNL     1      11.530   6.639  21.602  0.00  0.00    +0.075 C 
ATOM     14  C   UNL     1      10.118   6.533  22.097  0.00  0.00    +0.013 C 
ATOM     15  C   UNL     1      10.860   5.298  21.676  0.00  0.00    +0.013 C 
ENDBRANCH  19  13
ENDBRANCH  10   3
ENDBRANCH   6  10
BRANCH   8  16
ATOM     16  C   UNL     1      15.581   9.387  21.931  0.00  0.00    +0.103 C 
BRANCH  16  21
ATOM      2  O   UNL     1      16.515  11.498  22.579  0.00  0.00    -0.276 OA
ATOM      4  N   UNL     1      14.205  11.306  22.659  0.00  0.00    -0.300 N 
ATOM     21  C   UNL     1      15.495  10.822  22.417  0.00  0.00    +0.216 C 
ATOM     23  C   UNL     1      13.014  10.489  22.459  0.00  0.00    +0.132 C 
BRANCH   4  22
ATOM     22  C   UNL     1      13.954  12.666  23.130  0.00  0.00    +0.142 C 
BRANCH  22  24
ATOM     24  C   UNL     1      12.617  13.179  22.680  0.00  0.00    -0.030 A 
ATOM     25  C   UNL     1      11.549  13.218  23.576  0.00  0.00    +0.005 A 
ATOM     26  C   UNL     1      12.442  13.614  21.366  0.00  0.00    +0.005 A 
ATOM     27  C   UNL     1      10.305  13.694  23.158  0.00  0.00    +0.000 A 
ATOM     28  C   UNL     1      11.198  14.089  20.949  0.00  0.00    +0.000 A 
ATOM     29  C   UNL     1      10.131  14.129  21.845  0.00  0.00    +0.000 A 
ENDBRANCH  22  24
ENDBRANCH   4  22
ENDBRANCH  16  21
ENDBRANCH   8  16
TORSDOF 8
ENDMDL
MODEL 5
REMARK VINA RESULT:      -5.5     25.299     28.762
REMARK  Name = 38027204
REMARK  12 active torsions:
REMARK  status: ('A' for Active; 'I' for Inactive)
REMARK    1  A    between atoms: N_3  and  C_10
REMARK    2  A    between atoms: N_4  and  C_22
REMARK    3  A    between atoms: N_4  and  C_23
REMARK    4  A    between atoms: C_5  and  C_9
REMARK    5  A    between atoms: C_6  and  C_10
REMARK    6  A    between atoms: C_8  and  C_16
REMARK    7  A    between atoms: C_9  and  C_17
REMARK    8  A    between atoms: C_9  and  C_18
REMARK    9  A    between atoms: C_11  and  C_20
REMARK   10  A    between atoms: C_13  and  C_19
REMARK   11  A    between atoms: C_16  and  C_21
REMARK   12  A    between atoms: C_22  and  C_24
REMARK                            x       y       z     vdW  Elec       q    Type
REMARK                         _______ _______ _______ _____ _____    ______ ____
ROOT
ATOM      5  C   UNL     1       9.102   8.857   5.941  0.00  0.00    +0.000 C 
ATOM      6  C   UNL     1       9.042   8.806   7.489  0.00  0.00    +0.032 C 
ATOM      7  C   UNL     1       8.469   7.593   5.339  0.00  0.00    +0.012 C 
ATOM      8  C   UNL     1       9.175   6.307   5.812  0.00  0.00    +0.023 C 
ATOM     11  C   UNL     1       9.394   6.305   7.312  0.00  0.00    -0.073 C 
ATOM     12  C   UNL     1       9.317   7.429   8.046  0.00  0.00    -0.022 C 
ATOM     20  C   UNL     1       9.659   4.972   7.954  0.00  0.00    +0.039 C 
ENDROOT
BRANCH   5   9
ATOM      9  C   UNL     1       8.402  10.102   5.387  0.00  0.00    -0.013 C 
ATOM     17  C   UNL     1       9.392  10.967   4.613  0.00  0.00    +0.007 C 
ATOM     18  C   UNL     1       7.226   9.702   4.503  0.00  0.00    +0.007 C 
ENDBRANCH   5   9
BRANCH   6  10
ATOM     10  C   UNL     1      10.014   9.813   8.114  0.00  0.00    +0.112 C 
BRANCH  10   3
ATOM      1  O   UNL     1       9.094  12.554   7.797  0.00  0.00    -0.276 OA
ATOM      3  N   UNL     1       9.348  10.627   9.082  0.00  0.00    -0.315 N 
ATOM     19  C   UNL     1       8.942  11.934   8.843  0.00  0.00    +0.216 C 
ATOM     30  H   UNL     1       9.120  10.212   9.981  0.00  0.00    +0.149 HD
BRANCH  19  13
ATOM     13  C   UNL     1       8.263  12.594   9.997  0.00  0.00    +0.075 C 
ATOM     14  C   UNL     1       8.590  12.147  11.391  0.00  0.00    +0.013 C 
ATOM     15  C   UNL     1       9.061  13.486  10.903  0.00  0.00    +0.013 C 
ENDBRANCH  19  13
ENDBRANCH  10   3
ENDBRANCH   6  10
BRANCH   8  16
ATOM     16  C   UNL     1      10.495   6.094   5.064  0.00  0.00    +0.103 C 
BRANCH  16  21
ATOM      2  O   UNL     1      10.386   3.748   4.581  0.00  0.00    -0.276 OA
ATOM      4  N   UNL     1      10.457   5.189   2.765  0.00  0.00    -0.300 N 
ATOM     21  C   UNL     1      10.441   4.896   4.132  0.00  0.00    +0.216 C 
ATOM     23  C   UNL     1      10.522   6.554   2.258  0.00  0.00    +0.132 C 
BRANCH   4  22
ATOM     22  C   UNL     1      10.410   4.147   1.741  0.00  0.00    +0.142 C 
BRANCH  22  24
ATOM     24  C   UNL     1      11.722   4.004   1.026  0.00  0.00    -0.030 A 
ATOM     25  C   UNL     1      12.874   3.681   1.742  0.00  0.00    +0.005 A 
ATOM     26  C   UNL     1      11.789   4.194  -0.355  0.00  0.00    +0.005 A 
ATOM     27  C   UNL     1      14.094   3.549   1.078  0.00  0.00    +0.000 A 
ATOM     28  C   UNL     1      13.009   4.061  -1.018  0.00  0.00    +0.000 A 
ATOM     29  C   UNL     1      14.161   3.738  -0.302  0.00  0.00    +0.000 A 
ENDBRANCH  22  24
ENDBRANCH   4  22
ENDBRANCH  16  21
ENDBRANCH   8  16
TORSDOF 8
ENDMDL
MODEL 6
REMARK VINA RESULT:      -5.5     22.251     25.282
REMARK  Name = 38027204
REMARK  12 active torsions:
REMARK  status: ('A' for Active; 'I' for Inactive)
REMARK    1  A    between atoms: N_3  and  C_10
REMARK    2  A    between atoms: N_4  and  C_22
REMARK    3  A    between atoms: N_4  and  C_23
REMARK    4  A    between atoms: C_5  and  C_9
REMARK    5  A    between atoms: C_6  and  C_10
REMARK    6  A    between atoms: C_8  and  C_16
REMARK    7  A    between atoms: C_9  and  C_17
REMARK    8  A    between atoms: C_9  and  C_18
REMARK    9  A    between atoms: C_11  and  C_20
REMARK   10  A    between atoms: C_13  and  C_19
REMARK   11  A    between atoms: C_16  and  C_21
REMARK   12  A    between atoms: C_22  and  C_24
REMARK                            x       y       z     vdW  Elec       q    Type
REMARK                         _______ _______ _______ _____ _____    ______ ____
ROOT
ATOM      5  C   UNL     1     -12.338   9.293  31.872  0.00  0.00    +0.000 C 
ATOM      6  C   UNL     1     -11.585   9.815  33.121  0.00  0.00    +0.032 C 
ATOM      7  C   UNL     1     -13.752   8.828  32.253  0.00  0.00    +0.012 C 
ATOM      8  C   UNL     1     -13.730   7.709  33.312  0.00  0.00    +0.023 C 
ATOM     11  C   UNL     1     -12.794   8.036  34.458  0.00  0.00    -0.073 C 
ATOM     12  C   UNL     1     -11.850   8.990  34.358  0.00  0.00    -0.022 C 
ATOM     20  C   UNL     1     -12.997   7.272  35.736  0.00  0.00    +0.039 C 
ENDROOT
BRANCH   5   9
ATOM      9  C   UNL     1     -12.420  10.358  30.773  0.00  0.00    -0.013 C 
ATOM     17  C   UNL     1     -11.594   9.937  29.562  0.00  0.00    +0.007 C 
ATOM     18  C   UNL     1     -13.873  10.603  30.378  0.00  0.00    +0.007 C 
ENDBRANCH   5   9
BRANCH   6  10
ATOM     10  C   UNL     1     -10.074   9.885  32.868  0.00  0.00    +0.112 C 
BRANCH  10   3
ATOM      1  O   UNL     1      -7.989  11.722  33.725  0.00  0.00    -0.276 OA
ATOM      3  N   UNL     1      -9.352   9.869  34.102  0.00  0.00    -0.315 N 
ATOM     19  C   UNL     1      -8.366  10.792  34.429  0.00  0.00    +0.216 C 
ATOM     30  H   UNL     1      -9.604   9.172  34.797  0.00  0.00    +0.149 HD
BRANCH  19  13
ATOM     13  C   UNL     1      -7.746  10.588  35.771  0.00  0.00    +0.075 C 
ATOM     14  C   UNL     1      -7.760   9.218  36.382  0.00  0.00    +0.013 C 
ATOM     15  C   UNL     1      -6.472   9.799  35.876  0.00  0.00    +0.013 C 
ENDBRANCH  19  13
ENDBRANCH  10   3
ENDBRANCH   6  10
BRANCH   8  16
ATOM     16  C   UNL     1     -13.376   6.358  32.681  0.00  0.00    +0.103 C 
BRANCH  16  21
ATOM      2  O   UNL     1     -15.423   5.548  33.630  0.00  0.00    -0.276 OA
ATOM      4  N   UNL     1     -13.995   3.967  32.713  0.00  0.00    -0.300 N 
ATOM     21  C   UNL     1     -14.366   5.271  33.057  0.00  0.00    +0.216 C 
ATOM     23  C   UNL     1     -12.740   3.664  32.036  0.00  0.00    +0.132 C 
BRANCH   4  22
ATOM     22  C   UNL     1     -14.839   2.810  33.006  0.00  0.00    +0.142 C 
BRANCH  22  24
ATOM     24  C   UNL     1     -15.241   2.078  31.759  0.00  0.00    -0.030 A 
ATOM     25  C   UNL     1     -15.966   2.738  30.767  0.00  0.00    +0.005 A 
ATOM     26  C   UNL     1     -14.891   0.738  31.593  0.00  0.00    +0.005 A 
ATOM     27  C   UNL     1     -16.341   2.058  29.608  0.00  0.00    +0.000 A 
ATOM     28  C   UNL     1     -15.267   0.058  30.433  0.00  0.00    +0.000 A 
ATOM     29  C   UNL     1     -15.990   0.718  29.441  0.00  0.00    +0.000 A 
ENDBRANCH  22  24
ENDBRANCH   4  22
ENDBRANCH  16  21
ENDBRANCH   8  16
TORSDOF 8
ENDMDL
MODEL 7
REMARK VINA RESULT:      -5.4     19.677     21.731
REMARK  Name = 38027204
REMARK  12 active torsions:
REMARK  status: ('A' for Active; 'I' for Inactive)
REMARK    1  A    between atoms: N_3  and  C_10
REMARK    2  A    between atoms: N_4  and  C_22
REMARK    3  A    between atoms: N_4  and  C_23
REMARK    4  A    between atoms: C_5  and  C_9
REMARK    5  A    between atoms: C_6  and  C_10
REMARK    6  A    between atoms: C_8  and  C_16
REMARK    7  A    between atoms: C_9  and  C_17
REMARK    8  A    between atoms: C_9  and  C_18
REMARK    9  A    between atoms: C_11  and  C_20
REMARK   10  A    between atoms: C_13  and  C_19
REMARK   11  A    between atoms: C_16  and  C_21
REMARK   12  A    between atoms: C_22  and  C_24
REMARK                            x       y       z     vdW  Elec       q    Type
REMARK                         _______ _______ _______ _____ _____    ______ ____
ROOT
ATOM      5  C   UNL     1     -11.881   9.982  18.564  0.00  0.00    +0.000 C 
ATOM      6  C   UNL     1     -11.746   8.567  17.948  0.00  0.00    +0.032 C 
ATOM      7  C   UNL     1     -11.235  10.023  19.957  0.00  0.00    +0.012 C 
ATOM      8  C   UNL     1     -11.871   9.006  20.925  0.00  0.00    +0.023 C 
ATOM     11  C   UNL     1     -12.019   7.639  20.287  0.00  0.00    -0.073 C 
ATOM     12  C   UNL     1     -11.946   7.460  18.956  0.00  0.00    -0.022 C 
ATOM     20  C   UNL     1     -12.206   6.475  21.220  0.00  0.00    +0.039 C 
ENDROOT
BRANCH   5   9
ATOM      9  C   UNL     1     -11.252  11.054  17.669  0.00  0.00    -0.013 C 
ATOM     17  C   UNL     1     -11.158  12.381  18.416  0.00  0.00    +0.007 C 
ATOM     18  C   UNL     1      -9.877  10.605  17.187  0.00  0.00    +0.007 C 
ENDBRANCH   5   9
BRANCH   6  10
ATOM     10  C   UNL     1     -12.722   8.376  16.780  0.00  0.00    +0.112 C 
BRANCH  10   3
ATOM      1  O   UNL     1     -12.944   9.671  14.185  0.00  0.00    -0.276 OA
ATOM      3  N   UNL     1     -12.019   8.048  15.580  0.00  0.00    -0.315 N 
ATOM     19  C   UNL     1     -12.188   8.725  14.378  0.00  0.00    +0.216 C 
ATOM     30  H   UNL     1     -11.323   7.308  15.618  0.00  0.00    +0.149 HD
BRANCH  19  13
ATOM     13  C   UNL     1     -11.349   8.215  13.254  0.00  0.00    +0.075 C 
ATOM     14  C   UNL     1     -10.118   7.416  13.566  0.00  0.00    +0.013 C 
ATOM     15  C   UNL     1     -11.321   6.740  12.973  0.00  0.00    +0.013 C 
ENDBRANCH  19  13
ENDBRANCH  10   3
ENDBRANCH   6  10
BRANCH   8  16
ATOM     16  C   UNL     1     -13.217   9.514  21.453  0.00  0.00    +0.103 C 
BRANCH  16  21
ATOM      2  O   UNL     1     -12.329  11.571  22.305  0.00  0.00    -0.276 OA
ATOM      4  N   UNL     1     -13.763  10.392  23.697  0.00  0.00    -0.300 N 
ATOM     21  C   UNL     1     -13.052  10.591  22.509  0.00  0.00    +0.216 C 
ATOM     23  C   UNL     1     -14.610   9.226  23.914  0.00  0.00    +0.132 C 
BRANCH   4  22
ATOM     22  C   UNL     1     -13.709  11.338  24.809  0.00  0.00    +0.142 C 
BRANCH  22  24
ATOM     24  C   UNL     1     -12.768  10.884  25.887  0.00  0.00    -0.030 A 
ATOM     25  C   UNL     1     -11.406  10.761  25.617  0.00  0.00    +0.005 A 
ATOM     26  C   UNL     1     -13.257  10.583  27.159  0.00  0.00    +0.005 A 
ATOM     27  C   UNL     1     -10.531  10.338  26.619  0.00  0.00    +0.000 A 
ATOM     28  C   UNL     1     -12.383  10.160  28.160  0.00  0.00    +0.000 A 
ATOM     29  C   UNL     1     -11.020  10.039  27.890  0.00  0.00    +0.000 A 
ENDBRANCH  22  24
ENDBRANCH   4  22
ENDBRANCH  16  21
ENDBRANCH   8  16
TORSDOF 8
ENDMDL
MODEL 8
REMARK VINA RESULT:      -5.3     19.827     22.063
REMARK  Name = 38027204
REMARK  12 active torsions:
REMARK  status: ('A' for Active; 'I' for Inactive)
REMARK    1  A    between atoms: N_3  and  C_10
REMARK    2  A    between atoms: N_4  and  C_22
REMARK    3  A    between atoms: N_4  and  C_23
REMARK    4  A    between atoms: C_5  and  C_9
REMARK    5  A    between atoms: C_6  and  C_10
REMARK    6  A    between atoms: C_8  and  C_16
REMARK    7  A    between atoms: C_9  and  C_17
REMARK    8  A    between atoms: C_9  and  C_18
REMARK    9  A    between atoms: C_11  and  C_20
REMARK   10  A    between atoms: C_13  and  C_19
REMARK   11  A    between atoms: C_16  and  C_21
REMARK   12  A    between atoms: C_22  and  C_24
REMARK                            x       y       z     vdW  Elec       q    Type
REMARK                         _______ _______ _______ _____ _____    ______ ____
ROOT
ATOM      5  C   UNL     1     -10.797  10.372  17.218  0.00  0.00    +0.000 C 
ATOM      6  C   UNL     1     -10.362   8.918  16.906  0.00  0.00    +0.032 C 
ATOM      7  C   UNL     1     -10.571  10.692  18.703  0.00  0.00    +0.012 C 
ATOM      8  C   UNL     1     -11.351   9.739  19.629  0.00  0.00    +0.023 C 
ATOM     11  C   UNL     1     -11.184   8.290  19.216  0.00  0.00    -0.073 C 
ATOM     12  C   UNL     1     -10.728   7.943  17.999  0.00  0.00    -0.022 C 
ATOM     20  C   UNL     1     -11.511   7.250  20.251  0.00  0.00    +0.039 C 
ENDROOT
BRANCH   5   9
ATOM      9  C   UNL     1     -10.050  11.388  16.348  0.00  0.00    -0.013 C 
ATOM     17  C   UNL     1     -11.012  12.067  15.379  0.00  0.00    +0.007 C 
ATOM     18  C   UNL     1      -9.346  12.420  17.223  0.00  0.00    +0.007 C 
ENDBRANCH   5   9
BRANCH   6  10
ATOM     10  C   UNL     1     -10.951   8.437  15.575  0.00  0.00    +0.112 C 
BRANCH  10   3
ATOM      1  O   UNL     1     -13.396   9.719  14.660  0.00  0.00    -0.276 OA
ATOM      3  N   UNL     1     -12.294   7.979  15.751  0.00  0.00    -0.315 N 
ATOM     19  C   UNL     1     -13.409   8.661  15.277  0.00  0.00    +0.216 C 
ATOM     30  H   UNL     1     -12.439   7.084  16.209  0.00  0.00    +0.149 HD
BRANCH  19  13
ATOM     13  C   UNL     1     -14.713   7.998  15.573  0.00  0.00    +0.075 C 
ATOM     14  C   UNL     1     -15.906   8.320  14.720  0.00  0.00    +0.013 C 
ATOM     15  C   UNL     1     -15.248   6.975  14.612  0.00  0.00    +0.013 C 
ENDBRANCH  19  13
ENDBRANCH  10   3
ENDBRANCH   6  10
BRANCH   8  16
ATOM     16  C   UNL     1     -12.833  10.123  19.696  0.00  0.00    +0.103 C 
BRANCH  16  21
ATOM      2  O   UNL     1     -12.781  12.292  20.717  0.00  0.00    -0.276 OA
ATOM      4  N   UNL     1     -13.786  10.587  21.928  0.00  0.00    -0.300 N 
ATOM     21  C   UNL     1     -13.122  11.109  20.813  0.00  0.00    +0.216 C 
ATOM     23  C   UNL     1     -14.179   9.186  22.019  0.00  0.00    +0.132 C 
BRANCH   4  22
ATOM     22  C   UNL     1     -14.136  11.407  23.085  0.00  0.00    +0.142 C 
BRANCH  22  24
ATOM     24  C   UNL     1     -13.322  11.049  24.295  0.00  0.00    -0.030 A 
ATOM     25  C   UNL     1     -13.949  10.540  25.431  0.00  0.00    +0.005 A 
ATOM     26  C   UNL     1     -11.938  11.227  24.282  0.00  0.00    +0.005 A 
ATOM     27  C   UNL     1     -13.192  10.208  26.556  0.00  0.00    +0.000 A 
ATOM     28  C   UNL     1     -11.182  10.895  25.406  0.00  0.00    +0.000 A 
ATOM     29  C   UNL     1     -11.809  10.385  26.542  0.00  0.00    +0.000 A 
ENDBRANCH  22  24
ENDBRANCH   4  22
ENDBRANCH  16  21
ENDBRANCH   8  16
TORSDOF 8
ENDMDL
MODEL 9
REMARK VINA RESULT:      -5.3     26.178     30.790
REMARK  Name = 38027204
REMARK  12 active torsions:
REMARK  status: ('A' for Active; 'I' for Inactive)
REMARK    1  A    between atoms: N_3  and  C_10
REMARK    2  A    between atoms: N_4  and  C_22
REMARK    3  A    between atoms: N_4  and  C_23
REMARK    4  A    between atoms: C_5  and  C_9
REMARK    5  A    between atoms: C_6  and  C_10
REMARK    6  A    between atoms: C_8  and  C_16
REMARK    7  A    between atoms: C_9  and  C_17
REMARK    8  A    between atoms: C_9  and  C_18
REMARK    9  A    between atoms: C_11  and  C_20
REMARK   10  A    between atoms: C_13  and  C_19
REMARK   11  A    between atoms: C_16  and  C_21
REMARK   12  A    between atoms: C_22  and  C_24
REMARK                            x       y       z     vdW  Elec       q    Type
REMARK                         _______ _______ _______ _____ _____    ______ ____
ROOT
ATOM      5  C   UNL     1      11.026   6.313   6.031  0.00  0.00    +0.000 C 
ATOM      6  C   UNL     1      10.505   6.212   4.576  0.00  0.00    +0.032 C 
ATOM      7  C   UNL     1      11.477   7.748   6.341  0.00  0.00    +0.012 C 
ATOM      8  C   UNL     1      12.592   8.225   5.389  0.00  0.00    +0.023 C 
ATOM     11  C   UNL     1      12.267   7.915   3.941  0.00  0.00    -0.073 C 
ATOM     12  C   UNL     1      11.322   7.022   3.598  0.00  0.00    -0.022 C 
ATOM     20  C   UNL     1      13.024   8.688   2.898  0.00  0.00    +0.039 C 
ENDROOT
BRANCH   5   9
ATOM      9  C   UNL     1       9.965   5.873   7.046  0.00  0.00    -0.013 C 
ATOM     17  C   UNL     1      10.592   5.694   8.425  0.00  0.00    +0.007 C 
ATOM     18  C   UNL     1       8.825   6.884   7.096  0.00  0.00    +0.007 C 
ENDBRANCH   5   9
BRANCH   6  10
ATOM     10  C   UNL     1      10.448   4.752   4.108  0.00  0.00    +0.112 C 
BRANCH  10   3
ATOM      1  O   UNL     1      10.055   3.853   1.371  0.00  0.00    -0.276 OA
ATOM      3  N   UNL     1      11.451   4.497   3.122  0.00  0.00    -0.315 N 
ATOM     19  C   UNL     1      11.170   4.067   1.831  0.00  0.00    +0.216 C 
ATOM     30  H   UNL     1      12.420   4.681   3.365  0.00  0.00    +0.149 HD
BRANCH  19  13
ATOM     13  C   UNL     1      12.372   3.866   0.968  0.00  0.00    +0.075 C 
ATOM     14  C   UNL     1      13.585   4.718   1.195  0.00  0.00    +0.013 C 
ATOM     15  C   UNL     1      13.610   3.264   1.568  0.00  0.00    +0.013 C 
ENDBRANCH  19  13
ENDBRANCH  10   3
ENDBRANCH   6  10
BRANCH   8  16
ATOM     16  C   UNL     1      13.948   7.634   5.787  0.00  0.00    +0.103 C 
BRANCH  16  21
ATOM      2  O   UNL     1      15.055   9.637   6.500  0.00  0.00    -0.276 OA
ATOM      4  N   UNL     1      16.065   8.432   4.794  0.00  0.00    -0.300 N 
ATOM     21  C   UNL     1      15.061   8.665   5.740  0.00  0.00    +0.216 C 
ATOM     23  C   UNL     1      16.050   7.276   3.907  0.00  0.00    +0.132 C 
BRANCH   4  22
ATOM     22  C   UNL     1      17.205   9.331   4.625  0.00  0.00    +0.142 C 
BRANCH  22  24
ATOM     24  C   UNL     1      18.481   8.720   5.126  0.00  0.00    -0.030 A 
ATOM     25  C   UNL     1      19.291   7.989   4.257  0.00  0.00    +0.005 A 
ATOM     26  C   UNL     1      18.857   8.882   6.459  0.00  0.00    +0.005 A 
ATOM     27  C   UNL     1      20.477   7.420   4.722  0.00  0.00    +0.000 A 
ATOM     28  C   UNL     1      20.043   8.313   6.924  0.00  0.00    +0.000 A 
ATOM     29  C   UNL     1      20.853   7.583   6.055  0.00  0.00    +0.000 A 
ENDBRANCH  22  24
ENDBRANCH   4  22
ENDBRANCH  16  21
ENDBRANCH   8  16
TORSDOF 8
ENDMDL
MODEL 10
REMARK VINA RESULT:      -5.1     27.926     30.694
REMARK  Name = 38027204
REMARK  12 active torsions:
REMARK  status: ('A' for Active; 'I' for Inactive)
REMARK    1  A    between atoms: N_3  and  C_10
REMARK    2  A    between atoms: N_4  and  C_22
REMARK    3  A    between atoms: N_4  and  C_23
REMARK    4  A    between atoms: C_5  and  C_9
REMARK    5  A    between atoms: C_6  and  C_10
REMARK    6  A    between atoms: C_8  and  C_16
REMARK    7  A    between atoms: C_9  and  C_17
REMARK    8  A    between atoms: C_9  and  C_18
REMARK    9  A    between atoms: C_11  and  C_20
REMARK   10  A    between atoms: C_13  and  C_19
REMARK   11  A    between atoms: C_16  and  C_21
REMARK   12  A    between atoms: C_22  and  C_24
REMARK                            x       y       z     vdW  Elec       q    Type
REMARK                         _______ _______ _______ _____ _____    ______ ____
ROOT
ATOM      5  C   UNL     1      14.166   9.501  18.712  0.00  0.00    +0.000 C 
ATOM      6  C   UNL     1      14.307   8.052  18.182  0.00  0.00    +0.032 C 
ATOM      7  C   UNL     1      15.515  10.012  19.240  0.00  0.00    +0.012 C 
ATOM      8  C   UNL     1      16.067   9.128  20.376  0.00  0.00    +0.023 C 
ATOM     11  C   UNL     1      15.990   7.654  20.031  0.00  0.00    -0.073 C 
ATOM     12  C   UNL     1      15.207   7.194  19.038  0.00  0.00    -0.022 C 
ATOM     20  C   UNL     1      16.867   6.727  20.824  0.00  0.00    +0.039 C 
ENDROOT
BRANCH   5   9
ATOM      9  C   UNL     1      13.638  10.452  17.632  0.00  0.00    -0.013 C 
ATOM     17  C   UNL     1      13.726  11.898  18.110  0.00  0.00    +0.007 C 
ATOM     18  C   UNL     1      14.413  10.263  16.333  0.00  0.00    +0.007 C 
ENDBRANCH   5   9
BRANCH   6  10
ATOM     10  C   UNL     1      12.936   7.377  18.046  0.00  0.00    +0.112 C 
BRANCH  10   3
ATOM      1  O   UNL     1      10.571   8.717  19.078  0.00  0.00    -0.276 OA
ATOM      3  N   UNL     1      12.327   7.205  19.327  0.00  0.00    -0.315 N 
ATOM     19  C   UNL     1      11.191   7.891  19.739  0.00  0.00    +0.216 C 
ATOM     30  H   UNL     1      12.720   6.510  19.956  0.00  0.00    +0.149 HD
BRANCH  19  13
ATOM     13  C   UNL     1      10.725   7.553  21.116  0.00  0.00    +0.075 C 
ATOM     14  C   UNL     1      11.670   6.866  22.059  0.00  0.00    +0.013 C 
ATOM     15  C   UNL     1      11.295   8.302  22.286  0.00  0.00    +0.013 C 
ENDBRANCH  19  13
ENDBRANCH  10   3
ENDBRANCH   6  10
BRANCH   8  16
ATOM     16  C   UNL     1      15.354   9.420  21.700  0.00  0.00    +0.103 C 
BRANCH  16  21
ATOM      2  O   UNL     1      16.832  11.076  22.606  0.00  0.00    -0.276 OA
ATOM      4  N   UNL     1      14.622  11.705  22.290  0.00  0.00    -0.300 N 
ATOM     21  C   UNL     1      15.687  10.799  22.240  0.00  0.00    +0.216 C 
ATOM     23  C   UNL     1      13.277  11.355  21.852  0.00  0.00    +0.132 C 
BRANCH   4  22
ATOM     22  C   UNL     1      14.780  13.071  22.784  0.00  0.00    +0.142 C 
BRANCH  22  24
ATOM     24  C   UNL     1      14.569  13.159  24.268  0.00  0.00    -0.030 A 
ATOM     25  C   UNL     1      15.667  13.224  25.125  0.00  0.00    +0.005 A 
ATOM     26  C   UNL     1      13.275  13.175  24.789  0.00  0.00    +0.005 A 
ATOM     27  C   UNL     1      15.471  13.305  26.504  0.00  0.00    +0.000 A 
ATOM     28  C   UNL     1      13.080  13.256  26.168  0.00  0.00    +0.000 A 
ATOM     29  C   UNL     1      14.178  13.322  27.025  0.00  0.00    +0.000 A 
ENDBRANCH  22  24
ENDBRANCH   4  22
ENDBRANCH  16  21
ENDBRANCH   8  16
TORSDOF 8
ENDMDL
