MODEL 1
REMARK VINA RESULT:      -6.7      0.000      0.000
REMARK  Name = 75536990
REMARK  5 active torsions:
REMARK  status: ('A' for Active; 'I' for Inactive)
REMARK    1  A    between atoms: O_4  and  C_17
REMARK    2  A    between atoms: O_4  and  C_23
REMARK    3  A    between atoms: N_6  and  C_14
REMARK    4  A    between atoms: C_14  and  C_16
REMARK    5  A    between atoms: C_15  and  C_17
REMARK                            x       y       z     vdW  Elec       q    Type
REMARK                         _______ _______ _______ _____ _____    ______ ____
ROOT
ATOM      2  O   UNL     1      12.196   7.032  18.715  0.00  0.00    -0.252 OA
ATOM      3  O   UNL     1      12.877  11.881  13.769  0.00  0.00    -0.272 OA
ATOM      5  N   UNL     1      12.947   8.975  17.628  0.00  0.00    -0.278 N 
ATOM      6  N   UNL     1      14.035   8.299  19.475  0.00  0.00    -0.279 N 
ATOM      7  N   UNL     1      13.729  10.583  15.496  0.00  0.00    -0.295 N 
ATOM      8  C   UNL     1      13.927  10.018  17.879  0.00  0.00    +0.112 C 
ATOM      9  C   UNL     1      14.791   9.444  18.999  0.00  0.00    +0.133 C 
ATOM     10  C   UNL     1      14.684  10.357  16.597  0.00  0.00    +0.132 C 
ATOM     11  C   UNL     1      12.033   9.099  16.508  0.00  0.00    +0.128 C 
ATOM     12  C   UNL     1      12.806   9.465  15.244  0.00  0.00    +0.127 C 
ATOM     13  C   UNL     1      12.961   7.983  18.620  0.00  0.00    +0.306 C 
ATOM     15  C   UNL     1      13.670  11.727  14.702  0.00  0.00    +0.253 C 
ENDROOT
BRANCH   6  14
ATOM     14  C   UNL     1      14.460   7.523  20.620  0.00  0.00    +0.144 C 
BRANCH  14  16
ATOM      1  F   UNL     1      19.668   5.484  19.971  0.00  0.00    -0.205 F 
ATOM     16  C   UNL     1      15.849   6.980  20.446  0.00  0.00    -0.030 A 
ATOM     18  C   UNL     1      16.175   6.249  19.304  0.00  0.00    +0.008 A 
ATOM     19  C   UNL     1      16.813   7.205  21.428  0.00  0.00    +0.008 A 
ATOM     20  C   UNL     1      17.465   5.744  19.143  0.00  0.00    +0.038 A 
ATOM     21  C   UNL     1      18.103   6.700  21.269  0.00  0.00    +0.038 A 
ATOM     22  C   UNL     1      18.429   5.969  20.125  0.00  0.00    +0.123 A 
ENDBRANCH  14  16
ENDBRANCH   6  14
BRANCH  15  17
ATOM     17  C   UNL     1      14.648  12.826  15.029  0.00  0.00    +0.324 C 
BRANCH  17   4
ATOM      4  O   UNL     1      15.760  12.641  14.186  0.00  0.00    -0.483 OA
BRANCH   4  23
ATOM     23  C   UNL     1      16.997  12.547  14.783  0.00  0.00    +0.121 A 
ATOM     24  C   UNL     1      17.209  13.114  16.040  0.00  0.00    +0.045 A 
ATOM     25  C   UNL     1      18.038  11.885  14.132  0.00  0.00    +0.045 A 
ATOM     26  C   UNL     1      18.462  13.018  16.646  0.00  0.00    +0.004 A 
ATOM     27  C   UNL     1      19.290  11.789  14.737  0.00  0.00    +0.004 A 
ATOM     28  C   UNL     1      19.502  12.356  15.994  0.00  0.00    +0.000 A 
ENDBRANCH   4  23
ENDBRANCH  17   4
ENDBRANCH  15  17
TORSDOF 5
ENDMDL
MODEL 2
REMARK VINA RESULT:      -6.7     27.631     30.451
REMARK  Name = 75536990
REMARK  5 active torsions:
REMARK  status: ('A' for Active; 'I' for Inactive)
REMARK    1  A    between atoms: O_4  and  C_17
REMARK    2  A    between atoms: O_4  and  C_23
REMARK    3  A    between atoms: N_6  and  C_14
REMARK    4  A    between atoms: C_14  and  C_16
REMARK    5  A    between atoms: C_15  and  C_17
REMARK                            x       y       z     vdW  Elec       q    Type
REMARK                         _______ _______ _______ _____ _____    ______ ____
ROOT
ATOM      2  O   UNL     1      -1.529 -11.447  15.228  0.00  0.00    -0.252 OA
ATOM      3  O   UNL     1      -6.514 -11.173  20.078  0.00  0.00    -0.272 OA
ATOM      5  N   UNL     1      -3.679 -11.454  16.175  0.00  0.00    -0.278 N 
ATOM      6  N   UNL     1      -3.455 -12.105  14.036  0.00  0.00    -0.279 N 
ATOM      7  N   UNL     1      -5.644 -11.969  18.078  0.00  0.00    -0.295 N 
ATOM      8  C   UNL     1      -5.040 -11.673  15.714  0.00  0.00    +0.112 C 
ATOM      9  C   UNL     1      -4.859 -12.315  14.341  0.00  0.00    +0.133 C 
ATOM     10  C   UNL     1      -5.812 -12.523  16.721  0.00  0.00    +0.132 C 
ATOM     11  C   UNL     1      -3.443 -10.989  17.530  0.00  0.00    +0.128 C 
ATOM     12  C   UNL     1      -4.246 -11.833  18.516  0.00  0.00    +0.127 C 
ATOM     13  C   UNL     1      -2.736 -11.641  15.155  0.00  0.00    +0.306 C 
ATOM     15  C   UNL     1      -6.681 -11.611  18.936  0.00  0.00    +0.253 C 
ENDROOT
BRANCH   6  14
ATOM     14  C   UNL     1      -2.885 -12.477  12.760  0.00  0.00    +0.144 C 
BRANCH  14  16
ATOM      1  F   UNL     1      -3.834  -8.578   8.810  0.00  0.00    -0.205 F 
ATOM     16  C   UNL     1      -3.139 -11.438  11.706  0.00  0.00    -0.030 A 
ATOM     18  C   UNL     1      -4.193 -11.597  10.808  0.00  0.00    +0.008 A 
ATOM     19  C   UNL     1      -2.318 -10.312  11.626  0.00  0.00    +0.008 A 
ATOM     20  C   UNL     1      -4.428 -10.631   9.830  0.00  0.00    +0.038 A 
ATOM     21  C   UNL     1      -2.553  -9.346  10.647  0.00  0.00    +0.038 A 
ATOM     22  C   UNL     1      -3.608  -9.506   9.749  0.00  0.00    +0.123 A 
ENDBRANCH  14  16
ENDBRANCH   6  14
BRANCH  15  17
ATOM     17  C   UNL     1      -8.083 -11.779  18.408  0.00  0.00    +0.324 C 
BRANCH  17   4
ATOM      4  O   UNL     1      -8.883 -10.839  19.084  0.00  0.00    -0.483 OA
BRANCH   4  23
ATOM     23  C   UNL     1      -9.565  -9.922  18.316  0.00  0.00    +0.121 A 
ATOM     24  C   UNL     1     -10.953  -9.830  18.407  0.00  0.00    +0.045 A 
ATOM     25  C   UNL     1      -8.867  -9.082  17.448  0.00  0.00    +0.045 A 
ATOM     26  C   UNL     1     -11.644  -8.900  17.631  0.00  0.00    +0.004 A 
ATOM     27  C   UNL     1      -9.557  -8.152  16.671  0.00  0.00    +0.004 A 
ATOM     28  C   UNL     1     -10.945  -8.061  16.763  0.00  0.00    +0.000 A 
ENDBRANCH   4  23
ENDBRANCH  17   4
ENDBRANCH  15  17
TORSDOF 5
ENDMDL
MODEL 3
REMARK VINA RESULT:      -6.6     29.844     32.670
REMARK  Name = 75536990
REMARK  5 active torsions:
REMARK  status: ('A' for Active; 'I' for Inactive)
REMARK    1  A    between atoms: O_4  and  C_17
REMARK    2  A    between atoms: O_4  and  C_23
REMARK    3  A    between atoms: N_6  and  C_14
REMARK    4  A    between atoms: C_14  and  C_16
REMARK    5  A    between atoms: C_15  and  C_17
REMARK                            x       y       z     vdW  Elec       q    Type
REMARK                         _______ _______ _______ _____ _____    ______ ____
ROOT
ATOM      2  O   UNL     1     -18.545   0.113  26.720  0.00  0.00    -0.252 OA
ATOM      3  O   UNL     1     -16.877   4.331  21.440  0.00  0.00    -0.272 OA
ATOM      5  N   UNL     1     -17.605   1.936  25.573  0.00  0.00    -0.278 N 
ATOM      6  N   UNL     1     -16.935   1.544  27.682  0.00  0.00    -0.279 N 
ATOM      7  N   UNL     1     -16.402   3.297  23.465  0.00  0.00    -0.295 N 
ATOM      8  C   UNL     1     -16.720   3.044  25.888  0.00  0.00    +0.112 C 
ATOM      9  C   UNL     1     -16.112   2.652  27.233  0.00  0.00    +0.133 C 
ATOM     10  C   UNL     1     -15.707   3.252  24.765  0.00  0.00    +0.132 C 
ATOM     11  C   UNL     1     -18.255   1.879  24.276  0.00  0.00    +0.128 C 
ATOM     12  C   UNL     1     -17.231   2.118  23.171  0.00  0.00    +0.127 C 
ATOM     13  C   UNL     1     -17.793   1.078  26.666  0.00  0.00    +0.306 C 
ATOM     15  C   UNL     1     -16.304   4.329  22.533  0.00  0.00    +0.253 C 
ENDROOT
BRANCH   6  14
ATOM     14  C   UNL     1     -16.759   0.936  28.983  0.00  0.00    +0.144 C 
BRANCH  14  16
ATOM      1  F   UNL     1     -12.885   3.630  32.056  0.00  0.00    -0.205 F 
ATOM     16  C   UNL     1     -15.726   1.655  29.803  0.00  0.00    -0.030 A 
ATOM     18  C   UNL     1     -16.073   2.805  30.511  0.00  0.00    +0.008 A 
ATOM     19  C   UNL     1     -14.419   1.172  29.856  0.00  0.00    +0.008 A 
ATOM     20  C   UNL     1     -15.114   3.472  31.272  0.00  0.00    +0.038 A 
ATOM     21  C   UNL     1     -13.459   1.839  30.617  0.00  0.00    +0.038 A 
ATOM     22  C   UNL     1     -13.806   2.989  31.325  0.00  0.00    +0.123 A 
ENDBRANCH  14  16
ENDBRANCH   6  14
BRANCH  15  17
ATOM     17  C   UNL     1     -15.437   5.502  22.914  0.00  0.00    +0.324 C 
BRANCH  17   4
ATOM      4  O   UNL     1     -14.175   5.276  22.335  0.00  0.00    -0.483 OA
BRANCH   4  23
ATOM     23  C   UNL     1     -13.536   6.358  21.772  0.00  0.00    +0.121 A 
ATOM     24  C   UNL     1     -12.268   6.204  21.210  0.00  0.00    +0.045 A 
ATOM     25  C   UNL     1     -14.155   7.608  21.762  0.00  0.00    +0.045 A 
ATOM     26  C   UNL     1     -11.621   7.299  20.639  0.00  0.00    +0.004 A 
ATOM     27  C   UNL     1     -13.508   8.703  21.191  0.00  0.00    +0.004 A 
ATOM     28  C   UNL     1     -12.240   8.549  20.630  0.00  0.00    +0.000 A 
ENDBRANCH   4  23
ENDBRANCH  17   4
ENDBRANCH  15  17
TORSDOF 5
ENDMDL
MODEL 4
REMARK VINA RESULT:      -6.5     14.290     16.840
REMARK  Name = 75536990
REMARK  5 active torsions:
REMARK  status: ('A' for Active; 'I' for Inactive)
REMARK    1  A    between atoms: O_4  and  C_17
REMARK    2  A    between atoms: O_4  and  C_23
REMARK    3  A    between atoms: N_6  and  C_14
REMARK    4  A    between atoms: C_14  and  C_16
REMARK    5  A    between atoms: C_15  and  C_17
REMARK                            x       y       z     vdW  Elec       q    Type
REMARK                         _______ _______ _______ _____ _____    ______ ____
ROOT
ATOM      2  O   UNL     1      11.636   7.957   5.118  0.00  0.00    -0.252 OA
ATOM      3  O   UNL     1      15.671   5.365   0.073  0.00  0.00    -0.272 OA
ATOM      5  N   UNL     1      12.419   6.477   3.470  0.00  0.00    -0.278 N 
ATOM      6  N   UNL     1      10.356   6.153   4.299  0.00  0.00    -0.279 N 
ATOM      7  N   UNL     1      13.602   5.695   1.075  0.00  0.00    -0.295 N 
ATOM      8  C   UNL     1      11.964   5.243   2.851  0.00  0.00    +0.112 C 
ATOM      9  C   UNL     1      10.495   5.154   3.255  0.00  0.00    +0.133 C 
ATOM     10  C   UNL     1      12.212   5.282   1.344  0.00  0.00    +0.132 C 
ATOM     11  C   UNL     1      13.748   6.982   3.179  0.00  0.00    +0.128 C 
ATOM     12  C   UNL     1      13.985   6.984   1.671  0.00  0.00    +0.127 C 
ATOM     13  C   UNL     1      11.490   6.983   4.390  0.00  0.00    +0.306 C 
ATOM     15  C   UNL     1      14.519   4.984   0.304  0.00  0.00    +0.253 C 
ENDROOT
BRANCH   6  14
ATOM     14  C   UNL     1       9.123   6.324   5.036  0.00  0.00    +0.144 C 
BRANCH  14  16
ATOM      1  F   UNL     1       9.637   4.718  10.409  0.00  0.00    -0.205 F 
ATOM     16  C   UNL     1       9.260   5.895   6.469  0.00  0.00    -0.030 A 
ATOM     18  C   UNL     1       9.714   4.612   6.774  0.00  0.00    +0.008 A 
ATOM     19  C   UNL     1       8.934   6.781   7.496  0.00  0.00    +0.008 A 
ATOM     20  C   UNL     1       9.841   4.214   8.104  0.00  0.00    +0.038 A 
ATOM     21  C   UNL     1       9.061   6.384   8.827  0.00  0.00    +0.038 A 
ATOM     22  C   UNL     1       9.515   5.100   9.131  0.00  0.00    +0.123 A 
ENDBRANCH  14  16
ENDBRANCH   6  14
BRANCH  15  17
ATOM     17  C   UNL     1      14.048   3.672  -0.267  0.00  0.00    +0.324 C 
BRANCH  17   4
ATOM      4  O   UNL     1      13.898   3.865  -1.653  0.00  0.00    -0.483 OA
BRANCH   4  23
ATOM     23  C   UNL     1      12.630   3.745  -2.174  0.00  0.00    +0.121 A 
ATOM     24  C   UNL     1      12.106   2.481  -2.447  0.00  0.00    +0.045 A 
ATOM     25  C   UNL     1      11.868   4.885  -2.429  0.00  0.00    +0.045 A 
ATOM     26  C   UNL     1      10.820   2.358  -2.975  0.00  0.00    +0.004 A 
ATOM     27  C   UNL     1      10.583   4.763  -2.957  0.00  0.00    +0.004 A 
ATOM     28  C   UNL     1      10.059   3.499  -3.230  0.00  0.00    +0.000 A 
ENDBRANCH   4  23
ENDBRANCH  17   4
ENDBRANCH  15  17
TORSDOF 5
ENDMDL
MODEL 5
REMARK VINA RESULT:      -6.5     29.277     31.961
REMARK  Name = 75536990
REMARK  5 active torsions:
REMARK  status: ('A' for Active; 'I' for Inactive)
REMARK    1  A    between atoms: O_4  and  C_17
REMARK    2  A    between atoms: O_4  and  C_23
REMARK    3  A    between atoms: N_6  and  C_14
REMARK    4  A    between atoms: C_14  and  C_16
REMARK    5  A    between atoms: C_15  and  C_17
REMARK                            x       y       z     vdW  Elec       q    Type
REMARK                         _______ _______ _______ _____ _____    ______ ____
ROOT
ATOM      2  O   UNL     1     -14.616  -7.057  14.979  0.00  0.00    -0.252 OA
ATOM      3  O   UNL     1      -9.802 -10.707  18.435  0.00  0.00    -0.272 OA
ATOM      5  N   UNL     1     -12.498  -7.798  15.677  0.00  0.00    -0.278 N 
ATOM      6  N   UNL     1     -12.621  -5.908  14.466  0.00  0.00    -0.279 N 
ATOM      7  N   UNL     1     -10.565  -8.756  17.434  0.00  0.00    -0.295 N 
ATOM      8  C   UNL     1     -11.114  -7.419  15.446  0.00  0.00    +0.112 C 
ATOM      9  C   UNL     1     -11.217  -6.033  14.815  0.00  0.00    +0.133 C 
ATOM     10  C   UNL     1     -10.325  -7.470  16.753  0.00  0.00    +0.132 C 
ATOM     11  C   UNL     1     -12.800  -9.011  16.414  0.00  0.00    +0.128 C 
ATOM     12  C   UNL     1     -11.980  -9.054  17.701  0.00  0.00    +0.127 C 
ATOM     13  C   UNL     1     -13.399  -6.938  15.032  0.00  0.00    +0.306 C 
ATOM     15  C   UNL     1      -9.576  -9.647  17.844  0.00  0.00    +0.253 C 
ENDROOT
BRANCH   6  14
ATOM     14  C   UNL     1     -13.131  -4.766  13.740  0.00  0.00    +0.144 C 
BRANCH  14  16
ATOM      1  F   UNL     1     -11.218  -4.610   8.447  0.00  0.00    -0.205 F 
ATOM     16  C   UNL     1     -12.621  -4.724  12.329  0.00  0.00    -0.030 A 
ATOM     18  C   UNL     1     -12.160  -3.524  11.788  0.00  0.00    +0.008 A 
ATOM     19  C   UNL     1     -12.607  -5.886  11.557  0.00  0.00    +0.008 A 
ATOM     20  C   UNL     1     -11.687  -3.485  10.477  0.00  0.00    +0.038 A 
ATOM     21  C   UNL     1     -12.134  -5.848  10.246  0.00  0.00    +0.038 A 
ATOM     22  C   UNL     1     -11.673  -4.647   9.706  0.00  0.00    +0.123 A 
ENDBRANCH  14  16
ENDBRANCH   6  14
BRANCH  15  17
ATOM     17  C   UNL     1      -8.152  -9.267  17.529  0.00  0.00    +0.324 C 
BRANCH  17   4
ATOM      4  O   UNL     1      -7.332 -10.035  18.377  0.00  0.00    -0.483 OA
BRANCH   4  23
ATOM     23  C   UNL     1      -6.091 -10.394  17.901  0.00  0.00    +0.121 A 
ATOM     24  C   UNL     1      -5.239 -11.167  18.689  0.00  0.00    +0.045 A 
ATOM     25  C   UNL     1      -5.686  -9.988  16.629  0.00  0.00    +0.045 A 
ATOM     26  C   UNL     1      -3.982 -11.533  18.207  0.00  0.00    +0.004 A 
ATOM     27  C   UNL     1      -4.430 -10.354  16.146  0.00  0.00    +0.004 A 
ATOM     28  C   UNL     1      -3.578 -11.126  16.936  0.00  0.00    +0.000 A 
ENDBRANCH   4  23
ENDBRANCH  17   4
ENDBRANCH  15  17
TORSDOF 5
ENDMDL
MODEL 6
REMARK VINA RESULT:      -6.4     28.710     30.489
REMARK  Name = 75536990
REMARK  5 active torsions:
REMARK  status: ('A' for Active; 'I' for Inactive)
REMARK    1  A    between atoms: O_4  and  C_17
REMARK    2  A    between atoms: O_4  and  C_23
REMARK    3  A    between atoms: N_6  and  C_14
REMARK    4  A    between atoms: C_14  and  C_16
REMARK    5  A    between atoms: C_15  and  C_17
REMARK                            x       y       z     vdW  Elec       q    Type
REMARK                         _______ _______ _______ _____ _____    ______ ____
ROOT
ATOM      2  O   UNL     1      -5.412  -9.297   7.669  0.00  0.00    -0.252 OA
ATOM      3  O   UNL     1      -2.754 -10.959  13.884  0.00  0.00    -0.272 OA
ATOM      5  N   UNL     1      -5.246  -9.521  10.003  0.00  0.00    -0.278 N 
ATOM      6  N   UNL     1      -7.242  -8.979   9.123  0.00  0.00    -0.279 N 
ATOM      7  N   UNL     1      -4.541 -10.696  12.424  0.00  0.00    -0.295 N 
ATOM      8  C   UNL     1      -6.103  -9.288  11.153  0.00  0.00    +0.112 C 
ATOM      9  C   UNL     1      -7.494  -9.134  10.544  0.00  0.00    +0.133 C 
ATOM     10  C   UNL     1      -5.967 -10.430  12.157  0.00  0.00    +0.132 C 
ATOM     11  C   UNL     1      -3.851  -9.868  10.201  0.00  0.00    +0.128 C 
ATOM     12  C   UNL     1      -3.736 -10.991  11.228  0.00  0.00    +0.127 C 
ATOM     13  C   UNL     1      -5.903  -9.267   8.790  0.00  0.00    +0.306 C 
ATOM     15  C   UNL     1      -3.946 -10.709  13.684  0.00  0.00    +0.253 C 
ENDROOT
BRANCH   6  14
ATOM     14  C   UNL     1      -8.305  -8.699   8.182  0.00  0.00    +0.144 C 
BRANCH  14  16
ATOM      1  F   UNL     1     -10.627  -3.647   9.071  0.00  0.00    -0.205 F 
ATOM     16  C   UNL     1      -8.923  -7.351   8.419  0.00  0.00    -0.030 A 
ATOM     18  C   UNL     1      -8.183  -6.192   8.187  0.00  0.00    +0.008 A 
ATOM     19  C   UNL     1     -10.240  -7.258   8.871  0.00  0.00    +0.008 A 
ATOM     20  C   UNL     1      -8.758  -4.941   8.408  0.00  0.00    +0.038 A 
ATOM     21  C   UNL     1     -10.815  -6.007   9.092  0.00  0.00    +0.038 A 
ATOM     22  C   UNL     1     -10.074  -4.848   8.860  0.00  0.00    +0.123 A 
ENDBRANCH  14  16
ENDBRANCH   6  14
BRANCH  15  17
ATOM     17  C   UNL     1      -4.840 -10.392  14.856  0.00  0.00    +0.324 C 
BRANCH  17   4
ATOM      4  O   UNL     1      -4.018 -10.377  15.998  0.00  0.00    -0.483 OA
BRANCH   4  23
ATOM     23  C   UNL     1      -4.596 -10.725  17.198  0.00  0.00    +0.121 A 
ATOM     24  C   UNL     1      -5.873 -10.263  17.516  0.00  0.00    +0.045 A 
ATOM     25  C   UNL     1      -3.907 -11.542  18.095  0.00  0.00    +0.045 A 
ATOM     26  C   UNL     1      -6.460 -10.616  18.731  0.00  0.00    +0.004 A 
ATOM     27  C   UNL     1      -4.494 -11.895  19.310  0.00  0.00    +0.004 A 
ATOM     28  C   UNL     1      -5.770 -11.432  19.628  0.00  0.00    +0.000 A 
ENDBRANCH   4  23
ENDBRANCH  17   4
ENDBRANCH  15  17
TORSDOF 5
ENDMDL
MODEL 7
REMARK VINA RESULT:      -6.4     27.778     30.919
REMARK  Name = 75536990
REMARK  5 active torsions:
REMARK  status: ('A' for Active; 'I' for Inactive)
REMARK    1  A    between atoms: O_4  and  C_17
REMARK    2  A    between atoms: O_4  and  C_23
REMARK    3  A    between atoms: N_6  and  C_14
REMARK    4  A    between atoms: C_14  and  C_16
REMARK    5  A    between atoms: C_15  and  C_17
REMARK                            x       y       z     vdW  Elec       q    Type
REMARK                         _______ _______ _______ _____ _____    ______ ____
ROOT
ATOM      2  O   UNL     1      -1.728 -11.899  15.086  0.00  0.00    -0.252 OA
ATOM      3  O   UNL     1      -6.380 -10.427  20.050  0.00  0.00    -0.272 OA
ATOM      5  N   UNL     1      -3.787 -11.357  16.080  0.00  0.00    -0.278 N 
ATOM      6  N   UNL     1      -3.779 -11.994  13.925  0.00  0.00    -0.279 N 
ATOM      7  N   UNL     1      -5.786 -11.378  18.016  0.00  0.00    -0.295 N 
ATOM      8  C   UNL     1      -5.164 -11.197  15.645  0.00  0.00    +0.112 C 
ATOM      9  C   UNL     1      -5.183 -11.831  14.257  0.00  0.00    +0.133 C 
ATOM     10  C   UNL     1      -6.118 -11.834  16.653  0.00  0.00    +0.132 C 
ATOM     11  C   UNL     1      -3.414 -11.004  17.438  0.00  0.00    +0.128 C 
ATOM     12  C   UNL     1      -4.395 -11.628  18.426  0.00  0.00    +0.127 C 
ATOM     13  C   UNL     1      -2.944 -11.764  15.036  0.00  0.00    +0.306 C 
ATOM     15  C   UNL     1      -6.676 -10.778  18.904  0.00  0.00    +0.253 C 
ENDROOT
BRANCH   6  14
ATOM     14  C   UNL     1      -3.349 -12.474  12.630  0.00  0.00    +0.144 C 
BRANCH  14  16
ATOM      1  F   UNL     1      -3.866  -8.530   8.644  0.00  0.00    -0.205 F 
ATOM     16  C   UNL     1      -3.486 -11.422  11.567  0.00  0.00    -0.030 A 
ATOM     18  C   UNL     1      -2.611 -10.337  11.541  0.00  0.00    +0.008 A 
ATOM     19  C   UNL     1      -4.490 -11.530  10.605  0.00  0.00    +0.008 A 
ATOM     20  C   UNL     1      -2.739  -9.360  10.555  0.00  0.00    +0.038 A 
ATOM     21  C   UNL     1      -4.619 -10.553   9.617  0.00  0.00    +0.038 A 
ATOM     22  C   UNL     1      -3.743  -9.468   9.592  0.00  0.00    +0.123 A 
ENDBRANCH  14  16
ENDBRANCH   6  14
BRANCH  15  17
ATOM     17  C   UNL     1      -8.081 -10.555  18.404  0.00  0.00    +0.324 C 
BRANCH  17   4
ATOM      4  O   UNL     1      -8.945 -10.931  19.448  0.00  0.00    -0.483 OA
BRANCH   4  23
ATOM     23  C   UNL     1     -10.260 -10.534  19.354  0.00  0.00    +0.121 A 
ATOM     24  C   UNL     1     -10.656  -9.669  18.334  0.00  0.00    +0.045 A 
ATOM     25  C   UNL     1     -11.198 -10.998  20.278  0.00  0.00    +0.045 A 
ATOM     26  C   UNL     1     -11.989  -9.268  18.237  0.00  0.00    +0.004 A 
ATOM     27  C   UNL     1     -12.530 -10.596  20.181  0.00  0.00    +0.004 A 
ATOM     28  C   UNL     1     -12.925  -9.731  19.161  0.00  0.00    +0.000 A 
ENDBRANCH   4  23
ENDBRANCH  17   4
ENDBRANCH  15  17
TORSDOF 5
ENDMDL
MODEL 8
REMARK VINA RESULT:      -6.4     27.887     30.361
REMARK  Name = 75536990
REMARK  5 active torsions:
REMARK  status: ('A' for Active; 'I' for Inactive)
REMARK    1  A    between atoms: O_4  and  C_17
REMARK    2  A    between atoms: O_4  and  C_23
REMARK    3  A    between atoms: N_6  and  C_14
REMARK    4  A    between atoms: C_14  and  C_16
REMARK    5  A    between atoms: C_15  and  C_17
REMARK                            x       y       z     vdW  Elec       q    Type
REMARK                         _______ _______ _______ _____ _____    ______ ____
ROOT
ATOM      2  O   UNL     1      -1.653 -11.466  15.178  0.00  0.00    -0.252 OA
ATOM      3  O   UNL     1      -7.682 -10.671  18.564  0.00  0.00    -0.272 OA
ATOM      5  N   UNL     1      -3.885 -10.855  15.581  0.00  0.00    -0.278 N 
ATOM      6  N   UNL     1      -3.131 -10.801  13.465  0.00  0.00    -0.279 N 
ATOM      7  N   UNL     1      -6.453 -11.063  16.633  0.00  0.00    -0.295 N 
ATOM      8  C   UNL     1      -4.988 -10.302  14.812  0.00  0.00    +0.112 C 
ATOM      9  C   UNL     1      -4.541 -10.472  13.362  0.00  0.00    +0.133 C 
ATOM     10  C   UNL     1      -6.292 -11.013  15.167  0.00  0.00    +0.132 C 
ATOM     11  C   UNL     1      -4.014 -11.008  17.018  0.00  0.00    +0.128 C 
ATOM     12  C   UNL     1      -5.336 -11.694  17.352  0.00  0.00    +0.127 C 
ATOM     13  C   UNL     1      -2.750 -11.085  14.791  0.00  0.00    +0.306 C 
ATOM     15  C   UNL     1      -7.560 -10.595  17.338  0.00  0.00    +0.253 C 
ENDROOT
BRANCH   6  14
ATOM     14  C   UNL     1      -2.291 -10.943  12.295  0.00  0.00    +0.144 C 
BRANCH  14  16
ATOM      1  F   UNL     1      -5.109  -9.889   7.536  0.00  0.00    -0.205 F 
ATOM     16  C   UNL     1      -3.043 -10.662  11.026  0.00  0.00    -0.030 A 
ATOM     18  C   UNL     1      -3.692 -11.699  10.356  0.00  0.00    +0.008 A 
ATOM     19  C   UNL     1      -3.092  -9.365  10.517  0.00  0.00    +0.008 A 
ATOM     20  C   UNL     1      -4.390 -11.438   9.177  0.00  0.00    +0.038 A 
ATOM     21  C   UNL     1      -3.790  -9.103   9.338  0.00  0.00    +0.038 A 
ATOM     22  C   UNL     1      -4.439 -10.140   8.668  0.00  0.00    +0.123 A 
ENDBRANCH  14  16
ENDBRANCH   6  14
BRANCH  15  17
ATOM     17  C   UNL     1      -8.659  -9.959  16.526  0.00  0.00    +0.324 C 
BRANCH  17   4
ATOM      4  O   UNL     1      -9.057  -8.802  17.220  0.00  0.00    -0.483 OA
BRANCH   4  23
ATOM     23  C   UNL     1     -10.207  -8.175  16.797  0.00  0.00    +0.121 A 
ATOM     24  C   UNL     1     -10.126  -6.997  16.055  0.00  0.00    +0.045 A 
ATOM     25  C   UNL     1     -11.454  -8.718  17.108  0.00  0.00    +0.045 A 
ATOM     26  C   UNL     1     -11.291  -6.362  15.625  0.00  0.00    +0.004 A 
ATOM     27  C   UNL     1     -12.619  -8.084  16.679  0.00  0.00    +0.004 A 
ATOM     28  C   UNL     1     -12.537  -6.905  15.937  0.00  0.00    +0.000 A 
ENDBRANCH   4  23
ENDBRANCH  17   4
ENDBRANCH  15  17
TORSDOF 5
ENDMDL
MODEL 9
REMARK VINA RESULT:      -6.2     11.685     14.136
REMARK  Name = 75536990
REMARK  5 active torsions:
REMARK  status: ('A' for Active; 'I' for Inactive)
REMARK    1  A    between atoms: O_4  and  C_17
REMARK    2  A    between atoms: O_4  and  C_23
REMARK    3  A    between atoms: N_6  and  C_14
REMARK    4  A    between atoms: C_14  and  C_16
REMARK    5  A    between atoms: C_15  and  C_17
REMARK                            x       y       z     vdW  Elec       q    Type
REMARK                         _______ _______ _______ _____ _____    ______ ____
ROOT
ATOM      2  O   UNL     1      16.186  10.174   3.175  0.00  0.00    -0.252 OA
ATOM      3  O   UNL     1      10.424   6.365   2.318  0.00  0.00    -0.272 OA
ATOM      5  N   UNL     1      14.579   8.501   3.550  0.00  0.00    -0.278 N 
ATOM      6  N   UNL     1      16.127   8.867   5.137  0.00  0.00    -0.279 N 
ATOM      7  N   UNL     1      12.046   7.353   3.654  0.00  0.00    -0.295 N 
ATOM      8  C   UNL     1      14.333   7.472   4.545  0.00  0.00    +0.112 C 
ATOM      9  C   UNL     1      15.244   7.864   5.706  0.00  0.00    +0.133 C 
ATOM     10  C   UNL     1      12.847   7.410   4.891  0.00  0.00    +0.132 C 
ATOM     11  C   UNL     1      13.767   8.550   2.347  0.00  0.00    +0.128 C 
ATOM     12  C   UNL     1      12.289   8.458   2.714  0.00  0.00    +0.127 C 
ATOM     13  C   UNL     1      15.694   9.290   3.866  0.00  0.00    +0.306 C 
ATOM     15  C   UNL     1      11.100   6.376   3.351  0.00  0.00    +0.253 C 
ENDROOT
BRANCH   6  14
ATOM     14  C   UNL     1      17.226   9.433   5.888  0.00  0.00    +0.144 C 
BRANCH  14  16
ATOM      1  F   UNL     1      22.029   6.618   5.040  0.00  0.00    -0.205 F 
ATOM     16  C   UNL     1      18.507   8.682   5.661  0.00  0.00    -0.030 A 
ATOM     18  C   UNL     1      18.777   8.123   4.412  0.00  0.00    +0.008 A 
ATOM     19  C   UNL     1      19.427   8.544   6.700  0.00  0.00    +0.008 A 
ATOM     20  C   UNL     1      19.966   7.426   4.202  0.00  0.00    +0.038 A 
ATOM     21  C   UNL     1      20.616   7.846   6.491  0.00  0.00    +0.038 A 
ATOM     22  C   UNL     1      20.886   7.288   5.241  0.00  0.00    +0.123 A 
ENDBRANCH  14  16
ENDBRANCH   6  14
BRANCH  15  17
ATOM     17  C   UNL     1      10.915   5.277   4.366  0.00  0.00    +0.324 C 
BRANCH  17   4
ATOM      4  O   UNL     1       9.634   5.453   4.922  0.00  0.00    -0.483 OA
BRANCH   4  23
ATOM     23  C   UNL     1       9.538   5.469   6.295  0.00  0.00    +0.121 A 
ATOM     24  C   UNL     1       9.847   4.325   7.030  0.00  0.00    +0.045 A 
ATOM     25  C   UNL     1       9.132   6.631   6.953  0.00  0.00    +0.045 A 
ATOM     26  C   UNL     1       9.751   4.342   8.421  0.00  0.00    +0.004 A 
ATOM     27  C   UNL     1       9.035   6.648   8.344  0.00  0.00    +0.004 A 
ATOM     28  C   UNL     1       9.345   5.503   9.078  0.00  0.00    +0.000 A 
ENDBRANCH   4  23
ENDBRANCH  17   4
ENDBRANCH  15  17
TORSDOF 5
ENDMDL
MODEL 10
REMARK VINA RESULT:      -6.2     27.787     30.158
REMARK  Name = 75536990
REMARK  5 active torsions:
REMARK  status: ('A' for Active; 'I' for Inactive)
REMARK    1  A    between atoms: O_4  and  C_17
REMARK    2  A    between atoms: O_4  and  C_23
REMARK    3  A    between atoms: N_6  and  C_14
REMARK    4  A    between atoms: C_14  and  C_16
REMARK    5  A    between atoms: C_15  and  C_17
REMARK                            x       y       z     vdW  Elec       q    Type
REMARK                         _______ _______ _______ _____ _____    ______ ____
ROOT
ATOM      2  O   UNL     1      -6.805 -11.434  19.049  0.00  0.00    -0.252 OA
ATOM      3  O   UNL     1      -1.016 -11.396  15.183  0.00  0.00    -0.272 OA
ATOM      5  N   UNL     1      -5.399 -11.731  17.189  0.00  0.00    -0.278 N 
ATOM      6  N   UNL     1      -7.620 -11.882  16.882  0.00  0.00    -0.279 N 
ATOM      7  N   UNL     1      -3.314 -11.172  15.433  0.00  0.00    -0.295 N 
ATOM      8  C   UNL     1      -5.551 -12.122  15.798  0.00  0.00    +0.112 C 
ATOM      9  C   UNL     1      -7.053 -12.011  15.551  0.00  0.00    +0.133 C 
ATOM     10  C   UNL     1      -4.688 -11.238  14.900  0.00  0.00    +0.132 C 
ATOM     11  C   UNL     1      -4.071 -11.567  17.751  0.00  0.00    +0.128 C 
ATOM     12  C   UNL     1      -3.218 -10.705  16.825  0.00  0.00    +0.127 C 
ATOM     13  C   UNL     1      -6.630 -11.657  17.858  0.00  0.00    +0.306 C 
ATOM     15  C   UNL     1      -2.158 -11.484  14.721  0.00  0.00    +0.253 C 
ENDROOT
BRANCH   6  14
ATOM     14  C   UNL     1      -9.049 -11.853  17.106  0.00  0.00    +0.144 C 
BRANCH  14  16
ATOM      1  F   UNL     1     -11.072  -6.599  17.140  0.00  0.00    -0.205 F 
ATOM     16  C   UNL     1      -9.589 -10.452  17.115  0.00  0.00    -0.030 A 
ATOM     18  C   UNL     1     -10.770 -10.164  17.798  0.00  0.00    +0.008 A 
ATOM     19  C   UNL     1      -8.908  -9.438  16.441  0.00  0.00    +0.008 A 
ATOM     20  C   UNL     1     -11.272  -8.863  17.806  0.00  0.00    +0.038 A 
ATOM     21  C   UNL     1      -9.409  -8.137  16.449  0.00  0.00    +0.038 A 
ATOM     22  C   UNL     1     -10.591  -7.849  17.132  0.00  0.00    +0.123 A 
ENDBRANCH  14  16
ENDBRANCH   6  14
BRANCH  15  17
ATOM     17  C   UNL     1      -2.345 -11.957  13.303  0.00  0.00    +0.324 C 
BRANCH  17   4
ATOM      4  O   UNL     1      -2.022 -10.871  12.469  0.00  0.00    -0.483 OA
BRANCH   4  23
ATOM     23  C   UNL     1      -2.782 -10.698  11.333  0.00  0.00    +0.121 A 
ATOM     24  C   UNL     1      -2.843  -9.447  10.720  0.00  0.00    +0.045 A 
ATOM     25  C   UNL     1      -3.489 -11.774  10.795  0.00  0.00    +0.045 A 
ATOM     26  C   UNL     1      -3.611  -9.272   9.569  0.00  0.00    +0.004 A 
ATOM     27  C   UNL     1      -4.257 -11.599   9.645  0.00  0.00    +0.004 A 
ATOM     28  C   UNL     1      -4.318 -10.347   9.032  0.00  0.00    +0.000 A 
ENDBRANCH   4  23
ENDBRANCH  17   4
ENDBRANCH  15  17
TORSDOF 5
ENDMDL
