MODEL 1
REMARK VINA RESULT:      -8.4      0.000      0.000
REMARK  Name = 11882510
REMARK  5 active torsions:
REMARK  status: ('A' for Active; 'I' for Inactive)
REMARK    1  A    between atoms: N_6  and  C_14
REMARK    2  A    between atoms: CA_18  and  CB_21
REMARK    3  A    between atoms: CB_21  and  CG_23
REMARK    4  A    between atoms: C_22  and  C_27
REMARK    5  A    between atoms: C_25  and  C_30
REMARK                            x       y       z     vdW  Elec       q    Type
REMARK                         _______ _______ _______ _____ _____    ______ ____
ROOT
ATOM      1  O   TRP A   2      19.059   9.368  22.044  0.00  0.00    -0.274 OA
ATOM      2  O   UNK A   1      17.468   5.518  18.727  0.00  0.00    -0.274 OA
ATOM      5  N   UNK A   1      17.339   8.208  20.985  0.00  0.00    -0.288 N 
ATOM      7  N   TRP A   2      19.132   6.544  19.932  0.00  0.00    -0.302 N 
ATOM     13  C   UNK A   1      16.833   6.878  20.632  0.00  0.00    +0.164 C 
ATOM     14  C   UNK A   1      15.149   8.088  19.153  0.00  0.00    +0.113 C 
ATOM     15  C   UNK A   1      15.388   6.911  20.118  0.00  0.00    +0.059 C 
ATOM     16  C   UNK A   1      15.633   9.440  19.723  0.00  0.00    +0.046 C 
ATOM     17  C   UNK A   1      16.371   9.296  21.053  0.00  0.00    +0.110 C 
ATOM     18  CA  TRP A   2      19.563   7.199  21.157  0.00  0.00    +0.163 C 
ATOM     19  C   TRP A   2      18.651   8.386  21.425  0.00  0.00    +0.237 C 
ATOM     20  C   UNK A   1      17.808   6.271  19.635  0.00  0.00    +0.234 C 
ATOM     34  H   TRP A   2      19.844   6.138  19.332  0.00  0.00    +0.150 HD
ENDROOT
BRANCH  14   6
ATOM      6  N   UNK A   1      13.755   8.140  18.688  0.00  0.00    -0.236 N 
ATOM      8  N   UNK A   1      12.766   7.761  19.505  0.00  0.00    -0.064 NA
ATOM      9  N   UNK A   1      11.630   7.912  18.832  0.00  0.00    -0.124 NA
ATOM     22  C   UNK A   1      13.297   8.541  17.478  0.00  0.00    +0.156 A 
ATOM     25  C   UNK A   1      11.939   8.389  17.589  0.00  0.00    +0.179 A 
BRANCH  22  27
ATOM      3  O   UNK A   1      14.262   8.354  15.327  0.00  0.00    -0.269 OA
ATOM     11  N   UNK A   1      14.684  10.267  16.493  0.00  0.00    -0.324 N 
ATOM     27  C   UNK A   1      14.089   9.004  16.384  0.00  0.00    +0.262 C 
ATOM     36  H   UNK A   1      14.570  10.845  17.320  0.00  0.00    +0.145 HD
ATOM     37  H   UNK A   1      15.249  10.645  15.741  0.00  0.00    +0.145 HD
ENDBRANCH  22  27
BRANCH  25  30
ATOM      4  O   UNK A   1       9.805   8.156  16.598  0.00  0.00    -0.269 OA
ATOM     12  N   UNK A   1      11.271   9.580  15.588  0.00  0.00    -0.324 N 
ATOM     30  C   UNK A   1      10.947   8.667  16.596  0.00  0.00    +0.264 C 
ATOM     38  H   UNK A   1      12.178  10.033  15.542  0.00  0.00    +0.145 HD
ATOM     39  H   UNK A   1      10.600   9.818  14.865  0.00  0.00    +0.145 HD
ENDBRANCH  25  30
ENDBRANCH  14   6
BRANCH  18  21
ATOM     21  CB  TRP A   2      19.656   6.252  22.343  0.00  0.00    +0.069 C 
BRANCH  21  23
ATOM     10  NE1 TRP A   2      23.074   6.014  23.602  0.00  0.00    -0.360 N 
ATOM     23  CG  TRP A   2      21.086   5.924  22.686  0.00  0.00    -0.020 A 
ATOM     24  CD2 TRP A   2      21.833   4.863  22.148  0.00  0.00    +0.003 A 
ATOM     26  CD1 TRP A   2      21.847   6.621  23.570  0.00  0.00    +0.087 A 
ATOM     28  CE2 TRP A   2      23.095   4.938  22.744  0.00  0.00    +0.047 A 
ATOM     29  CE3 TRP A   2      21.583   3.836  21.217  0.00  0.00    +0.010 A 
ATOM     31  CZ2 TRP A   2      24.122   4.034  22.452  0.00  0.00    +0.026 A 
ATOM     32  CZ3 TRP A   2      22.601   2.925  20.915  0.00  0.00    +0.001 A 
ATOM     33  CH2 TRP A   2      23.851   3.024  21.525  0.00  0.00    +0.002 A 
ATOM     35  HE1 TRP A   2      23.853   6.313  24.173  0.00  0.00    +0.165 HD
ENDBRANCH  21  23
ENDBRANCH  18  21
TORSDOF 5
ENDMDL
MODEL 2
REMARK VINA RESULT:      -8.2      2.414      3.038
REMARK  Name = 11882510
REMARK  5 active torsions:
REMARK  status: ('A' for Active; 'I' for Inactive)
REMARK    1  A    between atoms: N_6  and  C_14
REMARK    2  A    between atoms: CA_18  and  CB_21
REMARK    3  A    between atoms: CB_21  and  CG_23
REMARK    4  A    between atoms: C_22  and  C_27
REMARK    5  A    between atoms: C_25  and  C_30
REMARK                            x       y       z     vdW  Elec       q    Type
REMARK                         _______ _______ _______ _____ _____    ______ ____
ROOT
ATOM      1  O   TRP A   2      20.909   8.731  21.672  0.00  0.00    -0.274 OA
ATOM      2  O   UNK A   1      17.366   5.410  19.488  0.00  0.00    -0.274 OA
ATOM      5  N   UNK A   1      18.721   7.952  21.500  0.00  0.00    -0.288 N 
ATOM      7  N   TRP A   2      19.545   6.059  19.818  0.00  0.00    -0.302 N 
ATOM     13  C   UNK A   1      17.879   6.754  21.440  0.00  0.00    +0.164 C 
ATOM     14  C   UNK A   1      15.973   8.320  20.811  0.00  0.00    +0.113 C 
ATOM     15  C   UNK A   1      16.387   7.069  21.607  0.00  0.00    +0.059 C 
ATOM     16  C   UNK A   1      16.894   9.533  21.075  0.00  0.00    +0.046 C 
ATOM     17  C   UNK A   1      18.095   9.188  21.954  0.00  0.00    +0.110 C 
ATOM     18  CA  TRP A   2      20.574   6.560  20.714  0.00  0.00    +0.163 C 
ATOM     19  C   TRP A   2      20.102   7.872  21.320  0.00  0.00    +0.237 C 
ATOM     20  C   UNK A   1      18.198   6.041  20.136  0.00  0.00    +0.234 C 
ATOM     34  H   TRP A   2      19.839   5.568  18.979  0.00  0.00    +0.150 HD
ENDROOT
BRANCH  14   6
ATOM      6  N   UNK A   1      14.551   8.643  20.999  0.00  0.00    -0.236 N 
ATOM      8  N   UNK A   1      14.192   9.599  21.863  0.00  0.00    -0.064 NA
ATOM      9  N   UNK A   1      12.866   9.675  21.827  0.00  0.00    -0.124 NA
ATOM     22  C   UNK A   1      13.483   8.078  20.386  0.00  0.00    +0.156 A 
ATOM     25  C   UNK A   1      12.417   8.750  20.927  0.00  0.00    +0.179 A 
BRANCH  22  27
ATOM      3  O   UNK A   1      14.476   6.851  18.625  0.00  0.00    -0.269 OA
ATOM     11  N   UNK A   1      12.432   6.153  19.355  0.00  0.00    -0.324 N 
ATOM     27  C   UNK A   1      13.519   7.034  19.412  0.00  0.00    +0.262 C 
ATOM     36  H   UNK A   1      11.634   6.244  19.974  0.00  0.00    +0.145 HD
ATOM     37  H   UNK A   1      12.414   5.390  18.687  0.00  0.00    +0.145 HD
ENDBRANCH  22  27
BRANCH  25  30
ATOM      4  O   UNK A   1      10.554   8.588  19.480  0.00  0.00    -0.269 OA
ATOM     12  N   UNK A   1      10.167   8.306  21.709  0.00  0.00    -0.324 N 
ATOM     30  C   UNK A   1      11.029   8.560  20.637  0.00  0.00    +0.264 C 
ATOM     38  H   UNK A   1      10.498   8.262  22.668  0.00  0.00    +0.145 HD
ATOM     39  H   UNK A   1       9.175   8.156  21.556  0.00  0.00    +0.145 HD
ENDBRANCH  25  30
ENDBRANCH  14   6
BRANCH  18  21
ATOM     21  CB  TRP A   2      20.997   5.547  21.767  0.00  0.00    +0.069 C 
BRANCH  21  23
ATOM     10  NE1 TRP A   2      22.631   2.543  20.490  0.00  0.00    -0.360 N 
ATOM     23  CG  TRP A   2      21.896   4.484  21.191  0.00  0.00    -0.020 A 
ATOM     24  CD2 TRP A   2      23.207   4.685  20.726  0.00  0.00    +0.003 A 
ATOM     26  CD1 TRP A   2      21.553   3.178  21.044  0.00  0.00    +0.087 A 
ATOM     28  CE2 TRP A   2      23.657   3.438  20.285  0.00  0.00    +0.047 A 
ATOM     29  CE3 TRP A   2      24.073   5.792  20.627  0.00  0.00    +0.010 A 
ATOM     31  CZ2 TRP A   2      24.934   3.243  19.749  0.00  0.00    +0.026 A 
ATOM     32  CZ3 TRP A   2      25.354   5.612  20.093  0.00  0.00    +0.001 A 
ATOM     33  CH2 TRP A   2      25.776   4.355  19.660  0.00  0.00    +0.002 A 
ATOM     35  HE1 TRP A   2      22.671   1.558  20.264  0.00  0.00    +0.165 HD
ENDBRANCH  21  23
ENDBRANCH  18  21
TORSDOF 5
ENDMDL
MODEL 3
REMARK VINA RESULT:      -8.2     28.826     33.016
REMARK  Name = 11882510
REMARK  5 active torsions:
REMARK  status: ('A' for Active; 'I' for Inactive)
REMARK    1  A    between atoms: N_6  and  C_14
REMARK    2  A    between atoms: CA_18  and  CB_21
REMARK    3  A    between atoms: CB_21  and  CG_23
REMARK    4  A    between atoms: C_22  and  C_27
REMARK    5  A    between atoms: C_25  and  C_30
REMARK                            x       y       z     vdW  Elec       q    Type
REMARK                         _______ _______ _______ _____ _____    ______ ____
ROOT
ATOM      1  O   TRP A   2     -13.387  -8.786  17.458  0.00  0.00    -0.274 OA
ATOM      2  O   UNK A   1      -8.903  -8.884  14.588  0.00  0.00    -0.274 OA
ATOM      5  N   UNK A   1     -11.064  -8.920  17.359  0.00  0.00    -0.288 N 
ATOM      7  N   TRP A   2     -11.172  -8.556  14.723  0.00  0.00    -0.302 N 
ATOM     13  C   UNK A   1      -9.858  -8.349  16.753  0.00  0.00    +0.164 C 
ATOM     14  C   UNK A   1      -8.613 -10.336  17.746  0.00  0.00    +0.113 C 
ATOM     15  C   UNK A   1      -8.569  -8.829  17.432  0.00  0.00    +0.059 C 
ATOM     16  C   UNK A   1      -9.899 -10.758  18.492  0.00  0.00    +0.046 C 
ATOM     17  C   UNK A   1     -10.908  -9.619  18.629  0.00  0.00    +0.110 C 
ATOM     18  CA  TRP A   2     -12.315  -8.030  15.452  0.00  0.00    +0.163 C 
ATOM     19  C   TRP A   2     -12.330  -8.638  16.846  0.00  0.00    +0.237 C 
ATOM     20  C   UNK A   1      -9.904  -8.667  15.266  0.00  0.00    +0.234 C 
ATOM     34  H   TRP A   2     -11.274  -8.715  13.726  0.00  0.00    +0.150 HD
ENDROOT
BRANCH  14   6
ATOM      6  N   UNK A   1      -7.392 -10.789  18.429  0.00  0.00    -0.236 N 
ATOM      8  N   UNK A   1      -7.411 -11.014  19.747  0.00  0.00    -0.064 NA
ATOM      9  N   UNK A   1      -6.189 -11.409  20.089  0.00  0.00    -0.124 NA
ATOM     22  C   UNK A   1      -6.175 -11.027  17.884  0.00  0.00    +0.156 A 
ATOM     25  C   UNK A   1      -5.420 -11.422  18.959  0.00  0.00    +0.179 A 
BRANCH  22  27
ATOM      3  O   UNK A   1      -5.827 -11.830  15.687  0.00  0.00    -0.269 OA
ATOM     11  N   UNK A   1      -5.468  -9.609  16.051  0.00  0.00    -0.324 N 
ATOM     27  C   UNK A   1      -5.820 -10.884  16.509  0.00  0.00    +0.262 C 
ATOM     36  H   UNK A   1      -5.455  -8.802  16.666  0.00  0.00    +0.145 HD
ATOM     37  H   UNK A   1      -5.216  -9.454  15.081  0.00  0.00    +0.145 HD
ENDBRANCH  22  27
BRANCH  25  30
ATOM      4  O   UNK A   1      -3.428 -12.168  19.991  0.00  0.00    -0.269 OA
ATOM     12  N   UNK A   1      -3.354 -11.780  17.746  0.00  0.00    -0.324 N 
ATOM     30  C   UNK A   1      -4.041 -11.801  18.963  0.00  0.00    +0.264 C 
ATOM     38  H   UNK A   1      -3.803 -11.500  16.879  0.00  0.00    +0.145 HD
ATOM     39  H   UNK A   1      -2.377 -12.048  17.694  0.00  0.00    +0.145 HD
ENDBRANCH  25  30
ENDBRANCH  14   6
BRANCH  18  21
ATOM     21  CB  TRP A   2     -12.363  -6.510  15.477  0.00  0.00    +0.069 C 
BRANCH  21  23
ATOM     10  NE1 TRP A   2     -15.539  -5.633  13.905  0.00  0.00    -0.360 N 
ATOM     23  CG  TRP A   2     -13.512  -5.974  14.662  0.00  0.00    -0.020 A 
ATOM     24  CD2 TRP A   2     -13.409  -5.034  13.623  0.00  0.00    +0.003 A 
ATOM     26  CD1 TRP A   2     -14.811  -6.334  14.828  0.00  0.00    +0.087 A 
ATOM     28  CE2 TRP A   2     -14.710  -4.831  13.155  0.00  0.00    +0.047 A 
ATOM     29  CE3 TRP A   2     -12.353  -4.323  13.020  0.00  0.00    +0.010 A 
ATOM     31  CZ2 TRP A   2     -15.006  -3.950  12.110  0.00  0.00    +0.026 A 
ATOM     32  CZ3 TRP A   2     -12.635  -3.439  11.972  0.00  0.00    +0.001 A 
ATOM     33  CH2 TRP A   2     -13.943  -3.256  11.526  0.00  0.00    +0.002 A 
ATOM     35  HE1 TRP A   2     -16.542  -5.695  13.790  0.00  0.00    +0.165 HD
ENDBRANCH  21  23
ENDBRANCH  18  21
TORSDOF 5
ENDMDL
MODEL 4
REMARK VINA RESULT:      -8.1      4.458      9.824
REMARK  Name = 11882510
REMARK  5 active torsions:
REMARK  status: ('A' for Active; 'I' for Inactive)
REMARK    1  A    between atoms: N_6  and  C_14
REMARK    2  A    between atoms: CA_18  and  CB_21
REMARK    3  A    between atoms: CB_21  and  CG_23
REMARK    4  A    between atoms: C_22  and  C_27
REMARK    5  A    between atoms: C_25  and  C_30
REMARK                            x       y       z     vdW  Elec       q    Type
REMARK                         _______ _______ _______ _____ _____    ______ ____
ROOT
ATOM      1  O   TRP A   2      11.154   8.919  19.581  0.00  0.00    -0.274 OA
ATOM      2  O   UNK A   1      15.407  10.317  22.465  0.00  0.00    -0.274 OA
ATOM      5  N   UNK A   1      13.235   8.391  20.484  0.00  0.00    -0.288 N 
ATOM      7  N   TRP A   2      13.273  10.743  21.732  0.00  0.00    -0.302 N 
ATOM     13  C   UNK A   1      14.066   8.450  21.691  0.00  0.00    +0.164 C 
ATOM     14  C   UNK A   1      16.001   7.733  20.199  0.00  0.00    +0.113 C 
ATOM     15  C   UNK A   1      15.334   7.594  21.581  0.00  0.00    +0.059 C 
ATOM     16  C   UNK A   1      15.012   7.526  19.030  0.00  0.00    +0.046 C 
ATOM     17  C   UNK A   1      13.565   7.372  19.495  0.00  0.00    +0.110 C 
ATOM     18  CA  TRP A   2      11.943  10.251  21.411  0.00  0.00    +0.163 C 
ATOM     19  C   TRP A   2      12.065   9.143  20.378  0.00  0.00    +0.237 C 
ATOM     20  C   UNK A   1      14.357   9.917  21.969  0.00  0.00    +0.234 C 
ATOM     34  H   TRP A   2      13.381  11.733  21.933  0.00  0.00    +0.150 HD
ENDROOT
BRANCH  14   6
ATOM      6  N   UNK A   1      17.196   6.885  20.081  0.00  0.00    -0.236 N 
ATOM      8  N   UNK A   1      17.165   5.792  19.310  0.00  0.00    -0.064 NA
ATOM      9  N   UNK A   1      18.366   5.228  19.390  0.00  0.00    -0.124 NA
ATOM     22  C   UNK A   1      18.401   7.060  20.676  0.00  0.00    +0.156 A 
ATOM     25  C   UNK A   1      19.134   5.993  20.223  0.00  0.00    +0.179 A 
BRANCH  22  27
ATOM      3  O   UNK A   1      18.719   9.334  21.240  0.00  0.00    -0.269 OA
ATOM     11  N   UNK A   1      19.172   7.790  22.854  0.00  0.00    -0.324 N 
ATOM     27  C   UNK A   1      18.765   8.123  21.557  0.00  0.00    +0.262 C 
ATOM     36  H   UNK A   1      19.219   6.827  23.172  0.00  0.00    +0.145 HD
ATOM     37  H   UNK A   1      19.433   8.509  23.520  0.00  0.00    +0.145 HD
ENDBRANCH  22  27
BRANCH  25  30
ATOM      4  O   UNK A   1      21.355   6.532  20.829  0.00  0.00    -0.269 OA
ATOM     12  N   UNK A   1      20.864   4.326  20.533  0.00  0.00    -0.324 N 
ATOM     30  C   UNK A   1      20.493   5.674  20.535  0.00  0.00    +0.264 C 
ATOM     38  H   UNK A   1      20.205   3.586  20.311  0.00  0.00    +0.145 HD
ATOM     39  H   UNK A   1      21.814   4.046  20.755  0.00  0.00    +0.145 HD
ENDBRANCH  25  30
ENDBRANCH  14   6
BRANCH  18  21
ATOM     21  CB  TRP A   2      11.150   9.824  22.637  0.00  0.00    +0.069 C 
BRANCH  21  23
ATOM     10  NE1 TRP A   2      11.085  11.991  25.574  0.00  0.00    -0.360 N 
ATOM     23  CG  TRP A   2      11.062  10.928  23.658  0.00  0.00    -0.020 A 
ATOM     24  CD2 TRP A   2      10.777  12.277  23.383  0.00  0.00    +0.003 A 
ATOM     26  CD1 TRP A   2      11.248  10.762  24.994  0.00  0.00    +0.087 A 
ATOM     28  CE2 TRP A   2      10.796  12.936  24.615  0.00  0.00    +0.047 A 
ATOM     29  CE3 TRP A   2      10.504  13.023  22.220  0.00  0.00    +0.010 A 
ATOM     31  CZ2 TRP A   2      10.554  14.307  24.741  0.00  0.00    +0.026 A 
ATOM     32  CZ3 TRP A   2      10.258  14.396  22.330  0.00  0.00    +0.001 A 
ATOM     33  CH2 TRP A   2      10.285  15.027  23.573  0.00  0.00    +0.002 A 
ATOM     35  HE1 TRP A   2      11.164  12.179  26.564  0.00  0.00    +0.165 HD
ENDBRANCH  21  23
ENDBRANCH  18  21
TORSDOF 5
ENDMDL
MODEL 5
REMARK VINA RESULT:      -8.0      2.043      2.673
REMARK  Name = 11882510
REMARK  5 active torsions:
REMARK  status: ('A' for Active; 'I' for Inactive)
REMARK    1  A    between atoms: N_6  and  C_14
REMARK    2  A    between atoms: CA_18  and  CB_21
REMARK    3  A    between atoms: CB_21  and  CG_23
REMARK    4  A    between atoms: C_22  and  C_27
REMARK    5  A    between atoms: C_25  and  C_30
REMARK                            x       y       z     vdW  Elec       q    Type
REMARK                         _______ _______ _______ _____ _____    ______ ____
ROOT
ATOM      1  O   TRP A   2      21.154   8.954  21.846  0.00  0.00    -0.274 OA
ATOM      2  O   UNK A   1      18.342   5.080  19.512  0.00  0.00    -0.274 OA
ATOM      5  N   UNK A   1      19.139   7.821  21.562  0.00  0.00    -0.288 N 
ATOM      7  N   TRP A   2      20.360   6.084  19.955  0.00  0.00    -0.302 N 
ATOM     13  C   UNK A   1      18.512   6.499  21.471  0.00  0.00    +0.164 C 
ATOM     14  C   UNK A   1      16.412   7.724  20.714  0.00  0.00    +0.113 C 
ATOM     15  C   UNK A   1      16.981   6.562  21.549  0.00  0.00    +0.059 C 
ATOM     16  C   UNK A   1      17.102   9.074  21.013  0.00  0.00    +0.046 C 
ATOM     17  C   UNK A   1      18.291   8.937  21.962  0.00  0.00    +0.110 C 
ATOM     18  CA  TRP A   2      21.239   6.753  20.900  0.00  0.00    +0.163 C 
ATOM     19  C   TRP A   2      20.522   7.970  21.461  0.00  0.00    +0.237 C 
ATOM     20  C   UNK A   1      19.019   5.843  20.196  0.00  0.00    +0.234 C 
ATOM     34  H   TRP A   2      20.779   5.645  19.140  0.00  0.00    +0.150 HD
ENDROOT
BRANCH  14   6
ATOM      6  N   UNK A   1      14.948   7.806  20.818  0.00  0.00    -0.236 N 
ATOM      8  N   UNK A   1      14.347   7.557  21.987  0.00  0.00    -0.064 NA
ATOM      9  N   UNK A   1      13.041   7.704  21.789  0.00  0.00    -0.124 NA
ATOM     22  C   UNK A   1      14.062   8.117  19.841  0.00  0.00    +0.156 A 
ATOM     25  C   UNK A   1      12.850   8.047  20.480  0.00  0.00    +0.179 A 
BRANCH  22  27
ATOM      3  O   UNK A   1      14.782   9.559  18.111  0.00  0.00    -0.269 OA
ATOM     11  N   UNK A   1      14.237   7.424  17.525  0.00  0.00    -0.324 N 
ATOM     27  C   UNK A   1      14.374   8.435  18.485  0.00  0.00    +0.262 C 
ATOM     36  H   UNK A   1      13.921   6.491  17.770  0.00  0.00    +0.145 HD
ATOM     37  H   UNK A   1      14.453   7.598  16.550  0.00  0.00    +0.145 HD
ENDBRANCH  22  27
BRANCH  25  30
ATOM      4  O   UNK A   1      11.279   8.102  18.714  0.00  0.00    -0.269 OA
ATOM     12  N   UNK A   1      10.543   8.720  20.781  0.00  0.00    -0.324 N 
ATOM     30  C   UNK A   1      11.555   8.284  19.921  0.00  0.00    +0.264 C 
ATOM     38  H   UNK A   1      10.707   8.876  21.771  0.00  0.00    +0.145 HD
ATOM     39  H   UNK A   1       9.605   8.895  20.436  0.00  0.00    +0.145 HD
ENDBRANCH  25  30
ENDBRANCH  14   6
BRANCH  18  21
ATOM     21  CB  TRP A   2      21.763   5.829  21.988  0.00  0.00    +0.069 C 
BRANCH  21  23
ATOM     10  NE1 TRP A   2      24.048   3.710  20.086  0.00  0.00    -0.360 N 
ATOM     23  CG  TRP A   2      22.687   4.777  21.432  0.00  0.00    -0.020 A 
ATOM     24  CD2 TRP A   2      23.045   3.580  22.075  0.00  0.00    +0.003 A 
ATOM     26  CD1 TRP A   2      23.301   4.849  20.222  0.00  0.00    +0.087 A 
ATOM     28  CE2 TRP A   2      23.911   2.916  21.203  0.00  0.00    +0.047 A 
ATOM     29  CE3 TRP A   2      22.733   2.977  23.310  0.00  0.00    +0.010 A 
ATOM     31  CZ2 TRP A   2      24.481   1.675  21.505  0.00  0.00    +0.026 A 
ATOM     32  CZ3 TRP A   2      23.295   1.735  23.625  0.00  0.00    +0.001 A 
ATOM     33  CH2 TRP A   2      24.157   1.096  22.735  0.00  0.00    +0.002 A 
ATOM     35  HE1 TRP A   2      24.618   3.483  19.283  0.00  0.00    +0.165 HD
ENDBRANCH  21  23
ENDBRANCH  18  21
TORSDOF 5
ENDMDL
MODEL 6
REMARK VINA RESULT:      -7.7     27.677     30.194
REMARK  Name = 11882510
REMARK  5 active torsions:
REMARK  status: ('A' for Active; 'I' for Inactive)
REMARK    1  A    between atoms: N_6  and  C_14
REMARK    2  A    between atoms: CA_18  and  CB_21
REMARK    3  A    between atoms: CB_21  and  CG_23
REMARK    4  A    between atoms: C_22  and  C_27
REMARK    5  A    between atoms: C_25  and  C_30
REMARK                            x       y       z     vdW  Elec       q    Type
REMARK                         _______ _______ _______ _____ _____    ______ ____
ROOT
ATOM      1  O   TRP A   2      -1.421 -11.023  15.535  0.00  0.00    -0.274 OA
ATOM      2  O   UNK A   1      -6.351 -12.015  13.782  0.00  0.00    -0.274 OA
ATOM      5  N   UNK A   1      -3.088 -10.718  13.938  0.00  0.00    -0.288 N 
ATOM      7  N   TRP A   2      -4.765 -12.141  15.439  0.00  0.00    -0.302 N 
ATOM     13  C   UNK A   1      -4.512 -10.435  13.733  0.00  0.00    +0.164 C 
ATOM     14  C   UNK A   1      -4.116 -11.037  11.291  0.00  0.00    +0.113 C 
ATOM     15  C   UNK A   1      -4.847 -10.103  12.273  0.00  0.00    +0.059 C 
ATOM     16  C   UNK A   1      -2.599 -11.136  11.570  0.00  0.00    +0.046 C 
ATOM     17  C   UNK A   1      -2.179 -10.403  12.842  0.00  0.00    +0.110 C 
ATOM     18  CA  TRP A   2      -3.678 -11.516  16.175  0.00  0.00    +0.163 C 
ATOM     19  C   TRP A   2      -2.601 -11.089  15.191  0.00  0.00    +0.237 C 
ATOM     20  C   UNK A   1      -5.293 -11.624  14.269  0.00  0.00    +0.234 C 
ATOM     34  H   TRP A   2      -5.257 -12.914  15.878  0.00  0.00    +0.150 HD
ENDROOT
BRANCH  14   6
ATOM      6  N   UNK A   1      -4.409 -10.695   9.891  0.00  0.00    -0.236 N 
ATOM      8  N   UNK A   1      -4.488  -9.412   9.520  0.00  0.00    -0.064 NA
ATOM      9  N   UNK A   1      -4.758  -9.402   8.219  0.00  0.00    -0.124 NA
ATOM     22  C   UNK A   1      -4.623 -11.543   8.856  0.00  0.00    +0.156 A 
ATOM     25  C   UNK A   1      -4.844 -10.700   7.798  0.00  0.00    +0.179 A 
BRANCH  22  27
ATOM      3  O   UNK A   1      -5.485 -13.651   9.494  0.00  0.00    -0.269 OA
ATOM     11  N   UNK A   1      -3.567 -13.642   8.261  0.00  0.00    -0.324 N 
ATOM     27  C   UNK A   1      -4.609 -12.970   8.913  0.00  0.00    +0.262 C 
ATOM     36  H   UNK A   1      -2.835 -13.144   7.764  0.00  0.00    +0.145 HD
ATOM     37  H   UNK A   1      -3.517 -14.654   8.265  0.00  0.00    +0.145 HD
ENDBRANCH  22  27
BRANCH  25  30
ATOM      4  O   UNK A   1      -4.343 -11.723   5.726  0.00  0.00    -0.269 OA
ATOM     12  N   UNK A   1      -6.352 -10.660   5.902  0.00  0.00    -0.324 N 
ATOM     30  C   UNK A   1      -5.125 -11.057   6.442  0.00  0.00    +0.264 C 
ATOM     38  H   UNK A   1      -7.030 -10.127   6.439  0.00  0.00    +0.145 HD
ATOM     39  H   UNK A   1      -6.603 -10.895   4.948  0.00  0.00    +0.145 HD
ENDBRANCH  25  30
ENDBRANCH  14   6
BRANCH  18  21
ATOM     21  CB  TRP A   2      -4.138 -10.377  17.071  0.00  0.00    +0.069 C 
BRANCH  21  23
ATOM     10  NE1 TRP A   2      -6.389 -11.768  19.586  0.00  0.00    -0.360 N 
ATOM     23  CG  TRP A   2      -5.270 -10.796  17.972  0.00  0.00    -0.020 A 
ATOM     24  CD2 TRP A   2      -6.607 -10.378  17.854  0.00  0.00    +0.003 A 
ATOM     26  CD1 TRP A   2      -5.145 -11.641  19.028  0.00  0.00    +0.087 A 
ATOM     28  CE2 TRP A   2      -7.302 -11.008  18.890  0.00  0.00    +0.047 A 
ATOM     29  CE3 TRP A   2      -7.315  -9.529  16.981  0.00  0.00    +0.010 A 
ATOM     31  CZ2 TRP A   2      -8.674 -10.831  19.094  0.00  0.00    +0.026 A 
ATOM     32  CZ3 TRP A   2      -8.688  -9.343  17.173  0.00  0.00    +0.001 A 
ATOM     33  CH2 TRP A   2      -9.356  -9.985  18.215  0.00  0.00    +0.002 A 
ATOM     35  HE1 TRP A   2      -6.607 -12.338  20.391  0.00  0.00    +0.165 HD
ENDBRANCH  21  23
ENDBRANCH  18  21
TORSDOF 5
ENDMDL
MODEL 7
REMARK VINA RESULT:      -7.5     27.944     31.823
REMARK  Name = 11882510
REMARK  5 active torsions:
REMARK  status: ('A' for Active; 'I' for Inactive)
REMARK    1  A    between atoms: N_6  and  C_14
REMARK    2  A    between atoms: CA_18  and  CB_21
REMARK    3  A    between atoms: CB_21  and  CG_23
REMARK    4  A    between atoms: C_22  and  C_27
REMARK    5  A    between atoms: C_25  and  C_30
REMARK                            x       y       z     vdW  Elec       q    Type
REMARK                         _______ _______ _______ _____ _____    ______ ____
ROOT
ATOM      1  O   TRP A   2      -5.581 -13.222  15.933  0.00  0.00    -0.274 OA
ATOM      2  O   UNK A   1      -5.857 -11.261  20.876  0.00  0.00    -0.274 OA
ATOM      5  N   UNK A   1      -6.852 -12.403  17.705  0.00  0.00    -0.288 N 
ATOM      7  N   TRP A   2      -4.612 -11.884  19.049  0.00  0.00    -0.302 N 
ATOM     13  C   UNK A   1      -6.955 -11.346  18.715  0.00  0.00    +0.164 C 
ATOM     14  C   UNK A   1      -8.808 -12.746  19.759  0.00  0.00    +0.113 C 
ATOM     15  C   UNK A   1      -8.319 -11.326  19.416  0.00  0.00    +0.059 C 
ATOM     16  C   UNK A   1      -8.746 -13.711  18.553  0.00  0.00    +0.046 C 
ATOM     17  C   UNK A   1      -8.081 -13.090  17.327  0.00  0.00    +0.110 C 
ATOM     18  CA  TRP A   2      -4.453 -11.927  17.604  0.00  0.00    +0.163 C 
ATOM     19  C   TRP A   2      -5.668 -12.609  16.997  0.00  0.00    +0.237 C 
ATOM     20  C   UNK A   1      -5.792 -11.524  19.678  0.00  0.00    +0.234 C 
ATOM     34  H   TRP A   2      -3.782 -11.982  19.624  0.00  0.00    +0.150 HD
ENDROOT
BRANCH  14   6
ATOM      6  N   UNK A   1     -10.133 -12.729  20.398  0.00  0.00    -0.236 N 
ATOM      8  N   UNK A   1     -10.970 -11.711  20.169  0.00  0.00    -0.064 NA
ATOM      9  N   UNK A   1     -12.076 -11.957  20.864  0.00  0.00    -0.124 NA
ATOM     22  C   UNK A   1     -10.662 -13.652  21.237  0.00  0.00    +0.156 A 
ATOM     25  C   UNK A   1     -11.902 -13.142  21.524  0.00  0.00    +0.179 A 
BRANCH  22  27
ATOM      3  O   UNK A   1      -9.076 -14.877  22.492  0.00  0.00    -0.269 OA
ATOM     11  N   UNK A   1     -10.528 -16.071  21.201  0.00  0.00    -0.324 N 
ATOM     27  C   UNK A   1     -10.032 -14.853  21.682  0.00  0.00    +0.262 C 
ATOM     36  H   UNK A   1     -11.307 -16.115  20.552  0.00  0.00    +0.145 HD
ATOM     37  H   UNK A   1     -10.120 -16.952  21.493  0.00  0.00    +0.145 HD
ENDBRANCH  22  27
BRANCH  25  30
ATOM      4  O   UNK A   1     -13.461 -14.808  22.143  0.00  0.00    -0.269 OA
ATOM     12  N   UNK A   1     -13.256 -13.010  23.528  0.00  0.00    -0.324 N 
ATOM     30  C   UNK A   1     -12.904 -13.711  22.371  0.00  0.00    +0.264 C 
ATOM     38  H   UNK A   1     -12.831 -12.120  23.770  0.00  0.00    +0.145 HD
ATOM     39  H   UNK A   1     -13.956 -13.375  24.167  0.00  0.00    +0.145 HD
ENDBRANCH  25  30
ENDBRANCH  14   6
BRANCH  18  21
ATOM     21  CB  TRP A   2      -4.181 -10.562  16.991  0.00  0.00    +0.069 C 
BRANCH  21  23
ATOM     10  NE1 TRP A   2      -1.204 -10.762  14.887  0.00  0.00    -0.360 N 
ATOM     23  CG  TRP A   2      -3.141 -10.636  15.902  0.00  0.00    -0.020 A 
ATOM     24  CD2 TRP A   2      -3.401 -10.636  14.521  0.00  0.00    +0.003 A 
ATOM     26  CD1 TRP A   2      -1.802 -10.713  16.117  0.00  0.00    +0.087 A 
ATOM     28  CE2 TRP A   2      -2.156 -10.717  13.893  0.00  0.00    +0.047 A 
ATOM     29  CE3 TRP A   2      -4.561 -10.578  13.723  0.00  0.00    +0.010 A 
ATOM     31  CZ2 TRP A   2      -2.013 -10.741  12.502  0.00  0.00    +0.026 A 
ATOM     32  CZ3 TRP A   2      -4.433 -10.601  12.330  0.00  0.00    +0.001 A 
ATOM     33  CH2 TRP A   2      -3.177 -10.682  11.730  0.00  0.00    +0.002 A 
ATOM     35  HE1 TRP A   2      -0.207 -10.822  14.729  0.00  0.00    +0.165 HD
ENDBRANCH  21  23
ENDBRANCH  18  21
TORSDOF 5
ENDMDL
MODEL 8
REMARK VINA RESULT:      -7.5      1.923      2.548
REMARK  Name = 11882510
REMARK  5 active torsions:
REMARK  status: ('A' for Active; 'I' for Inactive)
REMARK    1  A    between atoms: N_6  and  C_14
REMARK    2  A    between atoms: CA_18  and  CB_21
REMARK    3  A    between atoms: CB_21  and  CG_23
REMARK    4  A    between atoms: C_22  and  C_27
REMARK    5  A    between atoms: C_25  and  C_30
REMARK                            x       y       z     vdW  Elec       q    Type
REMARK                         _______ _______ _______ _____ _____    ______ ____
ROOT
ATOM      1  O   TRP A   2      20.203   9.080  22.260  0.00  0.00    -0.274 OA
ATOM      2  O   UNK A   1      18.417   5.076  19.237  0.00  0.00    -0.274 OA
ATOM      5  N   UNK A   1      18.424   7.854  21.389  0.00  0.00    -0.288 N 
ATOM      7  N   TRP A   2      20.155   6.173  20.263  0.00  0.00    -0.302 N 
ATOM     13  C   UNK A   1      17.914   6.504  21.132  0.00  0.00    +0.164 C 
ATOM     14  C   UNK A   1      16.097   7.629  19.747  0.00  0.00    +0.113 C 
ATOM     15  C   UNK A   1      16.433   6.496  20.735  0.00  0.00    +0.059 C 
ATOM     16  C   UNK A   1      16.602   9.010  20.222  0.00  0.00    +0.046 C 
ATOM     17  C   UNK A   1      17.447   8.931  21.492  0.00  0.00    +0.110 C 
ATOM     18  CA  TRP A   2      20.671   6.884  21.422  0.00  0.00    +0.163 C 
ATOM     19  C   TRP A   2      19.764   8.067  21.716  0.00  0.00    +0.237 C 
ATOM     20  C   UNK A   1      18.817   5.870  20.085  0.00  0.00    +0.234 C 
ATOM     34  H   TRP A   2      20.823   5.753  19.624  0.00  0.00    +0.150 HD
ENDROOT
BRANCH  14   6
ATOM      6  N   UNK A   1      14.670   7.643  19.394  0.00  0.00    -0.236 N 
ATOM      8  N   UNK A   1      14.277   7.219  18.188  0.00  0.00    -0.064 NA
ATOM      9  N   UNK A   1      12.954   7.341  18.148  0.00  0.00    -0.124 NA
ATOM     22  C   UNK A   1      13.629   8.047  20.161  0.00  0.00    +0.156 A 
ATOM     25  C   UNK A   1      12.542   7.847  19.349  0.00  0.00    +0.179 A 
BRANCH  22  27
ATOM      3  O   UNK A   1      13.535   9.758  21.791  0.00  0.00    -0.269 OA
ATOM     11  N   UNK A   1      13.960   7.643  22.527  0.00  0.00    -0.324 N 
ATOM     27  C   UNK A   1      13.705   8.553  21.494  0.00  0.00    +0.262 C 
ATOM     36  H   UNK A   1      14.095   6.653  22.350  0.00  0.00    +0.145 HD
ATOM     37  H   UNK A   1      14.015   7.950  23.492  0.00  0.00    +0.145 HD
ENDBRANCH  22  27
BRANCH  25  30
ATOM      4  O   UNK A   1      10.412   8.775  18.911  0.00  0.00    -0.269 OA
ATOM     12  N   UNK A   1      10.644   7.559  20.825  0.00  0.00    -0.324 N 
ATOM     30  C   UNK A   1      11.169   8.106  19.651  0.00  0.00    +0.264 C 
ATOM     38  H   UNK A   1      11.207   7.000  21.458  0.00  0.00    +0.145 HD
ATOM     39  H   UNK A   1       9.673   7.707  21.081  0.00  0.00    +0.145 HD
ENDBRANCH  25  30
ENDBRANCH  14   6
BRANCH  18  21
ATOM     21  CB  TRP A   2      20.875   5.987  22.633  0.00  0.00    +0.069 C 
BRANCH  21  23
ATOM     10  NE1 TRP A   2      24.413   5.341  23.258  0.00  0.00    -0.360 N 
ATOM     23  CG  TRP A   2      22.293   5.486  22.726  0.00  0.00    -0.020 A 
ATOM     24  CD2 TRP A   2      22.791   4.322  22.114  0.00  0.00    +0.003 A 
ATOM     26  CD1 TRP A   2      23.286   6.100  23.420  0.00  0.00    +0.087 A 
ATOM     28  CE2 TRP A   2      24.141   4.249  22.466  0.00  0.00    +0.047 A 
ATOM     29  CE3 TRP A   2      22.247   3.312  21.297  0.00  0.00    +0.010 A 
ATOM     31  CZ2 TRP A   2      24.976   3.212  22.037  0.00  0.00    +0.026 A 
ATOM     32  CZ3 TRP A   2      23.071   2.270  20.860  0.00  0.00    +0.001 A 
ATOM     33  CH2 TRP A   2      24.415   2.221  21.226  0.00  0.00    +0.002 A 
ATOM     35  HE1 TRP A   2      25.316   5.551  23.662  0.00  0.00    +0.165 HD
ENDBRANCH  21  23
ENDBRANCH  18  21
TORSDOF 5
ENDMDL
MODEL 9
REMARK VINA RESULT:      -7.5      2.328      3.129
REMARK  Name = 11882510
REMARK  5 active torsions:
REMARK  status: ('A' for Active; 'I' for Inactive)
REMARK    1  A    between atoms: N_6  and  C_14
REMARK    2  A    between atoms: CA_18  and  CB_21
REMARK    3  A    between atoms: CB_21  and  CG_23
REMARK    4  A    between atoms: C_22  and  C_27
REMARK    5  A    between atoms: C_25  and  C_30
REMARK                            x       y       z     vdW  Elec       q    Type
REMARK                         _______ _______ _______ _____ _____    ______ ____
ROOT
ATOM      1  O   TRP A   2      21.758   9.109  22.280  0.00  0.00    -0.274 OA
ATOM      2  O   UNK A   1      19.305   5.116  19.750  0.00  0.00    -0.274 OA
ATOM      5  N   UNK A   1      19.839   7.845  21.900  0.00  0.00    -0.288 N 
ATOM      7  N   TRP A   2      21.231   6.248  20.286  0.00  0.00    -0.302 N 
ATOM     13  C   UNK A   1      19.312   6.485  21.753  0.00  0.00    +0.164 C 
ATOM     14  C   UNK A   1      17.154   7.579  20.961  0.00  0.00    +0.113 C 
ATOM     15  C   UNK A   1      17.779   6.436  21.782  0.00  0.00    +0.059 C 
ATOM     16  C   UNK A   1      17.735   8.966  21.319  0.00  0.00    +0.046 C 
ATOM     17  C   UNK A   1      18.901   8.886  22.303  0.00  0.00    +0.110 C 
ATOM     18  CA  TRP A   2      22.031   6.949  21.278  0.00  0.00    +0.163 C 
ATOM     19  C   TRP A   2      21.210   8.095  21.848  0.00  0.00    +0.237 C 
ATOM     20  C   UNK A   1      19.904   5.905  20.477  0.00  0.00    +0.234 C 
ATOM     34  H   TRP A   2      21.706   5.864  19.475  0.00  0.00    +0.150 HD
ENDROOT
BRANCH  14   6
ATOM      6  N   UNK A   1      15.685   7.554  21.019  0.00  0.00    -0.236 N 
ATOM      8  N   UNK A   1      15.056   7.884  22.153  0.00  0.00    -0.064 NA
ATOM      9  N   UNK A   1      13.753   7.775  21.918  0.00  0.00    -0.124 NA
ATOM     22  C   UNK A   1      14.820   7.224  20.029  0.00  0.00    +0.156 A 
ATOM     25  C   UNK A   1      13.592   7.372  20.622  0.00  0.00    +0.179 A 
BRANCH  22  27
ATOM      3  O   UNK A   1      16.017   5.949  18.438  0.00  0.00    -0.269 OA
ATOM     11  N   UNK A   1      14.488   7.438  17.639  0.00  0.00    -0.324 N 
ATOM     27  C   UNK A   1      15.163   6.827  18.702  0.00  0.00    +0.262 C 
ATOM     36  H   UNK A   1      13.778   8.147  17.790  0.00  0.00    +0.145 HD
ATOM     37  H   UNK A   1      14.689   7.184  16.678  0.00  0.00    +0.145 HD
ENDBRANCH  22  27
BRANCH  25  30
ATOM      4  O   UNK A   1      11.702   8.015  19.355  0.00  0.00    -0.269 OA
ATOM     12  N   UNK A   1      11.714   5.900  20.203  0.00  0.00    -0.324 N 
ATOM     30  C   UNK A   1      12.308   7.154  20.032  0.00  0.00    +0.264 C 
ATOM     38  H   UNK A   1      12.163   5.159  20.733  0.00  0.00    +0.145 HD
ATOM     39  H   UNK A   1      10.808   5.692  19.798  0.00  0.00    +0.145 HD
ENDBRANCH  25  30
ENDBRANCH  14   6
BRANCH  18  21
ATOM     21  CB  TRP A   2      22.586   6.033  22.357  0.00  0.00    +0.069 C 
BRANCH  21  23
ATOM     10  NE1 TRP A   2      25.957   5.142  21.274  0.00  0.00    -0.360 N 
ATOM     23  CG  TRP A   2      23.882   5.392  21.934  0.00  0.00    -0.020 A 
ATOM     24  CD2 TRP A   2      24.116   4.010  21.830  0.00  0.00    +0.003 A 
ATOM     26  CD1 TRP A   2      25.007   6.074  21.594  0.00  0.00    +0.087 A 
ATOM     28  CE2 TRP A   2      25.441   3.873  21.409  0.00  0.00    +0.047 A 
ATOM     29  CE3 TRP A   2      23.350   2.848  22.048  0.00  0.00    +0.010 A 
ATOM     31  CZ2 TRP A   2      26.038   2.626  21.193  0.00  0.00    +0.026 A 
ATOM     32  CZ3 TRP A   2      23.934   1.595  21.835  0.00  0.00    +0.001 A 
ATOM     33  CH2 TRP A   2      25.259   1.488  21.415  0.00  0.00    +0.002 A 
ATOM     35  HE1 TRP A   2      26.900   5.354  20.980  0.00  0.00    +0.165 HD
ENDBRANCH  21  23
ENDBRANCH  18  21
TORSDOF 5
ENDMDL
MODEL 10
REMARK VINA RESULT:      -7.4     28.511     33.312
REMARK  Name = 11882510
REMARK  5 active torsions:
REMARK  status: ('A' for Active; 'I' for Inactive)
REMARK    1  A    between atoms: N_6  and  C_14
REMARK    2  A    between atoms: CA_18  and  CB_21
REMARK    3  A    between atoms: CB_21  and  CG_23
REMARK    4  A    between atoms: C_22  and  C_27
REMARK    5  A    between atoms: C_25  and  C_30
REMARK                            x       y       z     vdW  Elec       q    Type
REMARK                         _______ _______ _______ _____ _____    ______ ____
ROOT
ATOM      1  O   TRP A   2     -11.715  -8.976  18.230  0.00  0.00    -0.274 OA
ATOM      2  O   UNK A   1      -7.979 -12.261  20.130  0.00  0.00    -0.274 OA
ATOM      5  N   UNK A   1      -9.789 -10.242  17.894  0.00  0.00    -0.288 N 
ATOM      7  N   TRP A   2      -9.982 -11.166  20.384  0.00  0.00    -0.302 N 
ATOM     13  C   UNK A   1      -9.155 -11.541  18.134  0.00  0.00    +0.164 C 
ATOM     14  C   UNK A   1      -7.002 -10.464  17.305  0.00  0.00    +0.113 C 
ATOM     15  C   UNK A   1      -7.872 -11.735  17.317  0.00  0.00    +0.059 C 
ATOM     16  C   UNK A   1      -7.796  -9.196  16.917  0.00  0.00    +0.046 C 
ATOM     17  C   UNK A   1      -9.295  -9.453  16.772  0.00  0.00    +0.110 C 
ATOM     18  CA  TRP A   2     -11.239 -10.715  19.809  0.00  0.00    +0.163 C 
ATOM     19  C   TRP A   2     -10.941  -9.864  18.584  0.00  0.00    +0.237 C 
ATOM     20  C   UNK A   1      -8.934 -11.668  19.633  0.00  0.00    +0.234 C 
ATOM     34  H   TRP A   2      -9.923 -11.251  21.394  0.00  0.00    +0.150 HD
ENDROOT
BRANCH  14   6
ATOM      6  N   UNK A   1      -5.789 -10.638  16.492  0.00  0.00    -0.236 N 
ATOM      8  N   UNK A   1      -5.700 -10.050  15.294  0.00  0.00    -0.064 NA
ATOM      9  N   UNK A   1      -4.513 -10.374  14.792  0.00  0.00    -0.124 NA
ATOM     22  C   UNK A   1      -4.679 -11.351  16.799  0.00  0.00    +0.156 A 
ATOM     25  C   UNK A   1      -3.876 -11.171  15.702  0.00  0.00    +0.179 A 
BRANCH  22  27
ATOM      3  O   UNK A   1      -4.161 -11.569  19.096  0.00  0.00    -0.269 OA
ATOM     11  N   UNK A   1      -4.592 -13.486  17.941  0.00  0.00    -0.324 N 
ATOM     27  C   UNK A   1      -4.453 -12.094  17.997  0.00  0.00    +0.262 C 
ATOM     36  H   UNK A   1      -4.839 -13.968  17.082  0.00  0.00    +0.145 HD
ATOM     37  H   UNK A   1      -4.450 -14.058  18.766  0.00  0.00    +0.145 HD
ENDBRANCH  22  27
BRANCH  25  30
ATOM      4  O   UNK A   1      -2.315 -12.594  14.640  0.00  0.00    -0.269 OA
ATOM     12  N   UNK A   1      -1.514 -11.181  16.239  0.00  0.00    -0.324 N 
ATOM     30  C   UNK A   1      -2.567 -11.704  15.483  0.00  0.00    +0.264 C 
ATOM     38  H   UNK A   1      -1.657 -10.451  16.930  0.00  0.00    +0.145 HD
ATOM     39  H   UNK A   1      -0.565 -11.519  16.116  0.00  0.00    +0.145 HD
ENDBRANCH  25  30
ENDBRANCH  14   6
BRANCH  18  21
ATOM     21  CB  TRP A   2     -12.204 -11.852  19.511  0.00  0.00    +0.069 C 
BRANCH  21  23
ATOM     10  NE1 TRP A   2     -14.634 -12.655  22.115  0.00  0.00    -0.360 N 
ATOM     23  CG  TRP A   2     -13.316 -11.922  20.524  0.00  0.00    -0.020 A 
ATOM     24  CD2 TRP A   2     -14.273 -10.919  20.759  0.00  0.00    +0.003 A 
ATOM     26  CD1 TRP A   2     -13.542 -12.975  21.353  0.00  0.00    +0.087 A 
ATOM     28  CE2 TRP A   2     -15.101 -11.405  21.774  0.00  0.00    +0.047 A 
ATOM     29  CE3 TRP A   2     -14.534  -9.643  20.224  0.00  0.00    +0.010 A 
ATOM     31  CZ2 TRP A   2     -16.182 -10.675  22.280  0.00  0.00    +0.026 A 
ATOM     32  CZ3 TRP A   2     -15.612  -8.902  20.720  0.00  0.00    +0.001 A 
ATOM     33  CH2 TRP A   2     -16.422  -9.411  21.733  0.00  0.00    +0.002 A 
ATOM     35  HE1 TRP A   2     -15.039 -13.249  22.824  0.00  0.00    +0.165 HD
ENDBRANCH  21  23
ENDBRANCH  18  21
TORSDOF 5
ENDMDL
