REMARK  Name = 75536117
REMARK  7 active torsions:
REMARK  status: ('A' for Active; 'I' for Inactive)
REMARK    1  A    between atoms: O_1  and  C_9
REMARK    2  A    between atoms: O_2  and  C_11
REMARK    3  A    between atoms: N_3  and  C_7
REMARK    4  A    between atoms: N_3  and  C_13
REMARK    5  A    between atoms: N_5  and  C_21
REMARK    6  A    between atoms: C_8  and  C_12
REMARK    7  A    between atoms: C_13  and  C_16
REMARK                            x       y       z     vdW  Elec       q    Type
REMARK                         _______ _______ _______ _____ _____    ______ ____
ROOT
ATOM      7  C   UNL     1       0.600  -0.983  -0.051  0.00  0.00    +0.093 C 
ATOM      8  C   UNL     1       1.752  -0.475  -0.948  0.00  0.00    +0.042 C 
ATOM      9  C   UNL     1       0.571  -2.484  -0.339  0.00  0.00    +0.160 C 
ATOM     10  C   UNL     1       2.692  -1.695  -1.147  0.00  0.00    +0.043 C 
ATOM     11  C   UNL     1       2.053  -2.847  -0.368  0.00  0.00    +0.145 C 
ENDROOT
BRANCH   8  12
ATOM      4  N   UNL     1       3.086   3.066  -0.683  0.00  0.00    -0.263 NA
ATOM     12  C   UNL     1       2.441   0.754  -0.395  0.00  0.00    -0.025 A 
ATOM     14  C   UNL     1       3.049   0.733   0.856  0.00  0.00    +0.007 A 
ATOM     15  C   UNL     1       2.487   1.935  -1.118  0.00  0.00    +0.114 A 
ATOM     17  C   UNL     1       3.675   1.877   1.338  0.00  0.00    +0.020 A 
ATOM     19  C   UNL     1       3.666   3.008   0.537  0.00  0.00    +0.111 A 
ENDBRANCH   8  12
BRANCH   9   1
ATOM      1  O   UNL     1      -0.130  -3.194   0.664  0.00  0.00    -0.388 OA
ATOM     23  H   UNL     1      -0.022  -4.143   0.478  0.00  0.00    +0.210 HD
ENDBRANCH   9   1
BRANCH  11   2
ATOM      2  O   UNL     1       2.579  -2.876   0.956  0.00  0.00    -0.389 OA
ATOM     24  H   UNL     1       3.532  -3.060   0.886  0.00  0.00    +0.210 HD
ENDBRANCH  11   2
BRANCH   7   3
ATOM      3  N   UNL     1      -0.671  -0.345  -0.376  0.00  0.00    -0.306 NA
ATOM     22  H   UNL     1      -0.510   0.646  -0.557  0.00  0.00    +0.123 HD
BRANCH   3  13
ATOM     13  C   UNL     1      -1.612  -0.471   0.728  0.00  0.00    +0.119 C 
BRANCH  13  16
ATOM      5  N   UNL     1      -5.020   0.551  -0.120  0.00  0.00    -0.274 N 
ATOM      6  N   UNL     1      -4.521   1.783   0.080  0.00  0.00    -0.180 NA
ATOM     16  C   UNL     1      -2.935   0.174   0.413  0.00  0.00    +0.004 A 
ATOM     18  C   UNL     1      -4.110  -0.448   0.067  0.00  0.00    +0.112 A 
ATOM     20  C   UNL     1      -3.248   1.546   0.405  0.00  0.00    +0.139 A 
ATOM     21  C   UNL     1      -6.403   0.389  -0.497  0.00  0.00    +0.172 C 
ENDBRANCH  13  16
ENDBRANCH   3  13
ENDBRANCH   7   3
TORSDOF 6
