MODEL 1
REMARK VINA RESULT:      -6.0      0.000      0.000
REMARK  Name = 26744552
REMARK  4 active torsions:
REMARK  status: ('A' for Active; 'I' for Inactive)
REMARK    1  A    between atoms: O_1  and  C_8
REMARK    2  A    between atoms: N_3  and  C_11
REMARK    3  A    between atoms: C_6  and  C_10
REMARK    4  A    between atoms: C_12  and  C_13
REMARK                            x       y       z     vdW  Elec       q    Type
REMARK                         _______ _______ _______ _____ _____    ______ ____
ROOT
ATOM      2  O   UNL     1       1.690   1.429  -5.311  0.00  0.00    -0.336 OA
ATOM      4  N   UNL     1       0.185   2.047  -6.851  0.00  0.00    -0.190 NA
ATOM      5  N   UNL     1       0.789   0.363  -5.422  0.00  0.00    -0.056 NA
ATOM     10  C   UNL     1       1.263   2.378  -6.185  0.00  0.00    +0.245 A 
ATOM     12  C   UNL     1      -0.068   0.803  -6.349  0.00  0.00    +0.202 A 
ENDROOT
BRANCH  10   6
ATOM      3  N   UNL     1       1.243   4.865  -6.279  0.00  0.00    -0.292 NA
ATOM      6  C   UNL     1       2.082   3.649  -6.255  0.00  0.00    +0.148 C 
ATOM      7  C   UNL     1       3.006   3.833  -5.036  0.00  0.00    +0.061 C 
ATOM      8  C   UNL     1       2.643   5.198  -4.467  0.00  0.00    +0.130 C 
ATOM      9  C   UNL     1       2.030   5.924  -5.651  0.00  0.00    +0.116 C 
ATOM     11  C   UNL     1       0.800   5.231  -7.617  0.00  0.00    +0.105 C 
BRANCH   8   1
ATOM      1  O   UNL     1       3.793   5.861  -3.982  0.00  0.00    -0.390 OA
ATOM     19  H   UNL     1       3.493   6.629  -3.466  0.00  0.00    +0.210 HD
ENDBRANCH   8   1
ENDBRANCH  10   6
BRANCH  12  13
ATOM     13  C   UNL     1      -1.189   0.025  -6.794  0.00  0.00    +0.022 A 
ATOM     14  C   UNL     1      -2.126   0.587  -7.662  0.00  0.00    +0.012 A 
ATOM     15  C   UNL     1      -1.340  -1.292  -6.361  0.00  0.00    +0.012 A 
ATOM     16  C   UNL     1      -3.216  -0.169  -8.095  0.00  0.00    +0.001 A 
ATOM     17  C   UNL     1      -2.430  -2.047  -6.794  0.00  0.00    +0.001 A 
ATOM     18  C   UNL     1      -3.367  -1.485  -7.662  0.00  0.00    +0.000 A 
ENDBRANCH  12  13
TORSDOF 3
ENDMDL
MODEL 2
REMARK VINA RESULT:      -5.8     22.335     24.256
REMARK  Name = 26744552
REMARK  4 active torsions:
REMARK  status: ('A' for Active; 'I' for Inactive)
REMARK    1  A    between atoms: O_1  and  C_8
REMARK    2  A    between atoms: N_3  and  C_11
REMARK    3  A    between atoms: C_6  and  C_10
REMARK    4  A    between atoms: C_12  and  C_13
REMARK                            x       y       z     vdW  Elec       q    Type
REMARK                         _______ _______ _______ _____ _____    ______ ____
ROOT
ATOM      2  O   UNL     1      -1.950 -10.899  13.212  0.00  0.00    -0.336 OA
ATOM      4  N   UNL     1      -4.160 -10.588  13.400  0.00  0.00    -0.190 NA
ATOM      5  N   UNL     1      -2.230 -10.915  14.584  0.00  0.00    -0.056 NA
ATOM     10  C   UNL     1      -3.141 -10.702  12.586  0.00  0.00    +0.245 A 
ATOM     12  C   UNL     1      -3.552 -10.725  14.614  0.00  0.00    +0.202 A 
ENDROOT
BRANCH  10   6
ATOM      3  N   UNL     1      -4.177 -11.452  10.451  0.00  0.00    -0.292 NA
ATOM      6  C   UNL     1      -3.108 -10.645  11.074  0.00  0.00    +0.148 C 
ATOM      7  C   UNL     1      -3.321  -9.221  10.526  0.00  0.00    +0.061 C 
ATOM      8  C   UNL     1      -4.502  -9.338   9.571  0.00  0.00    +0.130 C 
ATOM      9  C   UNL     1      -4.500 -10.805   9.182  0.00  0.00    +0.116 C 
ATOM     11  C   UNL     1      -3.811 -12.851  10.276  0.00  0.00    +0.105 C 
BRANCH   8   1
ATOM      1  O   UNL     1      -4.325  -8.496   8.449  0.00  0.00    -0.390 OA
ATOM     19  H   UNL     1      -3.574  -7.909   8.639  0.00  0.00    +0.210 HD
ENDBRANCH   8   1
ENDBRANCH  10   6
BRANCH  12  13
ATOM     13  C   UNL     1      -4.295 -10.666  15.840  0.00  0.00    +0.022 A 
ATOM     14  C   UNL     1      -5.548 -10.052  15.866  0.00  0.00    +0.012 A 
ATOM     15  C   UNL     1      -3.767 -11.224  17.003  0.00  0.00    +0.012 A 
ATOM     16  C   UNL     1      -6.270  -9.994  17.058  0.00  0.00    +0.001 A 
ATOM     17  C   UNL     1      -4.489 -11.166  18.195  0.00  0.00    +0.001 A 
ATOM     18  C   UNL     1      -5.742 -10.552  18.222  0.00  0.00    +0.000 A 
ENDBRANCH  12  13
TORSDOF 3
ENDMDL
MODEL 3
REMARK VINA RESULT:      -5.8      1.427      1.767
REMARK  Name = 26744552
REMARK  4 active torsions:
REMARK  status: ('A' for Active; 'I' for Inactive)
REMARK    1  A    between atoms: O_1  and  C_8
REMARK    2  A    between atoms: N_3  and  C_11
REMARK    3  A    between atoms: C_6  and  C_10
REMARK    4  A    between atoms: C_12  and  C_13
REMARK                            x       y       z     vdW  Elec       q    Type
REMARK                         _______ _______ _______ _____ _____    ______ ____
ROOT
ATOM      2  O   UNL     1       0.858   3.201  -7.846  0.00  0.00    -0.336 OA
ATOM      4  N   UNL     1       0.750   1.457  -6.444  0.00  0.00    -0.190 NA
ATOM      5  N   UNL     1      -0.293   2.486  -8.202  0.00  0.00    -0.056 NA
ATOM     10  C   UNL     1       1.413   2.528  -6.804  0.00  0.00    +0.245 A 
ATOM     12  C   UNL     1      -0.288   1.473  -7.330  0.00  0.00    +0.202 A 
ENDROOT
BRANCH  10   6
ATOM      3  N   UNL     1       3.343   4.062  -7.144  0.00  0.00    -0.292 NA
ATOM      6  C   UNL     1       2.688   3.106  -6.228  0.00  0.00    +0.148 C 
ATOM      7  C   UNL     1       2.450   3.902  -4.932  0.00  0.00    +0.061 C 
ATOM      8  C   UNL     1       3.043   5.279  -5.199  0.00  0.00    +0.130 C 
ATOM      9  C   UNL     1       4.054   5.021  -6.302  0.00  0.00    +0.116 C 
ATOM     11  C   UNL     1       4.224   3.421  -8.110  0.00  0.00    +0.105 C 
BRANCH   8   1
ATOM      1  O   UNL     1       3.657   5.796  -4.035  0.00  0.00    -0.390 OA
ATOM     19  H   UNL     1       4.344   5.166  -3.762  0.00  0.00    +0.210 HD
ENDBRANCH   8   1
ENDBRANCH  10   6
BRANCH  12  13
ATOM     13  C   UNL     1      -1.304   0.461  -7.318  0.00  0.00    +0.022 A 
ATOM     14  C   UNL     1      -2.489   0.656  -8.028  0.00  0.00    +0.012 A 
ATOM     15  C   UNL     1      -1.107  -0.718  -6.599  0.00  0.00    +0.012 A 
ATOM     16  C   UNL     1      -3.479  -0.328  -8.017  0.00  0.00    +0.001 A 
ATOM     17  C   UNL     1      -2.096  -1.701  -6.588  0.00  0.00    +0.001 A 
ATOM     18  C   UNL     1      -3.281  -1.506  -7.298  0.00  0.00    +0.000 A 
ENDBRANCH  12  13
TORSDOF 3
ENDMDL
MODEL 4
REMARK VINA RESULT:      -5.7     40.657     41.761
REMARK  Name = 26744552
REMARK  4 active torsions:
REMARK  status: ('A' for Active; 'I' for Inactive)
REMARK    1  A    between atoms: O_1  and  C_8
REMARK    2  A    between atoms: N_3  and  C_11
REMARK    3  A    between atoms: C_6  and  C_10
REMARK    4  A    between atoms: C_12  and  C_13
REMARK                            x       y       z     vdW  Elec       q    Type
REMARK                         _______ _______ _______ _____ _____    ______ ____
ROOT
ATOM      2  O   UNL     1     -15.021   2.737  33.548  0.00  0.00    -0.336 OA
ATOM      4  N   UNL     1     -14.469   4.342  32.085  0.00  0.00    -0.190 NA
ATOM      5  N   UNL     1     -14.577   3.824  34.312  0.00  0.00    -0.056 NA
ATOM     10  C   UNL     1     -14.925   3.125  32.249  0.00  0.00    +0.245 A 
ATOM     12  C   UNL     1     -14.270   4.730  33.379  0.00  0.00    +0.202 A 
ENDROOT
BRANCH  10   6
ATOM      3  N   UNL     1     -14.711   2.339  29.897  0.00  0.00    -0.292 NA
ATOM      6  C   UNL     1     -15.351   2.112  31.209  0.00  0.00    +0.148 C 
ATOM      7  C   UNL     1     -14.969   0.669  31.588  0.00  0.00    +0.061 C 
ATOM      8  C   UNL     1     -14.152   0.154  30.410  0.00  0.00    +0.130 C 
ATOM      9  C   UNL     1     -14.602   1.031  29.256  0.00  0.00    +0.116 C 
ATOM     11  C   UNL     1     -15.427   3.299  29.067  0.00  0.00    +0.105 C 
BRANCH   8   1
ATOM      1  O   UNL     1     -14.424  -1.212  30.169  0.00  0.00    -0.390 OA
ATOM     19  H   UNL     1     -14.236  -1.697  30.991  0.00  0.00    +0.210 HD
ENDBRANCH   8   1
ENDBRANCH  10   6
BRANCH  12  13
ATOM     13  C   UNL     1     -13.761   6.031  33.705  0.00  0.00    +0.022 A 
ATOM     14  C   UNL     1     -13.480   6.944  32.687  0.00  0.00    +0.012 A 
ATOM     15  C   UNL     1     -13.549   6.384  35.037  0.00  0.00    +0.012 A 
ATOM     16  C   UNL     1     -12.984   8.209  33.004  0.00  0.00    +0.001 A 
ATOM     17  C   UNL     1     -13.053   7.648  35.353  0.00  0.00    +0.001 A 
ATOM     18  C   UNL     1     -12.772   8.562  34.336  0.00  0.00    +0.000 A 
ENDBRANCH  12  13
TORSDOF 3
ENDMDL
MODEL 5
REMARK VINA RESULT:      -5.6     30.080     31.130
REMARK  Name = 26744552
REMARK  4 active torsions:
REMARK  status: ('A' for Active; 'I' for Inactive)
REMARK    1  A    between atoms: O_1  and  C_8
REMARK    2  A    between atoms: N_3  and  C_11
REMARK    3  A    between atoms: C_6  and  C_10
REMARK    4  A    between atoms: C_12  and  C_13
REMARK                            x       y       z     vdW  Elec       q    Type
REMARK                         _______ _______ _______ _____ _____    ______ ____
ROOT
ATOM      2  O   UNL     1     -12.655   5.856  21.618  0.00  0.00    -0.336 OA
ATOM      4  N   UNL     1     -13.472   7.533  20.378  0.00  0.00    -0.190 NA
ATOM      5  N   UNL     1     -11.577   6.350  20.874  0.00  0.00    -0.056 NA
ATOM     10  C   UNL     1     -13.732   6.607  21.267  0.00  0.00    +0.245 A 
ATOM     12  C   UNL     1     -12.138   7.337  20.168  0.00  0.00    +0.202 A 
ENDROOT
BRANCH  10   6
ATOM      3  N   UNL     1     -15.709   5.096  21.335  0.00  0.00    -0.292 NA
ATOM      6  C   UNL     1     -15.043   6.267  21.942  0.00  0.00    +0.148 C 
ATOM      7  C   UNL     1     -14.870   5.893  23.427  0.00  0.00    +0.061 C 
ATOM      8  C   UNL     1     -15.508   4.517  23.565  0.00  0.00    +0.130 C 
ATOM      9  C   UNL     1     -16.479   4.458  22.400  0.00  0.00    +0.116 C 
ATOM     11  C   UNL     1     -16.539   5.440  20.188  0.00  0.00    +0.105 C 
BRANCH   8   1
ATOM      1  O   UNL     1     -16.172   4.395  24.808  0.00  0.00    -0.390 OA
ATOM     19  H   UNL     1     -16.482   5.280  25.063  0.00  0.00    +0.210 HD
ENDBRANCH   8   1
ENDBRANCH  10   6
BRANCH  12  13
ATOM     13  C   UNL     1     -11.394   8.143  19.244  0.00  0.00    +0.022 A 
ATOM     14  C   UNL     1     -11.123   7.663  17.962  0.00  0.00    +0.012 A 
ATOM     15  C   UNL     1     -10.943   9.406  19.626  0.00  0.00    +0.012 A 
ATOM     16  C   UNL     1     -10.398   8.447  17.063  0.00  0.00    +0.001 A 
ATOM     17  C   UNL     1     -10.219  10.189  18.727  0.00  0.00    +0.001 A 
ATOM     18  C   UNL     1      -9.947   9.710  17.445  0.00  0.00    +0.000 A 
ENDBRANCH  12  13
TORSDOF 3
ENDMDL
MODEL 6
REMARK VINA RESULT:      -5.6     30.800     33.537
REMARK  Name = 26744552
REMARK  4 active torsions:
REMARK  status: ('A' for Active; 'I' for Inactive)
REMARK    1  A    between atoms: O_1  and  C_8
REMARK    2  A    between atoms: N_3  and  C_11
REMARK    3  A    between atoms: C_6  and  C_10
REMARK    4  A    between atoms: C_12  and  C_13
REMARK                            x       y       z     vdW  Elec       q    Type
REMARK                         _______ _______ _______ _____ _____    ______ ____
ROOT
ATOM      2  O   UNL     1      19.522   7.820  21.990  0.00  0.00    -0.336 OA
ATOM      4  N   UNL     1      18.480   6.173  20.885  0.00  0.00    -0.190 NA
ATOM      5  N   UNL     1      18.197   8.241  21.824  0.00  0.00    -0.056 NA
ATOM     10  C   UNL     1      19.604   6.594  21.409  0.00  0.00    +0.245 A 
ATOM     12  C   UNL     1      17.646   7.217  21.165  0.00  0.00    +0.202 A 
ENDROOT
BRANCH  10   6
ATOM      3  N   UNL     1      21.232   5.284  22.761  0.00  0.00    -0.292 NA
ATOM      6  C   UNL     1      20.956   5.914  21.454  0.00  0.00    +0.148 C 
ATOM      7  C   UNL     1      21.082   4.770  20.431  0.00  0.00    +0.061 C 
ATOM      8  C   UNL     1      21.476   3.548  21.252  0.00  0.00    +0.130 C 
ATOM      9  C   UNL     1      22.108   4.146  22.496  0.00  0.00    +0.116 C 
ATOM     11  C   UNL     1      21.809   6.205  23.731  0.00  0.00    +0.105 C 
BRANCH   8   1
ATOM      1  O   UNL     1      22.386   2.736  20.538  0.00  0.00    -0.390 OA
ATOM     19  H   UNL     1      22.106   2.730  19.607  0.00  0.00    +0.210 HD
ENDBRANCH   8   1
ENDBRANCH  10   6
BRANCH  12  13
ATOM     13  C   UNL     1      16.267   7.206  20.770  0.00  0.00    +0.022 A 
ATOM     14  C   UNL     1      15.927   6.989  19.434  0.00  0.00    +0.012 A 
ATOM     15  C   UNL     1      15.267   7.411  21.720  0.00  0.00    +0.012 A 
ATOM     16  C   UNL     1      14.586   6.979  19.049  0.00  0.00    +0.001 A 
ATOM     17  C   UNL     1      13.927   7.401  21.335  0.00  0.00    +0.001 A 
ATOM     18  C   UNL     1      13.586   7.184  19.999  0.00  0.00    +0.000 A 
ENDBRANCH  12  13
TORSDOF 3
ENDMDL
MODEL 7
REMARK VINA RESULT:      -5.5     23.034     24.876
REMARK  Name = 26744552
REMARK  4 active torsions:
REMARK  status: ('A' for Active; 'I' for Inactive)
REMARK    1  A    between atoms: O_1  and  C_8
REMARK    2  A    between atoms: N_3  and  C_11
REMARK    3  A    between atoms: C_6  and  C_10
REMARK    4  A    between atoms: C_12  and  C_13
REMARK                            x       y       z     vdW  Elec       q    Type
REMARK                         _______ _______ _______ _____ _____    ______ ____
ROOT
ATOM      2  O   UNL     1      -3.456 -10.474  13.441  0.00  0.00    -0.336 OA
ATOM      4  N   UNL     1      -5.517 -10.527  14.316  0.00  0.00    -0.190 NA
ATOM      5  N   UNL     1      -3.288 -10.643  14.821  0.00  0.00    -0.056 NA
ATOM     10  C   UNL     1      -4.797 -10.415  13.228  0.00  0.00    +0.245 A 
ATOM     12  C   UNL     1      -4.548 -10.665  15.267  0.00  0.00    +0.202 A 
ENDROOT
BRANCH  10   6
ATOM      3  N   UNL     1      -6.199  -9.114  11.635  0.00  0.00    -0.292 NA
ATOM      6  C   UNL     1      -5.246 -10.232  11.795  0.00  0.00    +0.148 C 
ATOM      7  C   UNL     1      -4.083  -9.895  10.843  0.00  0.00    +0.061 C 
ATOM      8  C   UNL     1      -4.493  -8.596  10.161  0.00  0.00    +0.130 C 
ATOM      9  C   UNL     1      -6.005  -8.594  10.284  0.00  0.00    +0.116 C 
ATOM     11  C   UNL     1      -7.582  -9.500  11.882  0.00  0.00    +0.105 C 
BRANCH   8   1
ATOM      1  O   UNL     1      -4.075  -8.584   8.811  0.00  0.00    -0.390 OA
ATOM     19  H   UNL     1      -3.103  -8.606   8.805  0.00  0.00    +0.210 HD
ENDBRANCH   8   1
ENDBRANCH  10   6
BRANCH  12  13
ATOM     13  C   UNL     1      -4.871 -10.822  16.656  0.00  0.00    +0.022 A 
ATOM     14  C   UNL     1      -6.057 -10.285  17.159  0.00  0.00    +0.012 A 
ATOM     15  C   UNL     1      -4.003 -11.510  17.502  0.00  0.00    +0.012 A 
ATOM     16  C   UNL     1      -6.372 -10.437  18.510  0.00  0.00    +0.001 A 
ATOM     17  C   UNL     1      -4.318 -11.661  18.851  0.00  0.00    +0.001 A 
ATOM     18  C   UNL     1      -5.503 -11.125  19.356  0.00  0.00    +0.000 A 
ENDBRANCH  12  13
TORSDOF 3
ENDMDL
MODEL 8
REMARK VINA RESULT:      -5.5      1.377      2.026
REMARK  Name = 26744552
REMARK  4 active torsions:
REMARK  status: ('A' for Active; 'I' for Inactive)
REMARK    1  A    between atoms: O_1  and  C_8
REMARK    2  A    between atoms: N_3  and  C_11
REMARK    3  A    between atoms: C_6  and  C_10
REMARK    4  A    between atoms: C_12  and  C_13
REMARK                            x       y       z     vdW  Elec       q    Type
REMARK                         _______ _______ _______ _____ _____    ______ ____
ROOT
ATOM      2  O   UNL     1       2.598   2.041  -5.336  0.00  0.00    -0.336 OA
ATOM      4  N   UNL     1       0.696   2.810  -6.235  0.00  0.00    -0.190 NA
ATOM      5  N   UNL     1       1.804   0.915  -5.587  0.00  0.00    -0.056 NA
ATOM     10  C   UNL     1       1.872   3.114  -5.746  0.00  0.00    +0.245 A 
ATOM     12  C   UNL     1       0.700   1.450  -6.117  0.00  0.00    +0.202 A 
ENDROOT
BRANCH  10   6
ATOM      3  N   UNL     1       2.844   5.111  -6.870  0.00  0.00    -0.292 NA
ATOM      6  C   UNL     1       2.519   4.472  -5.578  0.00  0.00    +0.148 C 
ATOM      7  C   UNL     1       1.606   5.484  -4.859  0.00  0.00    +0.061 C 
ATOM      8  C   UNL     1       1.514   6.674  -5.804  0.00  0.00    +0.130 C 
ATOM      9  C   UNL     1       2.768   6.553  -6.650  0.00  0.00    +0.116 C 
ATOM     11  C   UNL     1       4.139   4.705  -7.400  0.00  0.00    +0.105 C 
BRANCH   8   1
ATOM      1  O   UNL     1       1.484   7.888  -5.080  0.00  0.00    -0.390 OA
ATOM     19  H   UNL     1       1.000   7.724  -4.253  0.00  0.00    +0.210 HD
ENDBRANCH   8   1
ENDBRANCH  10   6
BRANCH  12  13
ATOM     13  C   UNL     1      -0.417   0.654  -6.537  0.00  0.00    +0.022 A 
ATOM     14  C   UNL     1      -0.608  -0.618  -5.996  0.00  0.00    +0.012 A 
ATOM     15  C   UNL     1      -1.311   1.150  -7.485  0.00  0.00    +0.012 A 
ATOM     16  C   UNL     1      -1.694  -1.393  -6.405  0.00  0.00    +0.001 A 
ATOM     17  C   UNL     1      -2.396   0.375  -7.893  0.00  0.00    +0.001 A 
ATOM     18  C   UNL     1      -2.588  -0.896  -7.352  0.00  0.00    +0.000 A 
ENDBRANCH  12  13
TORSDOF 3
ENDMDL
MODEL 9
REMARK VINA RESULT:      -5.5     23.822     25.718
REMARK  Name = 26744552
REMARK  4 active torsions:
REMARK  status: ('A' for Active; 'I' for Inactive)
REMARK    1  A    between atoms: O_1  and  C_8
REMARK    2  A    between atoms: N_3  and  C_11
REMARK    3  A    between atoms: C_6  and  C_10
REMARK    4  A    between atoms: C_12  and  C_13
REMARK                            x       y       z     vdW  Elec       q    Type
REMARK                         _______ _______ _______ _____ _____    ______ ____
ROOT
ATOM      2  O   UNL     1      -3.775 -11.129  15.644  0.00  0.00    -0.336 OA
ATOM      4  N   UNL     1      -5.521 -10.666  14.319  0.00  0.00    -0.190 NA
ATOM      5  N   UNL     1      -3.235 -10.722  14.418  0.00  0.00    -0.056 NA
ATOM     10  C   UNL     1      -5.125 -11.067  15.501  0.00  0.00    +0.245 A 
ATOM     12  C   UNL     1      -4.326 -10.466  13.690  0.00  0.00    +0.202 A 
ENDROOT
BRANCH  10   6
ATOM      3  N   UNL     1      -5.237 -12.394  17.604  0.00  0.00    -0.292 NA
ATOM      6  C   UNL     1      -5.951 -11.464  16.706  0.00  0.00    +0.148 C 
ATOM      7  C   UNL     1      -6.322 -10.264  17.597  0.00  0.00    +0.061 C 
ATOM      8  C   UNL     1      -5.815 -10.631  18.985  0.00  0.00    +0.130 C 
ATOM      9  C   UNL     1      -5.749 -12.146  18.950  0.00  0.00    +0.116 C 
ATOM     11  C   UNL     1      -5.375 -13.790  17.213  0.00  0.00    +0.105 C 
BRANCH   8   1
ATOM      1  O   UNL     1      -6.703 -10.166  19.983  0.00  0.00    -0.390 OA
ATOM     19  H   UNL     1      -7.585 -10.519  19.777  0.00  0.00    +0.210 HD
ENDBRANCH   8   1
ENDBRANCH  10   6
BRANCH  12  13
ATOM     13  C   UNL     1      -4.257 -10.011  12.331  0.00  0.00    +0.022 A 
ATOM     14  C   UNL     1      -3.062 -10.123  11.619  0.00  0.00    +0.012 A 
ATOM     15  C   UNL     1      -5.384  -9.459  11.722  0.00  0.00    +0.012 A 
ATOM     16  C   UNL     1      -2.994  -9.679  10.298  0.00  0.00    +0.001 A 
ATOM     17  C   UNL     1      -5.315  -9.016  10.401  0.00  0.00    +0.001 A 
ATOM     18  C   UNL     1      -4.121  -9.127   9.689  0.00  0.00    +0.000 A 
ENDBRANCH  12  13
TORSDOF 3
ENDMDL
MODEL 10
REMARK VINA RESULT:      -5.5     14.290     15.764
REMARK  Name = 26744552
REMARK  4 active torsions:
REMARK  status: ('A' for Active; 'I' for Inactive)
REMARK    1  A    between atoms: O_1  and  C_8
REMARK    2  A    between atoms: N_3  and  C_11
REMARK    3  A    between atoms: C_6  and  C_10
REMARK    4  A    between atoms: C_12  and  C_13
REMARK                            x       y       z     vdW  Elec       q    Type
REMARK                         _______ _______ _______ _____ _____    ______ ____
ROOT
ATOM      2  O   UNL     1      13.392   6.036   2.372  0.00  0.00    -0.336 OA
ATOM      4  N   UNL     1      11.612   4.693   2.588  0.00  0.00    -0.190 NA
ATOM      5  N   UNL     1      12.526   6.679   3.266  0.00  0.00    -0.056 NA
ATOM     10  C   UNL     1      12.779   4.875   2.021  0.00  0.00    +0.245 A 
ATOM     12  C   UNL     1      11.501   5.825   3.342  0.00  0.00    +0.202 A 
ENDROOT
BRANCH  10   6
ATOM      3  N   UNL     1      13.652   4.593  -0.292  0.00  0.00    -0.292 NA
ATOM      6  C   UNL     1      13.522   3.986   1.048  0.00  0.00    +0.148 C 
ATOM      7  C   UNL     1      14.968   3.695   1.490  0.00  0.00    +0.061 C 
ATOM      8  C   UNL     1      15.836   4.131   0.316  0.00  0.00    +0.130 C 
ATOM      9  C   UNL     1      14.888   4.067  -0.868  0.00  0.00    +0.116 C 
ATOM     11  C   UNL     1      12.500   4.346  -1.149  0.00  0.00    +0.105 C 
BRANCH   8   1
ATOM      1  O   UNL     1      16.937   3.260   0.155  0.00  0.00    -0.390 OA
ATOM     19  H   UNL     1      16.965   2.993  -0.780  0.00  0.00    +0.210 HD
ENDBRANCH   8   1
ENDBRANCH  10   6
BRANCH  12  13
ATOM     13  C   UNL     1      10.349   6.075   4.161  0.00  0.00    +0.022 A 
ATOM     14  C   UNL     1       9.368   6.968   3.730  0.00  0.00    +0.012 A 
ATOM     15  C   UNL     1      10.210   5.424   5.386  0.00  0.00    +0.012 A 
ATOM     16  C   UNL     1       8.249   7.212   4.526  0.00  0.00    +0.001 A 
ATOM     17  C   UNL     1       9.091   5.667   6.182  0.00  0.00    +0.001 A 
ATOM     18  C   UNL     1       8.110   6.561   5.751  0.00  0.00    +0.000 A 
ENDBRANCH  12  13
TORSDOF 3
ENDMDL
