MODEL 1
REMARK VINA RESULT:      -7.0      0.000      0.000
REMARK  Name = 40781520
REMARK  8 active torsions:
REMARK  status: ('A' for Active; 'I' for Inactive)
REMARK    1  A    between atoms: S_1  and  N_9
REMARK    2  A    between atoms: S_1  and  C_21
REMARK    3  A    between atoms: O_3  and  C_11
REMARK    4  A    between atoms: O_4  and  C_12
REMARK    5  A    between atoms: N_9  and  C_15
REMARK    6  A    between atoms: C_10  and  C_14
REMARK    7  A    between atoms: C_13  and  C_15
REMARK    8  A    between atoms: C_14  and  C_16
REMARK                            x       y       z     vdW  Elec       q    Type
REMARK                         _______ _______ _______ _____ _____    ______ ____
ROOT
ATOM      2  O   UNL     1      11.129   8.959  20.382  0.00  0.00    -0.366 OA
ATOM     10  C   UNL     1      11.687   7.651  20.167  0.00  0.00    +0.158 C 
ATOM     11  C   UNL     1      11.923   7.071  21.551  0.00  0.00    +0.175 C 
ATOM     12  C   UNL     1      10.744   7.633  22.320  0.00  0.00    +0.175 C 
ATOM     13  C   UNL     1      10.624   9.036  21.735  0.00  0.00    +0.165 C 
ENDROOT
BRANCH  11   3
ATOM      3  O   UNL     1      11.958   5.661  21.536  0.00  0.00    -0.387 OA
ATOM     22  H   UNL     1      11.049   5.344  21.670  0.00  0.00    +0.210 HD
ENDBRANCH  11   3
BRANCH  12   4
ATOM      4  O   UNL     1       9.553   6.915  21.995  0.00  0.00    -0.387 OA
ATOM     23  H   UNL     1       9.544   6.108  22.538  0.00  0.00    +0.210 HD
ENDBRANCH  12   4
BRANCH  10  14
ATOM     14  C   UNL     1      12.956   7.766  19.339  0.00  0.00    +0.130 C 
BRANCH  14  16
ATOM      5  O   UNL     1      11.812   7.207  17.327  0.00  0.00    -0.276 OA
ATOM      8  N   UNL     1      13.270   8.998  17.249  0.00  0.00    -0.301 N 
ATOM     16  C   UNL     1      12.617   7.956  17.882  0.00  0.00    +0.218 C 
ATOM     17  C   UNL     1      13.058   9.307  15.843  0.00  0.00    +0.108 C 
ATOM     18  C   UNL     1      14.230   9.919  17.849  0.00  0.00    +0.108 C 
ATOM     19  C   UNL     1      13.691  10.677  15.655  0.00  0.00    +0.020 C 
ATOM     20  C   UNL     1      14.831  10.664  16.666  0.00  0.00    +0.020 C 
ENDBRANCH  14  16
ENDBRANCH  10  14
BRANCH  13  15
ATOM     15  C   UNL     1      11.456  10.068  22.484  0.00  0.00    +0.139 C 
BRANCH  15   9
ATOM      9  N   UNL     1      10.649  11.170  22.917  0.00  0.00    -0.192 NA
ATOM     24  H   UNL     1       9.652  11.083  22.680  0.00  0.00    +0.148 HD
BRANCH   9   1
ATOM      1  S   UNL     1      10.986  11.967  24.412  0.00  0.00    +0.027 S 
ATOM      6  O   UNL     1      11.249  10.969  25.430  0.00  0.00    -0.158 OA
ATOM      7  O   UNL     1      10.009  13.016  24.637  0.00  0.00    -0.158 OA
ATOM     21  C   UNL     1      12.527  12.755  24.006  0.00  0.00    +0.214 C 
ENDBRANCH   9   1
ENDBRANCH  15   9
ENDBRANCH  13  15
TORSDOF 7
ENDMDL
MODEL 2
REMARK VINA RESULT:      -6.6      2.200      3.055
REMARK  Name = 40781520
REMARK  8 active torsions:
REMARK  status: ('A' for Active; 'I' for Inactive)
REMARK    1  A    between atoms: S_1  and  N_9
REMARK    2  A    between atoms: S_1  and  C_21
REMARK    3  A    between atoms: O_3  and  C_11
REMARK    4  A    between atoms: O_4  and  C_12
REMARK    5  A    between atoms: N_9  and  C_15
REMARK    6  A    between atoms: C_10  and  C_14
REMARK    7  A    between atoms: C_13  and  C_15
REMARK    8  A    between atoms: C_14  and  C_16
REMARK                            x       y       z     vdW  Elec       q    Type
REMARK                         _______ _______ _______ _____ _____    ______ ____
ROOT
ATOM      2  O   UNL     1      11.186   9.206  20.289  0.00  0.00    -0.366 OA
ATOM     10  C   UNL     1      11.860   7.977  19.973  0.00  0.00    +0.158 C 
ATOM     11  C   UNL     1      12.240   7.361  21.309  0.00  0.00    +0.175 C 
ATOM     12  C   UNL     1      11.060   7.759  22.172  0.00  0.00    +0.175 C 
ATOM     13  C   UNL     1      10.760   9.167  21.670  0.00  0.00    +0.165 C 
ENDROOT
BRANCH  11   3
ATOM      3  O   UNL     1      12.419   5.964  21.217  0.00  0.00    -0.387 OA
ATOM     22  H   UNL     1      11.578   5.545  21.468  0.00  0.00    +0.210 HD
ENDBRANCH  11   3
BRANCH  12   4
ATOM      4  O   UNL     1       9.931   6.935  21.879  0.00  0.00    -0.387 OA
ATOM     23  H   UNL     1      10.038   6.611  20.968  0.00  0.00    +0.210 HD
ENDBRANCH  12   4
BRANCH  10  14
ATOM     14  C   UNL     1      13.056   8.263  19.081  0.00  0.00    +0.130 C 
BRANCH  14  16
ATOM      5  O   UNL     1      14.153   9.874  20.450  0.00  0.00    -0.276 OA
ATOM      8  N   UNL     1      15.308   7.929  19.974  0.00  0.00    -0.301 N 
ATOM     16  C   UNL     1      14.214   8.772  19.902  0.00  0.00    +0.218 C 
ATOM     17  C   UNL     1      16.508   8.278  20.721  0.00  0.00    +0.108 C 
ATOM     18  C   UNL     1      15.441   6.616  19.352  0.00  0.00    +0.108 C 
ATOM     19  C   UNL     1      17.292   6.977  20.809  0.00  0.00    +0.020 C 
ATOM     20  C   UNL     1      16.913   6.266  19.516  0.00  0.00    +0.020 C 
ENDBRANCH  14  16
ENDBRANCH  10  14
BRANCH  13  15
ATOM     15  C   UNL     1      11.528  10.245  22.425  0.00  0.00    +0.139 C 
BRANCH  15   9
ATOM      9  N   UNL     1      10.636  11.177  23.048  0.00  0.00    -0.192 NA
ATOM     24  H   UNL     1       9.658  10.860  23.094  0.00  0.00    +0.148 HD
BRANCH   9   1
ATOM      1  S   UNL     1      11.166  12.136  24.383  0.00  0.00    +0.027 S 
ATOM      6  O   UNL     1      12.553  12.503  24.180  0.00  0.00    -0.158 OA
ATOM      7  O   UNL     1      10.735  11.523  25.626  0.00  0.00    -0.158 OA
ATOM     21  C   UNL     1      10.172  13.590  24.137  0.00  0.00    +0.214 C 
ENDBRANCH   9   1
ENDBRANCH  15   9
ENDBRANCH  13  15
TORSDOF 7
ENDMDL
MODEL 3
REMARK VINA RESULT:      -6.0      1.889      2.184
REMARK  Name = 40781520
REMARK  8 active torsions:
REMARK  status: ('A' for Active; 'I' for Inactive)
REMARK    1  A    between atoms: S_1  and  N_9
REMARK    2  A    between atoms: S_1  and  C_21
REMARK    3  A    between atoms: O_3  and  C_11
REMARK    4  A    between atoms: O_4  and  C_12
REMARK    5  A    between atoms: N_9  and  C_15
REMARK    6  A    between atoms: C_10  and  C_14
REMARK    7  A    between atoms: C_13  and  C_15
REMARK    8  A    between atoms: C_14  and  C_16
REMARK                            x       y       z     vdW  Elec       q    Type
REMARK                         _______ _______ _______ _____ _____    ______ ____
ROOT
ATOM      2  O   UNL     1      11.416   8.651  20.078  0.00  0.00    -0.366 OA
ATOM     10  C   UNL     1      11.827   7.274  20.062  0.00  0.00    +0.158 C 
ATOM     11  C   UNL     1      11.972   6.871  21.520  0.00  0.00    +0.175 C 
ATOM     12  C   UNL     1      10.851   7.660  22.165  0.00  0.00    +0.175 C 
ATOM     13  C   UNL     1      10.900   8.972  21.390  0.00  0.00    +0.165 C 
ENDROOT
BRANCH  11   3
ATOM      3  O   UNL     1      11.850   5.477  21.699  0.00  0.00    -0.387 OA
ATOM     22  H   UNL     1      10.900   5.267  21.719  0.00  0.00    +0.210 HD
ENDBRANCH  11   3
BRANCH  12   4
ATOM      4  O   UNL     1       9.593   7.037  21.903  0.00  0.00    -0.387 OA
ATOM     23  H   UNL     1       9.401   7.158  20.958  0.00  0.00    +0.210 HD
ENDBRANCH  12   4
BRANCH  10  14
ATOM     14  C   UNL     1      13.114   7.133  19.268  0.00  0.00    +0.130 C 
BRANCH  14  16
ATOM      5  O   UNL     1      14.450   8.827  20.276  0.00  0.00    -0.276 OA
ATOM      8  N   UNL     1      13.857   9.129  18.063  0.00  0.00    -0.301 N 
ATOM     16  C   UNL     1      13.873   8.437  19.261  0.00  0.00    +0.218 C 
ATOM     17  C   UNL     1      14.535  10.405  17.896  0.00  0.00    +0.108 C 
ATOM     18  C   UNL     1      13.196   8.720  16.828  0.00  0.00    +0.108 C 
ATOM     19  C   UNL     1      14.542  10.637  16.393  0.00  0.00    +0.020 C 
ATOM     20  C   UNL     1      13.259   9.953  15.939  0.00  0.00    +0.020 C 
ENDBRANCH  14  16
ENDBRANCH  10  14
BRANCH  13  15
ATOM     15  C   UNL     1      11.830  10.001  22.017  0.00  0.00    +0.139 C 
BRANCH  15   9
ATOM      9  N   UNL     1      12.222  10.996  21.063  0.00  0.00    -0.192 NA
ATOM     24  H   UNL     1      11.994  10.760  20.088  0.00  0.00    +0.148 HD
BRANCH   9   1
ATOM      1  S   UNL     1      12.123  12.675  21.459  0.00  0.00    +0.027 S 
ATOM      6  O   UNL     1      13.155  12.994  22.424  0.00  0.00    -0.158 OA
ATOM      7  O   UNL     1      10.739  13.038  21.703  0.00  0.00    -0.158 OA
ATOM     21  C   UNL     1      12.591  13.390  19.899  0.00  0.00    +0.214 C 
ENDBRANCH   9   1
ENDBRANCH  15   9
ENDBRANCH  13  15
TORSDOF 7
ENDMDL
MODEL 4
REMARK VINA RESULT:      -5.7      3.688      5.084
REMARK  Name = 40781520
REMARK  8 active torsions:
REMARK  status: ('A' for Active; 'I' for Inactive)
REMARK    1  A    between atoms: S_1  and  N_9
REMARK    2  A    between atoms: S_1  and  C_21
REMARK    3  A    between atoms: O_3  and  C_11
REMARK    4  A    between atoms: O_4  and  C_12
REMARK    5  A    between atoms: N_9  and  C_15
REMARK    6  A    between atoms: C_10  and  C_14
REMARK    7  A    between atoms: C_13  and  C_15
REMARK    8  A    between atoms: C_14  and  C_16
REMARK                            x       y       z     vdW  Elec       q    Type
REMARK                         _______ _______ _______ _____ _____    ______ ____
ROOT
ATOM      2  O   UNL     1      14.663   9.192  19.030  0.00  0.00    -0.366 OA
ATOM     10  C   UNL     1      14.314   7.859  18.619  0.00  0.00    +0.158 C 
ATOM     11  C   UNL     1      12.799   7.843  18.516  0.00  0.00    +0.175 C 
ATOM     12  C   UNL     1      12.514   9.242  18.009  0.00  0.00    +0.175 C 
ATOM     13  C   UNL     1      13.543  10.070  18.771  0.00  0.00    +0.165 C 
ENDROOT
BRANCH  11   3
ATOM      3  O   UNL     1      12.337   6.830  17.649  0.00  0.00    -0.387 OA
ATOM     22  H   UNL     1      12.105   7.252  16.804  0.00  0.00    +0.210 HD
ENDBRANCH  11   3
BRANCH  12   4
ATOM      4  O   UNL     1      12.814   9.334  16.617  0.00  0.00    -0.387 OA
ATOM     23  H   UNL     1      12.107   9.856  16.201  0.00  0.00    +0.210 HD
ENDBRANCH  12   4
BRANCH  10  14
ATOM     14  C   UNL     1      14.860   6.856  19.621  0.00  0.00    +0.130 C 
BRANCH  14  16
ATOM      5  O   UNL     1      16.222   5.701  18.045  0.00  0.00    -0.276 OA
ATOM      8  N   UNL     1      17.246   6.449  19.977  0.00  0.00    -0.301 N 
ATOM     16  C   UNL     1      16.165   6.280  19.130  0.00  0.00    +0.218 C 
ATOM     17  C   UNL     1      18.572   5.945  19.652  0.00  0.00    +0.108 C 
ATOM     18  C   UNL     1      17.245   7.125  21.270  0.00  0.00    +0.108 C 
ATOM     19  C   UNL     1      19.491   6.617  20.660  0.00  0.00    +0.020 C 
ATOM     20  C   UNL     1      18.594   6.778  21.881  0.00  0.00    +0.020 C 
ENDBRANCH  14  16
ENDBRANCH  10  14
BRANCH  13  15
ATOM     15  C   UNL     1      13.028  10.576  20.112  0.00  0.00    +0.139 C 
BRANCH  15   9
ATOM      9  N   UNL     1      11.835   9.885  20.503  0.00  0.00    -0.192 NA
ATOM     24  H   UNL     1      11.293   9.500  19.717  0.00  0.00    +0.148 HD
BRANCH   9   1
ATOM      1  S   UNL     1      11.802   8.948  21.953  0.00  0.00    +0.027 S 
ATOM      6  O   UNL     1      11.177   9.726  23.004  0.00  0.00    -0.158 OA
ATOM      7  O   UNL     1      13.094   8.323  22.161  0.00  0.00    -0.158 OA
ATOM     21  C   UNL     1      10.665   7.667  21.471  0.00  0.00    +0.214 C 
ENDBRANCH   9   1
ENDBRANCH  15   9
ENDBRANCH  13  15
TORSDOF 7
ENDMDL
MODEL 5
REMARK VINA RESULT:      -5.6     25.547     26.863
REMARK  Name = 40781520
REMARK  8 active torsions:
REMARK  status: ('A' for Active; 'I' for Inactive)
REMARK    1  A    between atoms: S_1  and  N_9
REMARK    2  A    between atoms: S_1  and  C_21
REMARK    3  A    between atoms: O_3  and  C_11
REMARK    4  A    between atoms: O_4  and  C_12
REMARK    5  A    between atoms: N_9  and  C_15
REMARK    6  A    between atoms: C_10  and  C_14
REMARK    7  A    between atoms: C_13  and  C_15
REMARK    8  A    between atoms: C_14  and  C_16
REMARK                            x       y       z     vdW  Elec       q    Type
REMARK                         _______ _______ _______ _____ _____    ______ ____
ROOT
ATOM      2  O   UNL     1      -4.149 -11.900  14.544  0.00  0.00    -0.366 OA
ATOM     10  C   UNL     1      -2.743 -11.839  14.836  0.00  0.00    +0.158 C 
ATOM     11  C   UNL     1      -2.597 -10.805  15.940  0.00  0.00    +0.175 C 
ATOM     12  C   UNL     1      -3.861 -11.037  16.741  0.00  0.00    +0.175 C 
ATOM     13  C   UNL     1      -4.883 -11.321  15.646  0.00  0.00    +0.165 C 
ENDROOT
BRANCH  11   3
ATOM      3  O   UNL     1      -1.417 -10.994  16.690  0.00  0.00    -0.387 OA
ATOM     22  H   UNL     1      -0.948 -11.756  16.311  0.00  0.00    +0.210 HD
ENDBRANCH  11   3
BRANCH  12   4
ATOM      4  O   UNL     1      -3.732 -12.212  17.542  0.00  0.00    -0.387 OA
ATOM     23  H   UNL     1      -4.372 -12.139  18.270  0.00  0.00    +0.210 HD
ENDBRANCH  12   4
BRANCH  10  14
ATOM     14  C   UNL     1      -1.973 -11.487  13.575  0.00  0.00    +0.130 C 
BRANCH  14  16
ATOM      5  O   UNL     1      -2.452 -13.482  12.367  0.00  0.00    -0.276 OA
ATOM      8  N   UNL     1      -3.066 -11.481  11.387  0.00  0.00    -0.301 N 
ATOM     16  C   UNL     1      -2.517 -12.253  12.396  0.00  0.00    +0.218 C 
ATOM     17  C   UNL     1      -3.627 -12.069  10.180  0.00  0.00    +0.108 C 
ATOM     18  C   UNL     1      -3.175 -10.026  11.362  0.00  0.00    +0.108 C 
ATOM     19  C   UNL     1      -4.392 -10.930   9.523  0.00  0.00    +0.020 C 
ATOM     20  C   UNL     1      -3.588  -9.702   9.934  0.00  0.00    +0.020 C 
ENDBRANCH  14  16
ENDBRANCH  10  14
BRANCH  13  15
ATOM     15  C   UNL     1      -5.575 -10.064  15.135  0.00  0.00    +0.139 C 
BRANCH  15   9
ATOM      9  N   UNL     1      -6.148  -9.313  16.213  0.00  0.00    -0.192 NA
ATOM     24  H   UNL     1      -5.963  -8.302  16.169  0.00  0.00    +0.148 HD
BRANCH   9   1
ATOM      1  S   UNL     1      -7.684  -9.755  16.868  0.00  0.00    +0.027 S 
ATOM      6  O   UNL     1      -8.221 -10.864  16.106  0.00  0.00    -0.158 OA
ATOM      7  O   UNL     1      -8.476  -8.562  17.102  0.00  0.00    -0.158 OA
ATOM     21  C   UNL     1      -7.179 -10.375  18.456  0.00  0.00    +0.214 C 
ENDBRANCH   9   1
ENDBRANCH  15   9
ENDBRANCH  13  15
TORSDOF 7
ENDMDL
MODEL 6
REMARK VINA RESULT:      -5.5     25.624     27.208
REMARK  Name = 40781520
REMARK  8 active torsions:
REMARK  status: ('A' for Active; 'I' for Inactive)
REMARK    1  A    between atoms: S_1  and  N_9
REMARK    2  A    between atoms: S_1  and  C_21
REMARK    3  A    between atoms: O_3  and  C_11
REMARK    4  A    between atoms: O_4  and  C_12
REMARK    5  A    between atoms: N_9  and  C_15
REMARK    6  A    between atoms: C_10  and  C_14
REMARK    7  A    between atoms: C_13  and  C_15
REMARK    8  A    between atoms: C_14  and  C_16
REMARK                            x       y       z     vdW  Elec       q    Type
REMARK                         _______ _______ _______ _____ _____    ______ ____
ROOT
ATOM      2  O   UNL     1      -5.120 -12.479  15.738  0.00  0.00    -0.366 OA
ATOM     10  C   UNL     1      -3.958 -11.938  16.390  0.00  0.00    +0.158 C 
ATOM     11  C   UNL     1      -4.302 -11.887  17.868  0.00  0.00    +0.175 C 
ATOM     12  C   UNL     1      -5.151 -13.132  18.025  0.00  0.00    +0.175 C 
ATOM     13  C   UNL     1      -5.946 -13.140  16.724  0.00  0.00    +0.165 C 
ENDROOT
BRANCH  11   3
ATOM      3  O   UNL     1      -3.149 -11.892  18.681  0.00  0.00    -0.387 OA
ATOM     22  H   UNL     1      -2.869 -12.817  18.785  0.00  0.00    +0.210 HD
ENDBRANCH  11   3
BRANCH  12   4
ATOM      4  O   UNL     1      -4.324 -14.296  18.045  0.00  0.00    -0.387 OA
ATOM     23  H   UNL     1      -3.898 -14.364  17.174  0.00  0.00    +0.210 HD
ENDBRANCH  12   4
BRANCH  10  14
ATOM     14  C   UNL     1      -3.629 -10.577  15.801  0.00  0.00    +0.130 C 
BRANCH  14  16
ATOM      5  O   UNL     1      -1.364 -10.883  15.131  0.00  0.00    -0.276 OA
ATOM      8  N   UNL     1      -2.929 -10.583  13.457  0.00  0.00    -0.301 N 
ATOM     16  C   UNL     1      -2.530 -10.699  14.776  0.00  0.00    +0.218 C 
ATOM     17  C   UNL     1      -1.988 -10.671  12.351  0.00  0.00    +0.108 C 
ATOM     18  C   UNL     1      -4.289 -10.368  12.973  0.00  0.00    +0.108 C 
ATOM     19  C   UNL     1      -2.865 -10.821  11.117  0.00  0.00    +0.020 C 
ATOM     20  C   UNL     1      -4.118 -10.043  11.496  0.00  0.00    +0.020 C 
ENDBRANCH  14  16
ENDBRANCH  10  14
BRANCH  13  15
ATOM     15  C   UNL     1      -7.258 -12.372  16.822  0.00  0.00    +0.139 C 
BRANCH  15   9
ATOM      9  N   UNL     1      -7.767 -12.385  18.162  0.00  0.00    -0.192 NA
ATOM     24  H   UNL     1      -7.466 -13.194  18.721  0.00  0.00    +0.148 HD
BRANCH   9   1
ATOM      1  S   UNL     1      -7.954 -10.909  19.040  0.00  0.00    +0.027 S 
ATOM      6  O   UNL     1      -6.935 -10.839  20.068  0.00  0.00    -0.158 OA
ATOM      7  O   UNL     1      -9.354 -10.711  19.368  0.00  0.00    -0.158 OA
ATOM     21  C   UNL     1      -7.535  -9.736  17.772  0.00  0.00    +0.214 C 
ENDBRANCH   9   1
ENDBRANCH  15   9
ENDBRANCH  13  15
TORSDOF 7
ENDMDL
MODEL 7
REMARK VINA RESULT:      -5.5     25.476     26.660
REMARK  Name = 40781520
REMARK  8 active torsions:
REMARK  status: ('A' for Active; 'I' for Inactive)
REMARK    1  A    between atoms: S_1  and  N_9
REMARK    2  A    between atoms: S_1  and  C_21
REMARK    3  A    between atoms: O_3  and  C_11
REMARK    4  A    between atoms: O_4  and  C_12
REMARK    5  A    between atoms: N_9  and  C_15
REMARK    6  A    between atoms: C_10  and  C_14
REMARK    7  A    between atoms: C_13  and  C_15
REMARK    8  A    between atoms: C_14  and  C_16
REMARK                            x       y       z     vdW  Elec       q    Type
REMARK                         _______ _______ _______ _____ _____    ______ ____
ROOT
ATOM      2  O   UNL     1      -3.706 -12.646  15.311  0.00  0.00    -0.366 OA
ATOM     10  C   UNL     1      -2.914 -12.023  14.285  0.00  0.00    +0.158 C 
ATOM     11  C   UNL     1      -2.829 -10.555  14.666  0.00  0.00    +0.175 C 
ATOM     12  C   UNL     1      -2.774 -10.637  16.178  0.00  0.00    +0.175 C 
ATOM     13  C   UNL     1      -3.739 -11.781  16.469  0.00  0.00    +0.165 C 
ENDROOT
BRANCH  11   3
ATOM      3  O   UNL     1      -1.700  -9.925  14.100  0.00  0.00    -0.387 OA
ATOM     22  H   UNL     1      -0.968 -10.564  14.120  0.00  0.00    +0.210 HD
ENDBRANCH  11   3
BRANCH  12   4
ATOM      4  O   UNL     1      -1.472 -11.037  16.605  0.00  0.00    -0.387 OA
ATOM     23  H   UNL     1      -1.131 -10.339  17.191  0.00  0.00    +0.210 HD
ENDBRANCH  12   4
BRANCH  10  14
ATOM     14  C   UNL     1      -3.557 -12.257  12.929  0.00  0.00    +0.130 C 
BRANCH  14  16
ATOM      5  O   UNL     1      -5.697 -11.309  13.372  0.00  0.00    -0.276 OA
ATOM      8  N   UNL     1      -4.441 -10.340  11.691  0.00  0.00    -0.301 N 
ATOM     16  C   UNL     1      -4.668 -11.264  12.696  0.00  0.00    +0.218 C 
ATOM     17  C   UNL     1      -5.417  -9.321  11.339  0.00  0.00    +0.108 C 
ATOM     18  C   UNL     1      -3.247 -10.233  10.859  0.00  0.00    +0.108 C 
ATOM     19  C   UNL     1      -4.652  -8.351  10.452  0.00  0.00    +0.020 C 
ATOM     20  C   UNL     1      -3.638  -9.254   9.761  0.00  0.00    +0.020 C 
ENDBRANCH  14  16
ENDBRANCH  10  14
BRANCH  13  15
ATOM     15  C   UNL     1      -5.176 -11.315  16.661  0.00  0.00    +0.139 C 
BRANCH  15   9
ATOM      9  N   UNL     1      -5.310 -10.524  17.849  0.00  0.00    -0.192 NA
ATOM     24  H   UNL     1      -5.750  -9.606  17.698  0.00  0.00    +0.148 HD
BRANCH   9   1
ATOM      1  S   UNL     1      -5.664 -11.273  19.364  0.00  0.00    +0.027 S 
ATOM      6  O   UNL     1      -6.433 -10.354  20.178  0.00  0.00    -0.158 OA
ATOM      7  O   UNL     1      -4.467 -11.905  19.888  0.00  0.00    -0.158 OA
ATOM     21  C   UNL     1      -6.754 -12.570  18.823  0.00  0.00    +0.214 C 
ENDBRANCH   9   1
ENDBRANCH  15   9
ENDBRANCH  13  15
TORSDOF 7
ENDMDL
MODEL 8
REMARK VINA RESULT:      -5.5     25.603     27.166
REMARK  Name = 40781520
REMARK  8 active torsions:
REMARK  status: ('A' for Active; 'I' for Inactive)
REMARK    1  A    between atoms: S_1  and  N_9
REMARK    2  A    between atoms: S_1  and  C_21
REMARK    3  A    between atoms: O_3  and  C_11
REMARK    4  A    between atoms: O_4  and  C_12
REMARK    5  A    between atoms: N_9  and  C_15
REMARK    6  A    between atoms: C_10  and  C_14
REMARK    7  A    between atoms: C_13  and  C_15
REMARK    8  A    between atoms: C_14  and  C_16
REMARK                            x       y       z     vdW  Elec       q    Type
REMARK                         _______ _______ _______ _____ _____    ______ ____
ROOT
ATOM      2  O   UNL     1      -6.386 -11.039  16.811  0.00  0.00    -0.366 OA
ATOM     10  C   UNL     1      -4.989 -11.349  16.948  0.00  0.00    +0.158 C 
ATOM     11  C   UNL     1      -4.786 -11.689  18.415  0.00  0.00    +0.175 C 
ATOM     12  C   UNL     1      -6.088 -12.387  18.748  0.00  0.00    +0.175 C 
ATOM     13  C   UNL     1      -7.099 -11.570  17.952  0.00  0.00    +0.165 C 
ENDROOT
BRANCH  11   3
ATOM      3  O   UNL     1      -3.649 -12.500  18.618  0.00  0.00    -0.387 OA
ATOM     22  H   UNL     1      -3.959 -13.415  18.727  0.00  0.00    +0.210 HD
ENDBRANCH  11   3
BRANCH  12   4
ATOM      4  O   UNL     1      -6.085 -13.716  18.226  0.00  0.00    -0.387 OA
ATOM     23  H   UNL     1      -6.884 -13.816  17.681  0.00  0.00    +0.210 HD
ENDBRANCH  12   4
BRANCH  10  14
ATOM     14  C   UNL     1      -4.155 -10.168  16.483  0.00  0.00    +0.130 C 
BRANCH  14  16
ATOM      5  O   UNL     1      -1.889 -10.900  16.491  0.00  0.00    -0.276 OA
ATOM      8  N   UNL     1      -2.947 -10.766  14.441  0.00  0.00    -0.301 N 
ATOM     16  C   UNL     1      -2.889 -10.647  15.818  0.00  0.00    +0.218 C 
ATOM     17  C   UNL     1      -1.808 -11.210  13.652  0.00  0.00    +0.108 C 
ATOM     18  C   UNL     1      -4.098 -10.486  13.589  0.00  0.00    +0.108 C 
ATOM     19  C   UNL     1      -2.390 -11.507  12.278  0.00  0.00    +0.020 C 
ATOM     20  C   UNL     1      -3.537 -10.510  12.174  0.00  0.00    +0.020 C 
ENDBRANCH  14  16
ENDBRANCH  10  14
BRANCH  13  15
ATOM     15  C   UNL     1      -7.664 -10.392  18.736  0.00  0.00    +0.139 C 
BRANCH  15   9
ATOM      9  N   UNL     1      -7.929  -9.276  17.877  0.00  0.00    -0.192 NA
ATOM     24  H   UNL     1      -7.162  -9.049  17.230  0.00  0.00    +0.148 HD
BRANCH   9   1
ATOM      1  S   UNL     1      -9.520  -9.004  17.261  0.00  0.00    +0.027 S 
ATOM      6  O   UNL     1      -9.668  -9.714  16.007  0.00  0.00    -0.158 OA
ATOM      7  O   UNL     1      -9.846  -7.594  17.360  0.00  0.00    -0.158 OA
ATOM     21  C   UNL     1     -10.480  -9.858  18.491  0.00  0.00    +0.214 C 
ENDBRANCH   9   1
ENDBRANCH  15   9
ENDBRANCH  13  15
TORSDOF 7
ENDMDL
MODEL 9
REMARK VINA RESULT:      -5.4      2.145      2.723
REMARK  Name = 40781520
REMARK  8 active torsions:
REMARK  status: ('A' for Active; 'I' for Inactive)
REMARK    1  A    between atoms: S_1  and  N_9
REMARK    2  A    between atoms: S_1  and  C_21
REMARK    3  A    between atoms: O_3  and  C_11
REMARK    4  A    between atoms: O_4  and  C_12
REMARK    5  A    between atoms: N_9  and  C_15
REMARK    6  A    between atoms: C_10  and  C_14
REMARK    7  A    between atoms: C_13  and  C_15
REMARK    8  A    between atoms: C_14  and  C_16
REMARK                            x       y       z     vdW  Elec       q    Type
REMARK                         _______ _______ _______ _____ _____    ______ ____
ROOT
ATOM      2  O   UNL     1      11.253   9.294  20.628  0.00  0.00    -0.366 OA
ATOM     10  C   UNL     1      12.083   8.153  20.349  0.00  0.00    +0.158 C 
ATOM     11  C   UNL     1      12.195   7.396  21.662  0.00  0.00    +0.175 C 
ATOM     12  C   UNL     1      10.819   7.616  22.257  0.00  0.00    +0.175 C 
ATOM     13  C   UNL     1      10.526   9.057  21.855  0.00  0.00    +0.165 C 
ENDROOT
BRANCH  11   3
ATOM      3  O   UNL     1      12.506   6.034  21.464  0.00  0.00    -0.387 OA
ATOM     22  H   UNL     1      11.812   5.655  20.899  0.00  0.00    +0.210 HD
ENDBRANCH  11   3
BRANCH  12   4
ATOM      4  O   UNL     1       9.861   6.774  21.614  0.00  0.00    -0.387 OA
ATOM     23  H   UNL     1      10.201   6.573  20.726  0.00  0.00    +0.210 HD
ENDBRANCH  12   4
BRANCH  10  14
ATOM     14  C   UNL     1      13.423   8.616  19.805  0.00  0.00    +0.130 C 
BRANCH  14  16
ATOM      5  O   UNL     1      14.440   9.474  21.781  0.00  0.00    -0.276 OA
ATOM      8  N   UNL     1      13.940  10.988  20.108  0.00  0.00    -0.301 N 
ATOM     16  C   UNL     1      13.985   9.721  20.663  0.00  0.00    +0.218 C 
ATOM     17  C   UNL     1      14.436  12.161  20.811  0.00  0.00    +0.108 C 
ATOM     18  C   UNL     1      13.419  11.346  18.793  0.00  0.00    +0.108 C 
ATOM     19  C   UNL     1      14.499  13.245  19.746  0.00  0.00    +0.020 C 
ATOM     20  C   UNL     1      13.356  12.866  18.811  0.00  0.00    +0.020 C 
ENDBRANCH  14  16
ENDBRANCH  10  14
BRANCH  13  15
ATOM     15  C   UNL     1      11.006  10.072  22.883  0.00  0.00    +0.139 C 
BRANCH  15   9
ATOM      9  N   UNL     1      10.971  11.403  22.354  0.00  0.00    -0.192 NA
ATOM     24  H   UNL     1      10.394  11.507  21.508  0.00  0.00    +0.148 HD
BRANCH   9   1
ATOM      1  S   UNL     1      10.980  12.767  23.414  0.00  0.00    +0.027 S 
ATOM      6  O   UNL     1      12.348  13.200  23.614  0.00  0.00    -0.158 OA
ATOM      7  O   UNL     1      10.109  12.512  24.545  0.00  0.00    -0.158 OA
ATOM     21  C   UNL     1      10.171  13.969  22.382  0.00  0.00    +0.214 C 
ENDBRANCH   9   1
ENDBRANCH  15   9
ENDBRANCH  13  15
TORSDOF 7
ENDMDL
MODEL 10
REMARK VINA RESULT:      -5.3     25.136     27.267
REMARK  Name = 40781520
REMARK  8 active torsions:
REMARK  status: ('A' for Active; 'I' for Inactive)
REMARK    1  A    between atoms: S_1  and  N_9
REMARK    2  A    between atoms: S_1  and  C_21
REMARK    3  A    between atoms: O_3  and  C_11
REMARK    4  A    between atoms: O_4  and  C_12
REMARK    5  A    between atoms: N_9  and  C_15
REMARK    6  A    between atoms: C_10  and  C_14
REMARK    7  A    between atoms: C_13  and  C_15
REMARK    8  A    between atoms: C_14  and  C_16
REMARK                            x       y       z     vdW  Elec       q    Type
REMARK                         _______ _______ _______ _____ _____    ______ ____
ROOT
ATOM      2  O   UNL     1      -3.870 -10.434  14.271  0.00  0.00    -0.366 OA
ATOM     10  C   UNL     1      -3.577 -10.671  15.658  0.00  0.00    +0.158 C 
ATOM     11  C   UNL     1      -2.192 -11.295  15.685  0.00  0.00    +0.175 C 
ATOM     12  C   UNL     1      -1.511 -10.570  14.542  0.00  0.00    +0.175 C 
ATOM     13  C   UNL     1      -2.636 -10.464  13.518  0.00  0.00    +0.165 C 
ENDROOT
BRANCH  11   3
ATOM      3  O   UNL     1      -1.550 -11.107  16.927  0.00  0.00    -0.387 OA
ATOM     22  H   UNL     1      -1.969 -10.344  17.360  0.00  0.00    +0.210 HD
ENDBRANCH  11   3
BRANCH  12   4
ATOM      4  O   UNL     1      -1.149  -9.247  14.940  0.00  0.00    -0.387 OA
ATOM     23  H   UNL     1      -1.594  -9.067  15.786  0.00  0.00    +0.210 HD
ENDBRANCH  12   4
BRANCH  10  14
ATOM     14  C   UNL     1      -4.649 -11.561  16.263  0.00  0.00    +0.130 C 
BRANCH  14  16
ATOM      5  O   UNL     1      -5.015 -10.654  18.434  0.00  0.00    -0.276 OA
ATOM      8  N   UNL     1      -6.663 -10.302  16.853  0.00  0.00    -0.301 N 
ATOM     16  C   UNL     1      -5.448 -10.798  17.290  0.00  0.00    +0.218 C 
ATOM     17  C   UNL     1      -7.553  -9.551  17.724  0.00  0.00    +0.108 C 
ATOM     18  C   UNL     1      -7.229 -10.436  15.514  0.00  0.00    +0.108 C 
ATOM     19  C   UNL     1      -8.576  -8.934  16.783  0.00  0.00    +0.020 C 
ATOM     20  C   UNL     1      -8.668  -9.963  15.663  0.00  0.00    +0.020 C 
ENDBRANCH  14  16
ENDBRANCH  10  14
BRANCH  13  15
ATOM     15  C   UNL     1      -2.696 -11.657  12.573  0.00  0.00    +0.139 C 
BRANCH  15   9
ATOM      9  N   UNL     1      -2.634 -11.237  11.204  0.00  0.00    -0.192 NA
ATOM     24  H   UNL     1      -1.905 -11.706  10.651  0.00  0.00    +0.148 HD
BRANCH   9   1
ATOM      1  S   UNL     1      -4.080 -10.848  10.342  0.00  0.00    +0.027 S 
ATOM      6  O   UNL     1      -5.203 -10.896  11.257  0.00  0.00    -0.158 OA
ATOM      7  O   UNL     1      -4.111 -11.577   9.088  0.00  0.00    -0.158 OA
ATOM     21  C   UNL     1      -3.761  -9.141   9.955  0.00  0.00    +0.214 C 
ENDBRANCH   9   1
ENDBRANCH  15   9
ENDBRANCH  13  15
TORSDOF 7
ENDMDL
