REMARK  Name = 45784340
REMARK  3 active torsions:
REMARK  status: ('A' for Active; 'I' for Inactive)
REMARK    1  A    between atoms: N_5  and  C_11
REMARK    2  A    between atoms: C_7  and  C_12
REMARK    3  A    between atoms: C_11  and  C_13
REMARK                            x       y       z     vdW  Elec       q    Type
REMARK                         _______ _______ _______ _____ _____    ______ ____
ROOT
ATOM      5  N   UNL     1      -1.363  -0.406  -0.192  0.00  0.00    -0.297 NA
ATOM      7  C   UNL     1       0.827  -0.899   0.489  0.00  0.00    +0.090 C 
ATOM      8  C   UNL     1       0.089  -0.160   1.620  0.00  0.00    +0.029 C 
ATOM      9  C   UNL     1      -0.036  -0.660  -0.758  0.00  0.00    +0.097 C 
ATOM     10  C   UNL     1      -1.123   0.474   0.951  0.00  0.00    +0.085 C 
ENDROOT
BRANCH   7  12
ATOM      2  F   UNL     1       7.506   1.656  -0.546  0.00  0.00    -0.205 F 
ATOM      4  O   UNL     1       3.194  -1.476   0.443  0.00  0.00    -0.439 OA
ATOM      6  N   UNL     1       2.747   0.702   0.004  0.00  0.00    -0.213 NA
ATOM     12  C   UNL     1       2.268  -0.487   0.296  0.00  0.00    +0.201 A 
ATOM     14  C   UNL     1       4.103   0.493  -0.048  0.00  0.00    +0.112 A 
ATOM     15  C   UNL     1       4.381  -0.840   0.220  0.00  0.00    +0.156 A 
ATOM     18  C   UNL     1       5.168   1.366  -0.314  0.00  0.00    +0.070 A 
ATOM     19  C   UNL     1       5.655  -1.393   0.248  0.00  0.00    +0.051 A 
ATOM     22  C   UNL     1       6.469   0.845  -0.295  0.00  0.00    +0.126 A 
ATOM     23  C   UNL     1       6.705  -0.508  -0.019  0.00  0.00    +0.042 A 
ENDBRANCH   7  12
BRANCH   5  11
ATOM     11  C   UNL     1      -2.276   0.180  -1.161  0.00  0.00    +0.119 C 
BRANCH  11  13
ATOM      1  F   UNL     1      -6.389   2.053   0.682  0.00  0.00    -0.202 F 
ATOM      3  F   UNL     1      -7.655  -0.358   0.432  0.00  0.00    -0.202 F 
ATOM     13  C   UNL     1      -3.713   0.036  -0.736  0.00  0.00    -0.030 A 
ATOM     16  C   UNL     1      -4.399   1.133  -0.213  0.00  0.00    +0.046 A 
ATOM     17  C   UNL     1      -4.359  -1.194  -0.864  0.00  0.00    +0.008 A 
ATOM     20  C   UNL     1      -5.731   1.000   0.181  0.00  0.00    +0.159 A 
ATOM     21  C   UNL     1      -5.691  -1.327  -0.470  0.00  0.00    +0.041 A 
ATOM     24  C   UNL     1      -6.376  -0.230   0.052  0.00  0.00    +0.158 A 
ENDBRANCH  11  13
ENDBRANCH   5  11
TORSDOF 3
