MODEL 1
REMARK VINA RESULT:      -5.4      0.000      0.000
REMARK  Name = 75537146
REMARK  6 active torsions:
REMARK  status: ('A' for Active; 'I' for Inactive)
REMARK    1  A    between atoms: O_3  and  C_16
REMARK    2  A    between atoms: O_3  and  C_22
REMARK    3  A    between atoms: N_5  and  C_14
REMARK    4  A    between atoms: N_6  and  C_15
REMARK    5  A    between atoms: C_14  and  C_17
REMARK    6  A    between atoms: C_15  and  C_16
REMARK                            x       y       z     vdW  Elec       q    Type
REMARK                         _______ _______ _______ _____ _____    ______ ____
ROOT
ATOM      2  O   UNL     1     -17.211   1.849  22.663  0.00  0.00    -0.252 OA
ATOM      4  N   UNL     1     -16.495   2.337  24.846  0.00  0.00    -0.278 N 
ATOM      5  N   UNL     1     -16.428   2.297  27.658  0.00  0.00    -0.295 NA
ATOM      6  N   UNL     1     -16.635   4.025  23.370  0.00  0.00    -0.281 N 
ATOM      8  C   UNL     1     -15.961   3.483  25.553  0.00  0.00    +0.109 C 
ATOM      9  C   UNL     1     -16.579   3.583  26.947  0.00  0.00    +0.109 C 
ATOM     10  C   UNL     1     -16.274   4.658  24.628  0.00  0.00    +0.133 C 
ATOM     11  C   UNL     1     -16.533   1.051  25.510  0.00  0.00    +0.125 C 
ATOM     12  C   UNL     1     -17.101   1.207  26.923  0.00  0.00    +0.104 C 
ATOM     13  C   UNL     1     -16.825   2.636  23.518  0.00  0.00    +0.305 C 
ENDROOT
BRANCH   5  14
ATOM     14  C   UNL     1     -16.962   2.400  29.017  0.00  0.00    +0.122 C 
BRANCH  14  17
ATOM      1  F   UNL     1     -16.128  -0.038  30.238  0.00  0.00    -0.204 F 
ATOM      7  N   UNL     1     -13.850   2.181  31.978  0.00  0.00    -0.260 NA
ATOM     17  C   UNL     1     -15.874   2.321  30.053  0.00  0.00    +0.005 A 
ATOM     18  C   UNL     1     -15.520   1.095  30.607  0.00  0.00    +0.146 A 
ATOM     19  C   UNL     1     -15.217   3.477  30.462  0.00  0.00    +0.027 A 
ATOM     20  C   UNL     1     -14.511   1.079  31.556  0.00  0.00    +0.149 A 
ATOM     21  C   UNL     1     -14.222   3.355  31.418  0.00  0.00    +0.111 A 
ENDBRANCH  14  17
ENDBRANCH   5  14
BRANCH   6  15
ATOM     15  C   UNL     1     -16.903   4.792  22.175  0.00  0.00    +0.137 C 
BRANCH  15  16
ATOM     16  C   UNL     1     -15.658   5.508  21.681  0.00  0.00    +0.178 C 
BRANCH  16   3
ATOM      3  O   UNL     1     -14.551   4.618  21.730  0.00  0.00    -0.381 OA
ATOM     22  C   UNL     1     -13.351   5.296  22.074  0.00  0.00    +0.194 C 
ENDBRANCH  16   3
ENDBRANCH  15  16
ENDBRANCH   6  15
TORSDOF 5
ENDMDL
MODEL 2
REMARK VINA RESULT:      -5.4      3.593      5.663
REMARK  Name = 75537146
REMARK  6 active torsions:
REMARK  status: ('A' for Active; 'I' for Inactive)
REMARK    1  A    between atoms: O_3  and  C_16
REMARK    2  A    between atoms: O_3  and  C_22
REMARK    3  A    between atoms: N_5  and  C_14
REMARK    4  A    between atoms: N_6  and  C_15
REMARK    5  A    between atoms: C_14  and  C_17
REMARK    6  A    between atoms: C_15  and  C_16
REMARK                            x       y       z     vdW  Elec       q    Type
REMARK                         _______ _______ _______ _____ _____    ______ ____
ROOT
ATOM      2  O   UNL     1     -14.973  -0.257  29.246  0.00  0.00    -0.252 OA
ATOM      4  N   UNL     1     -14.794   1.904  30.149  0.00  0.00    -0.278 N 
ATOM      5  N   UNL     1     -14.808   3.953  32.076  0.00  0.00    -0.295 NA
ATOM      6  N   UNL     1     -15.914   1.647  28.220  0.00  0.00    -0.281 N 
ATOM      8  C   UNL     1     -15.122   3.253  29.738  0.00  0.00    +0.109 C 
ATOM      9  C   UNL     1     -15.710   4.039  30.909  0.00  0.00    +0.109 C 
ATOM     10  C   UNL     1     -16.073   3.052  28.559  0.00  0.00    +0.133 C 
ATOM     11  C   UNL     1     -14.037   1.699  31.367  0.00  0.00    +0.125 C 
ATOM     12  C   UNL     1     -14.623   2.550  32.497  0.00  0.00    +0.104 C 
ATOM     13  C   UNL     1     -15.195   0.946  29.208  0.00  0.00    +0.305 C 
ENDROOT
BRANCH   5  14
ATOM     14  C   UNL     1     -15.331   4.752  33.184  0.00  0.00    +0.122 C 
BRANCH  14  17
ATOM      1  F   UNL     1     -14.317   5.251  35.802  0.00  0.00    -0.204 F 
ATOM      7  N   UNL     1     -12.747   8.058  34.129  0.00  0.00    -0.260 NA
ATOM     17  C   UNL     1     -14.428   5.909  33.517  0.00  0.00    +0.005 A 
ATOM     18  C   UNL     1     -13.971   6.090  34.819  0.00  0.00    +0.146 A 
ATOM     19  C   UNL     1     -14.044   6.801  32.522  0.00  0.00    +0.027 A 
ATOM     20  C   UNL     1     -13.141   7.170  35.070  0.00  0.00    +0.149 A 
ATOM     21  C   UNL     1     -13.211   7.850  32.876  0.00  0.00    +0.111 A 
ENDBRANCH  14  17
ENDBRANCH   5  14
BRANCH   6  15
ATOM     15  C   UNL     1     -16.566   1.058  27.071  0.00  0.00    +0.137 C 
BRANCH  15  16
ATOM     16  C   UNL     1     -16.946   2.110  26.046  0.00  0.00    +0.178 C 
BRANCH  16   3
ATOM      3  O   UNL     1     -15.995   2.106  24.990  0.00  0.00    -0.381 OA
ATOM     22  C   UNL     1     -15.683   3.424  24.562  0.00  0.00    +0.194 C 
ENDBRANCH  16   3
ENDBRANCH  15  16
ENDBRANCH   6  15
TORSDOF 5
ENDMDL
MODEL 3
REMARK VINA RESULT:      -5.2     20.121     21.569
REMARK  Name = 75537146
REMARK  6 active torsions:
REMARK  status: ('A' for Active; 'I' for Inactive)
REMARK    1  A    between atoms: O_3  and  C_16
REMARK    2  A    between atoms: O_3  and  C_22
REMARK    3  A    between atoms: N_5  and  C_14
REMARK    4  A    between atoms: N_6  and  C_15
REMARK    5  A    between atoms: C_14  and  C_17
REMARK    6  A    between atoms: C_15  and  C_16
REMARK                            x       y       z     vdW  Elec       q    Type
REMARK                         _______ _______ _______ _____ _____    ______ ____
ROOT
ATOM      2  O   UNL     1      -1.420 -10.242  11.857  0.00  0.00    -0.252 OA
ATOM      4  N   UNL     1      -3.083 -10.530  13.490  0.00  0.00    -0.278 N 
ATOM      5  N   UNL     1      -4.388 -11.571  15.754  0.00  0.00    -0.295 NA
ATOM      6  N   UNL     1      -3.720 -10.336  11.344  0.00  0.00    -0.281 N 
ATOM      8  C   UNL     1      -4.531 -10.503  13.542  0.00  0.00    +0.109 C 
ATOM      9  C   UNL     1      -5.052 -11.627  14.435  0.00  0.00    +0.109 C 
ATOM     10  C   UNL     1      -4.948 -10.603  12.075  0.00  0.00    +0.133 C 
ATOM     11  C   UNL     1      -2.332 -10.627  14.724  0.00  0.00    +0.125 C 
ATOM     12  C   UNL     1      -2.926 -11.723  15.613  0.00  0.00    +0.104 C 
ATOM     13  C   UNL     1      -2.592 -10.351  12.190  0.00  0.00    +0.305 C 
ENDROOT
BRANCH   5  14
ATOM     14  C   UNL     1      -4.924 -12.606  16.638  0.00  0.00    +0.122 C 
BRANCH  14  17
ATOM      1  F   UNL     1      -3.655 -11.774  19.052  0.00  0.00    -0.204 F 
ATOM      7  N   UNL     1      -7.056 -10.917  19.970  0.00  0.00    -0.260 NA
ATOM     17  C   UNL     1      -5.668 -12.015  17.805  0.00  0.00    +0.005 A 
ATOM     18  C   UNL     1      -4.982 -11.631  18.953  0.00  0.00    +0.146 A 
ATOM     19  C   UNL     1      -7.047 -11.850  17.740  0.00  0.00    +0.027 A 
ATOM     20  C   UNL     1      -5.715 -11.093  19.997  0.00  0.00    +0.149 A 
ATOM     21  C   UNL     1      -7.689 -11.301  18.838  0.00  0.00    +0.111 A 
ENDBRANCH  14  17
ENDBRANCH   5  14
BRANCH   6  15
ATOM     15  C   UNL     1      -3.695 -10.226   9.903  0.00  0.00    +0.137 C 
BRANCH  15  16
ATOM     16  C   UNL     1      -4.253  -8.895   9.436  0.00  0.00    +0.178 C 
BRANCH  16   3
ATOM      3  O   UNL     1      -5.425  -9.119   8.663  0.00  0.00    -0.381 OA
ATOM     22  C   UNL     1      -6.534  -8.391   9.173  0.00  0.00    +0.194 C 
ENDBRANCH  16   3
ENDBRANCH  15  16
ENDBRANCH   6  15
TORSDOF 5
ENDMDL
MODEL 4
REMARK VINA RESULT:      -5.2     21.229     23.805
REMARK  Name = 75537146
REMARK  6 active torsions:
REMARK  status: ('A' for Active; 'I' for Inactive)
REMARK    1  A    between atoms: O_3  and  C_16
REMARK    2  A    between atoms: O_3  and  C_22
REMARK    3  A    between atoms: N_5  and  C_14
REMARK    4  A    between atoms: N_6  and  C_15
REMARK    5  A    between atoms: C_14  and  C_17
REMARK    6  A    between atoms: C_15  and  C_16
REMARK                            x       y       z     vdW  Elec       q    Type
REMARK                         _______ _______ _______ _____ _____    ______ ____
ROOT
ATOM      2  O   UNL     1      -1.998 -10.997  16.133  0.00  0.00    -0.252 OA
ATOM      4  N   UNL     1      -2.975 -10.955  13.997  0.00  0.00    -0.278 N 
ATOM      5  N   UNL     1      -3.300 -10.345  11.270  0.00  0.00    -0.295 NA
ATOM      6  N   UNL     1      -4.300 -10.623  15.780  0.00  0.00    -0.281 N 
ATOM      8  C   UNL     1      -4.313 -10.886  13.447  0.00  0.00    +0.109 C 
ATOM      9  C   UNL     1      -4.344  -9.951  12.238  0.00  0.00    +0.109 C 
ATOM     10  C   UNL     1      -5.168 -10.434  14.630  0.00  0.00    +0.133 C 
ATOM     11  C   UNL     1      -1.855 -11.188  13.108  0.00  0.00    +0.125 C 
ATOM     12  C   UNL     1      -1.959 -10.275  11.885  0.00  0.00    +0.104 C 
ATOM     13  C   UNL     1      -2.968 -10.878  15.396  0.00  0.00    +0.305 C 
ENDROOT
BRANCH   5  14
ATOM     14  C   UNL     1      -3.360  -9.494  10.081  0.00  0.00    +0.122 C 
BRANCH  14  17
ATOM      1  F   UNL     1      -5.558  -7.773   9.501  0.00  0.00    -0.204 F 
ATOM      7  N   UNL     1      -6.608 -10.599   7.487  0.00  0.00    -0.260 NA
ATOM     17  C   UNL     1      -4.498  -9.879   9.174  0.00  0.00    +0.005 A 
ATOM     18  C   UNL     1      -5.538  -8.986   8.937  0.00  0.00    +0.146 A 
ATOM     19  C   UNL     1      -4.512 -11.131   8.568  0.00  0.00    +0.027 A 
ATOM     20  C   UNL     1      -6.559  -9.391   8.093  0.00  0.00    +0.149 A 
ATOM     21  C   UNL     1      -5.579 -11.440   7.741  0.00  0.00    +0.111 A 
ENDBRANCH  14  17
ENDBRANCH   5  14
BRANCH   6  15
ATOM     15  C   UNL     1      -4.764 -10.414  17.133  0.00  0.00    +0.137 C 
BRANCH  15  16
ATOM     16  C   UNL     1      -5.586 -11.589  17.628  0.00  0.00    +0.178 C 
BRANCH  16   3
ATOM      3  O   UNL     1      -4.719 -12.576  18.171  0.00  0.00    -0.381 OA
ATOM     22  C   UNL     1      -3.882 -12.036  19.183  0.00  0.00    +0.194 C 
ENDBRANCH  16   3
ENDBRANCH  15  16
ENDBRANCH   6  15
TORSDOF 5
ENDMDL
MODEL 5
REMARK VINA RESULT:      -5.2     32.655     36.382
REMARK  Name = 75537146
REMARK  6 active torsions:
REMARK  status: ('A' for Active; 'I' for Inactive)
REMARK    1  A    between atoms: O_3  and  C_16
REMARK    2  A    between atoms: O_3  and  C_22
REMARK    3  A    between atoms: N_5  and  C_14
REMARK    4  A    between atoms: N_6  and  C_15
REMARK    5  A    between atoms: C_14  and  C_17
REMARK    6  A    between atoms: C_15  and  C_16
REMARK                            x       y       z     vdW  Elec       q    Type
REMARK                         _______ _______ _______ _____ _____    ______ ____
ROOT
ATOM      2  O   UNL     1      14.779   6.331   1.578  0.00  0.00    -0.252 OA
ATOM      4  N   UNL     1      12.627   5.701   2.278  0.00  0.00    -0.278 N 
ATOM      5  N   UNL     1      10.473   5.201   4.017  0.00  0.00    -0.295 NA
ATOM      6  N   UNL     1      13.681   4.402   0.779  0.00  0.00    -0.281 N 
ATOM      8  C   UNL     1      11.647   4.699   1.913  0.00  0.00    +0.109 C 
ATOM      9  C   UNL     1      10.994   4.113   3.164  0.00  0.00    +0.109 C 
ATOM     10  C   UNL     1      12.445   3.699   1.078  0.00  0.00    +0.133 C 
ATOM     11  C   UNL     1      12.266   6.733   3.228  0.00  0.00    +0.125 C 
ATOM     12  C   UNL     1      11.561   6.108   4.435  0.00  0.00    +0.104 C 
ATOM     13  C   UNL     1      13.816   5.577   1.547  0.00  0.00    +0.305 C 
ENDROOT
BRANCH   5  14
ATOM     14  C   UNL     1       9.792   4.649   5.188  0.00  0.00    +0.122 C 
BRANCH  14  17
ATOM      1  F   UNL     1      10.306   4.634   7.992  0.00  0.00    -0.204 F 
ATOM      7  N   UNL     1       8.446   7.743   7.856  0.00  0.00    -0.260 NA
ATOM     17  C   UNL     1       9.321   5.730   6.123  0.00  0.00    +0.005 A 
ATOM     18  C   UNL     1       9.610   5.656   7.482  0.00  0.00    +0.146 A 
ATOM     19  C   UNL     1       8.596   6.810   5.631  0.00  0.00    +0.027 A 
ATOM     20  C   UNL     1       9.154   6.678   8.298  0.00  0.00    +0.149 A 
ATOM     21  C   UNL     1       8.184   7.781   6.530  0.00  0.00    +0.111 A 
ENDBRANCH  14  17
ENDBRANCH   5  14
BRANCH   6  15
ATOM     15  C   UNL     1      14.688   3.844  -0.095  0.00  0.00    +0.137 C 
BRANCH  15  16
ATOM     16  C   UNL     1      14.503   4.310  -1.528  0.00  0.00    +0.178 C 
BRANCH  16   3
ATOM      3  O   UNL     1      15.776   4.523  -2.123  0.00  0.00    -0.381 OA
ATOM     22  C   UNL     1      16.829   4.326  -1.190  0.00  0.00    +0.194 C 
ENDBRANCH  16   3
ENDBRANCH  15  16
ENDBRANCH   6  15
TORSDOF 5
ENDMDL
MODEL 6
REMARK VINA RESULT:      -5.1     20.935     23.330
REMARK  Name = 75537146
REMARK  6 active torsions:
REMARK  status: ('A' for Active; 'I' for Inactive)
REMARK    1  A    between atoms: O_3  and  C_16
REMARK    2  A    between atoms: O_3  and  C_22
REMARK    3  A    between atoms: N_5  and  C_14
REMARK    4  A    between atoms: N_6  and  C_15
REMARK    5  A    between atoms: C_14  and  C_17
REMARK    6  A    between atoms: C_15  and  C_16
REMARK                            x       y       z     vdW  Elec       q    Type
REMARK                         _______ _______ _______ _____ _____    ______ ____
ROOT
ATOM      2  O   UNL     1      -5.271 -13.788  17.187  0.00  0.00    -0.252 OA
ATOM      4  N   UNL     1      -4.903 -12.350  15.366  0.00  0.00    -0.278 N 
ATOM      5  N   UNL     1      -3.904 -11.441  12.898  0.00  0.00    -0.295 NA
ATOM      6  N   UNL     1      -4.800 -11.491  17.438  0.00  0.00    -0.281 N 
ATOM      8  C   UNL     1      -4.727 -10.928  15.160  0.00  0.00    +0.109 C 
ATOM      9  C   UNL     1      -3.629 -10.671  14.129  0.00  0.00    +0.109 C 
ATOM     10  C   UNL     1      -4.429 -10.393  16.560  0.00  0.00    +0.133 C 
ATOM     11  C   UNL     1      -5.032 -13.222  14.216  0.00  0.00    +0.125 C 
ATOM     12  C   UNL     1      -3.952 -12.890  13.184  0.00  0.00    +0.104 C 
ATOM     13  C   UNL     1      -5.027 -12.682  16.721  0.00  0.00    +0.305 C 
ENDROOT
BRANCH   5  14
ATOM     14  C   UNL     1      -2.891 -11.157  11.882  0.00  0.00    +0.122 C 
BRANCH  14  17
ATOM      1  F   UNL     1      -3.965 -12.817   9.827  0.00  0.00    -0.204 F 
ATOM      7  N   UNL     1      -4.641  -9.614   8.268  0.00  0.00    -0.260 NA
ATOM     17  C   UNL     1      -3.503 -10.619  10.616  0.00  0.00    +0.005 A 
ATOM     18  C   UNL     1      -4.008 -11.490   9.656  0.00  0.00    +0.146 A 
ATOM     19  C   UNL     1      -3.567  -9.246  10.403  0.00  0.00    +0.027 A 
ATOM     20  C   UNL     1      -4.561 -10.942   8.511  0.00  0.00    +0.149 A 
ATOM     21  C   UNL     1      -4.140  -8.798   9.223  0.00  0.00    +0.111 A 
ENDBRANCH  14  17
ENDBRANCH   5  14
BRANCH   6  15
ATOM     15  C   UNL     1      -4.775 -11.362  18.878  0.00  0.00    +0.137 C 
BRANCH  15  16
ATOM     16  C   UNL     1      -6.057 -10.744  19.404  0.00  0.00    +0.178 C 
BRANCH  16   3
ATOM      3  O   UNL     1      -6.707 -11.668  20.267  0.00  0.00    -0.381 OA
ATOM     22  C   UNL     1      -7.885 -12.197  19.674  0.00  0.00    +0.194 C 
ENDBRANCH  16   3
ENDBRANCH  15  16
ENDBRANCH   6  15
TORSDOF 5
ENDMDL
MODEL 7
REMARK VINA RESULT:      -5.1     20.533     22.969
REMARK  Name = 75537146
REMARK  6 active torsions:
REMARK  status: ('A' for Active; 'I' for Inactive)
REMARK    1  A    between atoms: O_3  and  C_16
REMARK    2  A    between atoms: O_3  and  C_22
REMARK    3  A    between atoms: N_5  and  C_14
REMARK    4  A    between atoms: N_6  and  C_15
REMARK    5  A    between atoms: C_14  and  C_17
REMARK    6  A    between atoms: C_15  and  C_16
REMARK                            x       y       z     vdW  Elec       q    Type
REMARK                         _______ _______ _______ _____ _____    ______ ____
ROOT
ATOM      2  O   UNL     1      -4.470 -10.484  17.796  0.00  0.00    -0.252 OA
ATOM      4  N   UNL     1      -4.376 -10.879  15.482  0.00  0.00    -0.278 N 
ATOM      5  N   UNL     1      -3.356 -10.893  12.861  0.00  0.00    -0.295 NA
ATOM      6  N   UNL     1      -6.287 -10.076  16.348  0.00  0.00    -0.281 N 
ATOM      8  C   UNL     1      -5.301 -10.865  14.368  0.00  0.00    +0.109 C 
ATOM      9  C   UNL     1      -4.647 -10.231  13.141  0.00  0.00    +0.109 C 
ATOM     10  C   UNL     1      -6.512 -10.108  14.912  0.00  0.00    +0.133 C 
ATOM     11  C   UNL     1      -3.029 -11.370  15.278  0.00  0.00    +0.125 C 
ATOM     12  C   UNL     1      -2.436 -10.757  14.007  0.00  0.00    +0.104 C 
ATOM     13  C   UNL     1      -4.980 -10.485  16.683  0.00  0.00    +0.305 C 
ENDROOT
BRANCH   5  14
ATOM     14  C   UNL     1      -2.750 -10.335  11.652  0.00  0.00    +0.122 C 
BRANCH  14  17
ATOM      1  F   UNL     1      -3.869  -8.477   9.801  0.00  0.00    -0.204 F 
ATOM      7  N   UNL     1      -4.874 -11.519   8.104  0.00  0.00    -0.260 NA
ATOM     17  C   UNL     1      -3.494 -10.747  10.410  0.00  0.00    +0.005 A 
ATOM     18  C   UNL     1      -4.014  -9.783   9.552  0.00  0.00    +0.146 A 
ATOM     19  C   UNL     1      -3.664 -12.095  10.116  0.00  0.00    +0.027 A 
ATOM     20  C   UNL     1      -4.689 -10.217   8.423  0.00  0.00    +0.149 A 
ATOM     21  C   UNL     1      -4.355 -12.426   8.962  0.00  0.00    +0.111 A 
ENDBRANCH  14  17
ENDBRANCH   5  14
BRANCH   6  15
ATOM     15  C   UNL     1      -7.266  -9.537  17.265  0.00  0.00    +0.137 C 
BRANCH  15  16
ATOM     16  C   UNL     1      -8.010 -10.639  17.996  0.00  0.00    +0.178 C 
BRANCH  16   3
ATOM      3  O   UNL     1      -7.520 -10.738  19.327  0.00  0.00    -0.381 OA
ATOM     22  C   UNL     1      -7.160 -12.073  19.652  0.00  0.00    +0.194 C 
ENDBRANCH  16   3
ENDBRANCH  15  16
ENDBRANCH   6  15
TORSDOF 5
ENDMDL
MODEL 8
REMARK VINA RESULT:      -5.1      5.293      8.431
REMARK  Name = 75537146
REMARK  6 active torsions:
REMARK  status: ('A' for Active; 'I' for Inactive)
REMARK    1  A    between atoms: O_3  and  C_16
REMARK    2  A    between atoms: O_3  and  C_22
REMARK    3  A    between atoms: N_5  and  C_14
REMARK    4  A    between atoms: N_6  and  C_15
REMARK    5  A    between atoms: C_14  and  C_17
REMARK    6  A    between atoms: C_15  and  C_16
REMARK                            x       y       z     vdW  Elec       q    Type
REMARK                         _______ _______ _______ _____ _____    ______ ____
ROOT
ATOM      2  O   UNL     1     -14.837   0.970  33.587  0.00  0.00    -0.252 OA
ATOM      4  N   UNL     1     -14.146   3.188  33.243  0.00  0.00    -0.278 N 
ATOM      5  N   UNL     1     -14.179   5.998  33.369  0.00  0.00    -0.295 NA
ATOM      6  N   UNL     1     -14.050   1.763  31.509  0.00  0.00    -0.281 N 
ATOM      8  C   UNL     1     -13.515   3.947  32.183  0.00  0.00    +0.109 C 
ATOM      9  C   UNL     1     -14.164   5.324  32.054  0.00  0.00    +0.109 C 
ATOM     10  C   UNL     1     -13.665   3.050  30.955  0.00  0.00    +0.133 C 
ATOM     11  C   UNL     1     -14.348   3.810  34.535  0.00  0.00    +0.125 C 
ATOM     12  C   UNL     1     -14.943   5.209  34.356  0.00  0.00    +0.104 C 
ATOM     13  C   UNL     1     -14.396   1.861  32.872  0.00  0.00    +0.305 C 
ENDROOT
BRANCH   5  14
ATOM     14  C   UNL     1     -14.744   7.342  33.246  0.00  0.00    +0.122 C 
BRANCH  14  17
ATOM      1  F   UNL     1     -12.649   8.094  35.028  0.00  0.00    -0.204 F 
ATOM      7  N   UNL     1     -11.739  10.260  32.267  0.00  0.00    -0.260 NA
ATOM     17  C   UNL     1     -13.692   8.363  32.906  0.00  0.00    +0.005 A 
ATOM     18  C   UNL     1     -12.699   8.680  33.827  0.00  0.00    +0.146 A 
ATOM     19  C   UNL     1     -13.709   8.994  31.666  0.00  0.00    +0.027 A 
ATOM     20  C   UNL     1     -11.755   9.626  33.462  0.00  0.00    +0.149 A 
ATOM     21  C   UNL     1     -12.720   9.926  31.398  0.00  0.00    +0.111 A 
ENDBRANCH  14  17
ENDBRANCH   5  14
BRANCH   6  15
ATOM     15  C   UNL     1     -14.192   0.585  30.684  0.00  0.00    +0.137 C 
BRANCH  15  16
ATOM     16  C   UNL     1     -15.617   0.418  30.190  0.00  0.00    +0.178 C 
BRANCH  16   3
ATOM      3  O   UNL     1     -15.618   0.314  28.773  0.00  0.00    -0.381 OA
ATOM     22  C   UNL     1     -16.329   1.386  28.170  0.00  0.00    +0.194 C 
ENDBRANCH  16   3
ENDBRANCH  15  16
ENDBRANCH   6  15
TORSDOF 5
ENDMDL
MODEL 9
REMARK VINA RESULT:      -5.1      4.775      8.596
REMARK  Name = 75537146
REMARK  6 active torsions:
REMARK  status: ('A' for Active; 'I' for Inactive)
REMARK    1  A    between atoms: O_3  and  C_16
REMARK    2  A    between atoms: O_3  and  C_22
REMARK    3  A    between atoms: N_5  and  C_14
REMARK    4  A    between atoms: N_6  and  C_15
REMARK    5  A    between atoms: C_14  and  C_17
REMARK    6  A    between atoms: C_15  and  C_16
REMARK                            x       y       z     vdW  Elec       q    Type
REMARK                         _______ _______ _______ _____ _____    ______ ____
ROOT
ATOM      2  O   UNL     1     -18.555   3.911  22.538  0.00  0.00    -0.252 OA
ATOM      4  N   UNL     1     -16.460   4.946  22.781  0.00  0.00    -0.278 N 
ATOM      5  N   UNL     1     -13.960   6.015  22.059  0.00  0.00    -0.295 NA
ATOM      6  N   UNL     1     -17.048   3.370  24.270  0.00  0.00    -0.281 N 
ATOM      8  C   UNL     1     -15.390   4.951  23.756  0.00  0.00    +0.109 C 
ATOM      9  C   UNL     1     -14.032   4.927  23.057  0.00  0.00    +0.109 C 
ATOM     10  C   UNL     1     -15.685   3.729  24.625  0.00  0.00    +0.133 C 
ATOM     11  C   UNL     1     -16.412   5.875  21.671  0.00  0.00    +0.125 C 
ATOM     12  C   UNL     1     -15.017   5.863  21.039  0.00  0.00    +0.104 C 
ATOM     13  C   UNL     1     -17.490   4.061  23.124  0.00  0.00    +0.305 C 
ENDROOT
BRANCH   5  14
ATOM     14  C   UNL     1     -12.642   6.040  21.426  0.00  0.00    +0.122 C 
BRANCH  14  17
ATOM      1  F   UNL     1     -11.193   6.427  19.000  0.00  0.00    -0.204 F 
ATOM      7  N   UNL     1     -11.718   9.920  19.816  0.00  0.00    -0.260 NA
ATOM     17  C   UNL     1     -12.317   7.396  20.861  0.00  0.00    +0.005 A 
ATOM     18  C   UNL     1     -11.605   7.509  19.671  0.00  0.00    +0.146 A 
ATOM     19  C   UNL     1     -12.729   8.545  21.528  0.00  0.00    +0.027 A 
ATOM     20  C   UNL     1     -11.334   8.781  19.195  0.00  0.00    +0.149 A 
ATOM     21  C   UNL     1     -12.407   9.771  20.970  0.00  0.00    +0.111 A 
ENDBRANCH  14  17
ENDBRANCH   5  14
BRANCH   6  15
ATOM     15  C   UNL     1     -17.764   2.314  24.950  0.00  0.00    +0.137 C 
BRANCH  15  16
ATOM     16  C   UNL     1     -16.815   1.287  25.539  0.00  0.00    +0.178 C 
BRANCH  16   3
ATOM      3  O   UNL     1     -16.947   0.062  24.830  0.00  0.00    -0.381 OA
ATOM     22  C   UNL     1     -18.269  -0.120  24.343  0.00  0.00    +0.194 C 
ENDBRANCH  16   3
ENDBRANCH  15  16
ENDBRANCH   6  15
TORSDOF 5
ENDMDL
MODEL 10
REMARK VINA RESULT:      -5.0     32.373     36.571
REMARK  Name = 75537146
REMARK  6 active torsions:
REMARK  status: ('A' for Active; 'I' for Inactive)
REMARK    1  A    between atoms: O_3  and  C_16
REMARK    2  A    between atoms: O_3  and  C_22
REMARK    3  A    between atoms: N_5  and  C_14
REMARK    4  A    between atoms: N_6  and  C_15
REMARK    5  A    between atoms: C_14  and  C_17
REMARK    6  A    between atoms: C_15  and  C_16
REMARK                            x       y       z     vdW  Elec       q    Type
REMARK                         _______ _______ _______ _____ _____    ______ ____
ROOT
ATOM      2  O   UNL     1       8.394   7.852   5.007  0.00  0.00    -0.252 OA
ATOM      4  N   UNL     1      10.008   6.613   3.835  0.00  0.00    -0.278 N 
ATOM      5  N   UNL     1      11.186   5.158   1.735  0.00  0.00    -0.295 NA
ATOM      6  N   UNL     1       9.638   6.107   5.991  0.00  0.00    -0.281 N 
ATOM      8  C   UNL     1      11.003   5.608   4.147  0.00  0.00    +0.109 C 
ATOM      9  C   UNL     1      11.031   4.531   3.064  0.00  0.00    +0.109 C 
ATOM     10  C   UNL     1      10.595   5.112   5.534  0.00  0.00    +0.133 C 
ATOM     11  C   UNL     1       9.975   7.188   2.505  0.00  0.00    +0.125 C 
ATOM     12  C   UNL     1      10.066   6.079   1.454  0.00  0.00    +0.104 C 
ATOM     13  C   UNL     1       9.243   6.972   4.951  0.00  0.00    +0.305 C 
ENDROOT
BRANCH   5  14
ATOM     14  C   UNL     1      11.275   4.133   0.695  0.00  0.00    +0.122 C 
BRANCH  14  17
ATOM      1  F   UNL     1      13.740   3.157   1.744  0.00  0.00    -0.204 F 
ATOM      7  N   UNL     1      15.001   4.337  -1.444  0.00  0.00    -0.260 NA
ATOM     17  C   UNL     1      12.580   4.204  -0.052  0.00  0.00    +0.005 A 
ATOM     18  C   UNL     1      13.745   3.707   0.524  0.00  0.00    +0.146 A 
ATOM     19  C   UNL     1      12.625   4.767  -1.322  0.00  0.00    +0.027 A 
ATOM     20  C   UNL     1      14.918   3.796  -0.206  0.00  0.00    +0.149 A 
ATOM     21  C   UNL     1      13.849   4.810  -1.971  0.00  0.00    +0.111 A 
ENDBRANCH  14  17
ENDBRANCH   5  14
BRANCH   6  15
ATOM     15  C   UNL     1       9.078   6.074   7.324  0.00  0.00    +0.137 C 
BRANCH  15  16
ATOM     16  C   UNL     1      10.147   5.829   8.372  0.00  0.00    +0.178 C 
BRANCH  16   3
ATOM      3  O   UNL     1       9.956   4.545   8.952  0.00  0.00    -0.381 OA
ATOM     22  C   UNL     1       9.114   4.609  10.094  0.00  0.00    +0.194 C 
ENDBRANCH  16   3
ENDBRANCH  15  16
ENDBRANCH   6  15
TORSDOF 5
ENDMDL
