MODEL 1
REMARK VINA RESULT:      -7.0      0.000      0.000
REMARK  Name = 45783739
REMARK  4 active torsions:
REMARK  status: ('A' for Active; 'I' for Inactive)
REMARK    1  A    between atoms: N_2  and  C_9
REMARK    2  A    between atoms: N_3  and  C_19
REMARK    3  A    between atoms: C_10  and  C_18
REMARK    4  A    between atoms: C_20  and  C_21
REMARK                            x       y       z     vdW  Elec       q    Type
REMARK                         _______ _______ _______ _____ _____    ______ ____
ROOT
ATOM      1  O   UNL     1      11.298   8.942  21.357  0.00  0.00    -0.336 OA
ATOM      4  N   UNL     1      12.262  10.963  21.438  0.00  0.00    -0.190 NA
ATOM      5  N   UNL     1      10.663   9.635  22.394  0.00  0.00    -0.056 NA
ATOM     18  C   UNL     1      12.225   9.795  20.848  0.00  0.00    +0.245 A 
ATOM     20  C   UNL     1      11.285  10.818  22.379  0.00  0.00    +0.207 A 
ENDROOT
BRANCH  20  21
ATOM      6  N   UNL     1      10.647  12.721  25.525  0.00  0.00    -0.220 NA
ATOM      7  N   UNL     1      11.294  10.466  25.217  0.00  0.00    -0.342 N 
ATOM      8  N   UNL     1      10.301  14.165  23.627  0.00  0.00    -0.243 NA
ATOM     21  C   UNL     1      10.958  11.874  23.293  0.00  0.00    +0.080 A 
ATOM     22  C   UNL     1      10.956  11.727  24.665  0.00  0.00    +0.130 A 
ATOM     23  C   UNL     1      10.620  13.128  22.826  0.00  0.00    +0.127 A 
ATOM     24  C   UNL     1      10.335  13.896  24.946  0.00  0.00    +0.223 A 
ATOM     25  H   UNL     1      11.046   9.630  24.704  0.00  0.00    +0.144 HD
ATOM     26  H   UNL     1      11.292  10.406  26.228  0.00  0.00    +0.144 HD
ENDBRANCH  20  21
BRANCH  18  10
ATOM      2  N   UNL     1      13.563   7.906  19.932  0.00  0.00    -0.288 NA
ATOM     10  C   UNL     1      13.060   9.275  19.696  0.00  0.00    +0.146 C 
ATOM     11  C   UNL     1      13.698   7.282  18.616  0.00  0.00    +0.085 C 
ATOM     14  C   UNL     1      12.265   9.177  18.381  0.00  0.00    +0.030 C 
ATOM     15  C   UNL     1      12.429   7.735  17.923  0.00  0.00    +0.017 C 
BRANCH   2   9
ATOM      3  N   UNL     1      17.728   7.608  20.722  0.00  0.00    -0.305 NA
ATOM      9  C   UNL     1      14.814   7.875  20.686  0.00  0.00    +0.060 C 
ATOM     12  C   UNL     1      15.743   8.998  20.216  0.00  0.00    +0.034 C 
ATOM     13  C   UNL     1      15.513   6.521  20.533  0.00  0.00    +0.034 C 
ATOM     16  C   UNL     1      17.098   8.920  20.924  0.00  0.00    +0.085 C 
ATOM     17  C   UNL     1      16.875   6.525  21.231  0.00  0.00    +0.085 C 
ATOM     19  C   UNL     1      19.044   7.568  21.362  0.00  0.00    +0.104 C 
ENDBRANCH   2   9
ENDBRANCH  18  10
TORSDOF 3
ENDMDL
MODEL 2
REMARK VINA RESULT:      -6.8      1.995      7.752
REMARK  Name = 45783739
REMARK  4 active torsions:
REMARK  status: ('A' for Active; 'I' for Inactive)
REMARK    1  A    between atoms: N_2  and  C_9
REMARK    2  A    between atoms: N_3  and  C_19
REMARK    3  A    between atoms: C_10  and  C_18
REMARK    4  A    between atoms: C_20  and  C_21
REMARK                            x       y       z     vdW  Elec       q    Type
REMARK                         _______ _______ _______ _____ _____    ______ ____
ROOT
ATOM      1  O   UNL     1      15.603   8.834  20.337  0.00  0.00    -0.336 OA
ATOM      4  N   UNL     1      15.857   6.626  20.616  0.00  0.00    -0.190 NA
ATOM      5  N   UNL     1      16.977   8.617  20.497  0.00  0.00    -0.056 NA
ATOM     18  C   UNL     1      15.017   7.611  20.420  0.00  0.00    +0.245 A 
ATOM     20  C   UNL     1      17.046   7.292  20.656  0.00  0.00    +0.207 A 
ENDROOT
BRANCH  20  21
ATOM      6  N   UNL     1      19.961   5.012  20.181  0.00  0.00    -0.220 NA
ATOM      7  N   UNL     1      18.052   5.342  18.823  0.00  0.00    -0.342 N 
ATOM      8  N   UNL     1      20.238   6.254  22.226  0.00  0.00    -0.243 NA
ATOM     21  C   UNL     1      18.289   6.603  20.859  0.00  0.00    +0.080 A 
ATOM     22  C   UNL     1      18.793   5.660  19.989  0.00  0.00    +0.130 A 
ATOM     23  C   UNL     1      19.062   6.864  21.972  0.00  0.00    +0.127 A 
ATOM     24  C   UNL     1      20.623   5.353  21.303  0.00  0.00    +0.223 A 
ATOM     25  H   UNL     1      17.041   5.377  18.865  0.00  0.00    +0.144 HD
ATOM     26  H   UNL     1      18.465   4.653  18.205  0.00  0.00    +0.144 HD
ENDBRANCH  20  21
BRANCH  18  10
ATOM      2  N   UNL     1      12.900   8.918  20.341  0.00  0.00    -0.288 NA
ATOM     10  C   UNL     1      13.510   7.574  20.276  0.00  0.00    +0.146 C 
ATOM     11  C   UNL     1      11.683   8.859  19.532  0.00  0.00    +0.085 C 
ATOM     14  C   UNL     1      13.055   7.004  18.921  0.00  0.00    +0.030 C 
ATOM     15  C   UNL     1      12.147   8.070  18.325  0.00  0.00    +0.017 C 
BRANCH   2   9
ATOM      3  N   UNL     1      11.359  11.261  23.535  0.00  0.00    -0.305 NA
ATOM      9  C   UNL     1      12.631   9.363  21.707  0.00  0.00    +0.060 C 
ATOM     12  C   UNL     1      11.124   9.348  21.981  0.00  0.00    +0.034 C 
ATOM     13  C   UNL     1      13.192  10.767  21.947  0.00  0.00    +0.034 C 
ATOM     16  C   UNL     1      10.816   9.905  23.373  0.00  0.00    +0.085 C 
ATOM     17  C   UNL     1      12.816  11.278  23.340  0.00  0.00    +0.085 C 
ATOM     19  C   UNL     1      11.012  11.799  24.850  0.00  0.00    +0.104 C 
ENDBRANCH   2   9
ENDBRANCH  18  10
TORSDOF 3
ENDMDL
MODEL 3
REMARK VINA RESULT:      -6.7      4.468      7.920
REMARK  Name = 45783739
REMARK  4 active torsions:
REMARK  status: ('A' for Active; 'I' for Inactive)
REMARK    1  A    between atoms: N_2  and  C_9
REMARK    2  A    between atoms: N_3  and  C_19
REMARK    3  A    between atoms: C_10  and  C_18
REMARK    4  A    between atoms: C_20  and  C_21
REMARK                            x       y       z     vdW  Elec       q    Type
REMARK                         _______ _______ _______ _____ _____    ______ ____
ROOT
ATOM      1  O   UNL     1      16.793   9.207  21.475  0.00  0.00    -0.336 OA
ATOM      4  N   UNL     1      16.805   7.015  21.011  0.00  0.00    -0.190 NA
ATOM      5  N   UNL     1      18.096   8.762  21.729  0.00  0.00    -0.056 NA
ATOM     18  C   UNL     1      16.098   8.116  21.057  0.00  0.00    +0.245 A 
ATOM     20  C   UNL     1      18.024   7.461  21.431  0.00  0.00    +0.207 A 
ENDROOT
BRANCH  20  21
ATOM      6  N   UNL     1      20.581   4.851  20.675  0.00  0.00    -0.220 NA
ATOM      7  N   UNL     1      18.757   5.614  19.375  0.00  0.00    -0.342 N 
ATOM      8  N   UNL     1      21.010   5.790  22.852  0.00  0.00    -0.243 NA
ATOM     21  C   UNL     1      19.150   6.579  21.545  0.00  0.00    +0.080 A 
ATOM     22  C   UNL     1      19.522   5.681  20.567  0.00  0.00    +0.130 A 
ATOM     23  C   UNL     1      19.938   6.591  22.678  0.00  0.00    +0.127 A 
ATOM     24  C   UNL     1      21.271   4.958  21.827  0.00  0.00    +0.223 A 
ATOM     25  H   UNL     1      17.763   5.792  19.426  0.00  0.00    +0.144 HD
ATOM     26  H   UNL     1      19.074   4.950  18.678  0.00  0.00    +0.144 HD
ENDBRANCH  20  21
BRANCH  18  10
ATOM      2  N   UNL     1      14.260   7.721  19.425  0.00  0.00    -0.288 NA
ATOM     10  C   UNL     1      14.639   8.336  20.714  0.00  0.00    +0.146 C 
ATOM     11  C   UNL     1      12.843   7.374  19.534  0.00  0.00    +0.085 C 
ATOM     14  C   UNL     1      13.684   7.706  21.743  0.00  0.00    +0.030 C 
ATOM     15  C   UNL     1      12.768   6.799  20.934  0.00  0.00    +0.017 C 
BRANCH   2   9
ATOM      3  N   UNL     1      13.532  10.305  16.131  0.00  0.00    -0.305 NA
ATOM      9  C   UNL     1      14.529   8.582  18.276  0.00  0.00    +0.060 C 
ATOM     12  C   UNL     1      14.006   9.997  18.541  0.00  0.00    +0.034 C 
ATOM     13  C   UNL     1      13.886   8.018  17.006  0.00  0.00    +0.034 C 
ATOM     16  C   UNL     1      14.189  10.888  17.309  0.00  0.00    +0.085 C 
ATOM     17  C   UNL     1      14.073   8.974  15.825  0.00  0.00    +0.085 C 
ATOM     19  C   UNL     1      13.672  11.193  14.976  0.00  0.00    +0.104 C 
ENDBRANCH   2   9
ENDBRANCH  18  10
TORSDOF 3
ENDMDL
MODEL 4
REMARK VINA RESULT:      -6.7      2.385      7.291
REMARK  Name = 45783739
REMARK  4 active torsions:
REMARK  status: ('A' for Active; 'I' for Inactive)
REMARK    1  A    between atoms: N_2  and  C_9
REMARK    2  A    between atoms: N_3  and  C_19
REMARK    3  A    between atoms: C_10  and  C_18
REMARK    4  A    between atoms: C_20  and  C_21
REMARK                            x       y       z     vdW  Elec       q    Type
REMARK                         _______ _______ _______ _____ _____    ______ ____
ROOT
ATOM      1  O   UNL     1      14.365   6.648  20.463  0.00  0.00    -0.336 OA
ATOM      4  N   UNL     1      16.108   7.508  19.349  0.00  0.00    -0.190 NA
ATOM      5  N   UNL     1      15.510   6.252  21.165  0.00  0.00    -0.056 NA
ATOM     18  C   UNL     1      14.807   7.383  19.409  0.00  0.00    +0.245 A 
ATOM     20  C   UNL     1      16.496   6.798  20.447  0.00  0.00    +0.207 A 
ENDROOT
BRANCH  20  21
ATOM      6  N   UNL     1      20.070   5.726  20.426  0.00  0.00    -0.220 NA
ATOM      7  N   UNL     1      18.303   5.157  18.958  0.00  0.00    -0.342 N 
ATOM      8  N   UNL     1      19.690   7.217  22.280  0.00  0.00    -0.243 NA
ATOM     21  C   UNL     1      17.879   6.650  20.798  0.00  0.00    +0.080 A 
ATOM     22  C   UNL     1      18.769   5.865  20.095  0.00  0.00    +0.130 A 
ATOM     23  C   UNL     1      18.400   7.311  21.892  0.00  0.00    +0.127 A 
ATOM     24  C   UNL     1      20.457   6.420  21.512  0.00  0.00    +0.223 A 
ATOM     25  H   UNL     1      17.350   4.820  18.954  0.00  0.00    +0.144 HD
ATOM     26  H   UNL     1      18.992   4.603  18.464  0.00  0.00    +0.144 HD
ENDBRANCH  20  21
BRANCH  18  10
ATOM      2  N   UNL     1      13.686   9.412  18.501  0.00  0.00    -0.288 NA
ATOM     10  C   UNL     1      13.745   7.936  18.480  0.00  0.00    +0.146 C 
ATOM     11  C   UNL     1      13.218   9.826  17.179  0.00  0.00    +0.085 C 
ATOM     14  C   UNL     1      13.998   7.577  17.005  0.00  0.00    +0.030 C 
ATOM     15  C   UNL     1      14.005   8.907  16.267  0.00  0.00    +0.017 C 
BRANCH   2   9
ATOM      3  N   UNL     1      11.840   9.748  22.315  0.00  0.00    -0.305 NA
ATOM      9  C   UNL     1      12.843   9.939  19.572  0.00  0.00    +0.060 C 
ATOM     12  C   UNL     1      13.700  10.317  20.784  0.00  0.00    +0.034 C 
ATOM     13  C   UNL     1      11.778   8.918  19.985  0.00  0.00    +0.034 C 
ATOM     16  C   UNL     1      12.825  10.777  21.952  0.00  0.00    +0.085 C 
ATOM     17  C   UNL     1      10.966   9.425  21.179  0.00  0.00    +0.085 C 
ATOM     19  C   UNL     1      11.047  10.182  23.465  0.00  0.00    +0.104 C 
ENDBRANCH   2   9
ENDBRANCH  18  10
TORSDOF 3
ENDMDL
MODEL 5
REMARK VINA RESULT:      -6.6      3.852      7.341
REMARK  Name = 45783739
REMARK  4 active torsions:
REMARK  status: ('A' for Active; 'I' for Inactive)
REMARK    1  A    between atoms: N_2  and  C_9
REMARK    2  A    between atoms: N_3  and  C_19
REMARK    3  A    between atoms: C_10  and  C_18
REMARK    4  A    between atoms: C_20  and  C_21
REMARK                            x       y       z     vdW  Elec       q    Type
REMARK                         _______ _______ _______ _____ _____    ______ ____
ROOT
ATOM      1  O   UNL     1      14.502   6.721  19.484  0.00  0.00    -0.336 OA
ATOM      4  N   UNL     1      15.683   7.936  20.950  0.00  0.00    -0.190 NA
ATOM      5  N   UNL     1      15.794   6.181  19.487  0.00  0.00    -0.056 NA
ATOM     18  C   UNL     1      14.523   7.749  20.372  0.00  0.00    +0.245 A 
ATOM     20  C   UNL     1      16.430   6.950  20.376  0.00  0.00    +0.207 A 
ENDROOT
BRANCH  20  21
ATOM      6  N   UNL     1      19.961   5.745  20.332  0.00  0.00    -0.220 NA
ATOM      7  N   UNL     1      18.150   5.198  18.910  0.00  0.00    -0.342 N 
ATOM      8  N   UNL     1      19.667   7.304  22.145  0.00  0.00    -0.243 NA
ATOM     21  C   UNL     1      17.813   6.761  20.710  0.00  0.00    +0.080 A 
ATOM     22  C   UNL     1      18.661   5.922  20.017  0.00  0.00    +0.130 A 
ATOM     23  C   UNL     1      18.376   7.434  21.775  0.00  0.00    +0.127 A 
ATOM     24  C   UNL     1      20.392   6.457  21.391  0.00  0.00    +0.223 A 
ATOM     25  H   UNL     1      17.185   4.897  18.931  0.00  0.00    +0.144 HD
ATOM     26  H   UNL     1      18.810   4.604  18.423  0.00  0.00    +0.144 HD
ENDBRANCH  20  21
BRANCH  18  10
ATOM      2  N   UNL     1      12.309   8.351  19.408  0.00  0.00    -0.288 NA
ATOM     10  C   UNL     1      13.226   8.509  20.555  0.00  0.00    +0.146 C 
ATOM     11  C   UNL     1      10.953   8.478  19.942  0.00  0.00    +0.085 C 
ATOM     14  C   UNL     1      12.417   8.023  21.771  0.00  0.00    +0.030 C 
ATOM     15  C   UNL     1      11.043   7.670  21.221  0.00  0.00    +0.017 C 
BRANCH   2   9
ATOM      3  N   UNL     1      14.438  10.527  16.442  0.00  0.00    -0.305 NA
ATOM      9  C   UNL     1      12.566   9.303  18.329  0.00  0.00    +0.060 C 
ATOM     12  C   UNL     1      13.067   8.568  17.083  0.00  0.00    +0.034 C 
ATOM     13  C   UNL     1      13.590  10.356  18.760  0.00  0.00    +0.034 C 
ATOM     16  C   UNL     1      13.437   9.557  15.975  0.00  0.00    +0.085 C 
ATOM     17  C   UNL     1      13.943  11.287  17.598  0.00  0.00    +0.085 C 
ATOM     19  C   UNL     1      14.818  11.432  15.357  0.00  0.00    +0.104 C 
ENDBRANCH   2   9
ENDBRANCH  18  10
TORSDOF 3
ENDMDL
MODEL 6
REMARK VINA RESULT:      -6.5      1.994      3.539
REMARK  Name = 45783739
REMARK  4 active torsions:
REMARK  status: ('A' for Active; 'I' for Inactive)
REMARK    1  A    between atoms: N_2  and  C_9
REMARK    2  A    between atoms: N_3  and  C_19
REMARK    3  A    between atoms: C_10  and  C_18
REMARK    4  A    between atoms: C_20  and  C_21
REMARK                            x       y       z     vdW  Elec       q    Type
REMARK                         _______ _______ _______ _____ _____    ______ ____
ROOT
ATOM      1  O   UNL     1      11.109   8.286  21.662  0.00  0.00    -0.336 OA
ATOM      4  N   UNL     1      12.378  10.130  21.566  0.00  0.00    -0.190 NA
ATOM      5  N   UNL     1      10.497   9.225  22.501  0.00  0.00    -0.056 NA
ATOM     18  C   UNL     1      12.209   8.900  21.152  0.00  0.00    +0.245 A 
ATOM     20  C   UNL     1      11.303  10.285  22.391  0.00  0.00    +0.207 A 
ENDROOT
BRANCH  20  21
ATOM      6  N   UNL     1      10.824  12.771  25.133  0.00  0.00    -0.220 NA
ATOM      7  N   UNL     1      11.280  10.452  25.246  0.00  0.00    -0.342 N 
ATOM      8  N   UNL     1      10.600  13.872  23.001  0.00  0.00    -0.243 NA
ATOM     21  C   UNL     1      11.064  11.512  23.095  0.00  0.00    +0.080 A 
ATOM     22  C   UNL     1      11.049  11.616  24.471  0.00  0.00    +0.130 A 
ATOM     23  C   UNL     1      10.832  12.684  22.404  0.00  0.00    +0.127 A 
ATOM     24  C   UNL     1      10.611  13.843  24.347  0.00  0.00    +0.223 A 
ATOM     25  H   UNL     1      10.964   9.560  24.888  0.00  0.00    +0.144 HD
ATOM     26  H   UNL     1      11.273  10.576  26.251  0.00  0.00    +0.144 HD
ENDBRANCH  20  21
BRANCH  18  10
ATOM      2  N   UNL     1      14.181   8.857  19.633  0.00  0.00    -0.288 NA
ATOM     10  C   UNL     1      13.057   8.083  20.199  0.00  0.00    +0.146 C 
ATOM     11  C   UNL     1      15.247   7.895  19.357  0.00  0.00    +0.085 C 
ATOM     14  C   UNL     1      13.720   6.873  20.880  0.00  0.00    +0.030 C 
ATOM     15  C   UNL     1      15.207   7.019  20.593  0.00  0.00    +0.017 C 
BRANCH   2   9
ATOM      3  N   UNL     1      14.551  10.778  15.859  0.00  0.00    -0.305 NA
ATOM      9  C   UNL     1      13.811   9.624  18.445  0.00  0.00    +0.060 C 
ATOM     12  C   UNL     1      13.982   8.767  17.187  0.00  0.00    +0.034 C 
ATOM     13  C   UNL     1      14.656  10.896  18.329  0.00  0.00    +0.034 C 
ATOM     16  C   UNL     1      13.695   9.584  15.925  0.00  0.00    +0.085 C 
ATOM     17  C   UNL     1      14.347  11.643  17.029  0.00  0.00    +0.085 C 
ATOM     19  C   UNL     1      14.301  11.519  14.623  0.00  0.00    +0.104 C 
ENDBRANCH   2   9
ENDBRANCH  18  10
TORSDOF 3
ENDMDL
MODEL 7
REMARK VINA RESULT:      -6.3      1.601      2.427
REMARK  Name = 45783739
REMARK  4 active torsions:
REMARK  status: ('A' for Active; 'I' for Inactive)
REMARK    1  A    between atoms: N_2  and  C_9
REMARK    2  A    between atoms: N_3  and  C_19
REMARK    3  A    between atoms: C_10  and  C_18
REMARK    4  A    between atoms: C_20  and  C_21
REMARK                            x       y       z     vdW  Elec       q    Type
REMARK                         _______ _______ _______ _____ _____    ______ ____
ROOT
ATOM      1  O   UNL     1      12.465  11.204  20.598  0.00  0.00    -0.336 OA
ATOM      4  N   UNL     1      11.383  10.640  22.477  0.00  0.00    -0.190 NA
ATOM      5  N   UNL     1      12.310  12.388  21.329  0.00  0.00    -0.056 NA
ATOM     18  C   UNL     1      11.893  10.224  21.345  0.00  0.00    +0.245 A 
ATOM     20  C   UNL     1      11.664  11.974  22.423  0.00  0.00    +0.207 A 
ENDROOT
BRANCH  20  21
ATOM      6  N   UNL     1       9.956  14.682  24.339  0.00  0.00    -0.220 NA
ATOM      7  N   UNL     1       9.654  13.981  22.099  0.00  0.00    -0.342 N 
ATOM      8  N   UNL     1      11.574  13.594  25.755  0.00  0.00    -0.243 NA
ATOM     21  C   UNL     1      11.282  12.867  23.479  0.00  0.00    +0.080 A 
ATOM     22  C   UNL     1      10.315  13.842  23.346  0.00  0.00    +0.130 A 
ATOM     23  C   UNL     1      11.884  12.787  24.718  0.00  0.00    +0.127 A 
ATOM     24  C   UNL     1      10.616  14.504  25.499  0.00  0.00    +0.223 A 
ATOM     25  H   UNL     1      10.169  13.781  21.252  0.00  0.00    +0.144 HD
ATOM     26  H   UNL     1       8.943  14.701  22.049  0.00  0.00    +0.144 HD
ENDBRANCH  20  21
BRANCH  18  10
ATOM      2  N   UNL     1      12.871   7.939  21.480  0.00  0.00    -0.288 NA
ATOM     10  C   UNL     1      11.930   8.825  20.765  0.00  0.00    +0.146 C 
ATOM     11  C   UNL     1      12.340   6.582  21.351  0.00  0.00    +0.085 C 
ATOM     14  C   UNL     1      10.572   8.106  20.856  0.00  0.00    +0.030 C 
ATOM     15  C   UNL     1      10.859   6.801  21.583  0.00  0.00    +0.017 C 
BRANCH   2   9
ATOM      3  N   UNL     1      17.053   7.243  21.177  0.00  0.00    -0.305 NA
ATOM      9  C   UNL     1      14.244   8.042  20.990  0.00  0.00    +0.060 C 
ATOM     12  C   UNL     1      14.738   6.674  20.509  0.00  0.00    +0.034 C 
ATOM     13  C   UNL     1      15.176   8.580  22.078  0.00  0.00    +0.034 C 
ATOM     16  C   UNL     1      16.207   6.741  20.085  0.00  0.00    +0.085 C 
ATOM     17  C   UNL     1      16.631   8.584  21.603  0.00  0.00    +0.085 C 
ATOM     19  C   UNL     1      18.459   7.252  20.772  0.00  0.00    +0.104 C 
ENDBRANCH   2   9
ENDBRANCH  18  10
TORSDOF 3
ENDMDL
MODEL 8
REMARK VINA RESULT:      -6.3     26.723     28.574
REMARK  Name = 45783739
REMARK  4 active torsions:
REMARK  status: ('A' for Active; 'I' for Inactive)
REMARK    1  A    between atoms: N_2  and  C_9
REMARK    2  A    between atoms: N_3  and  C_19
REMARK    3  A    between atoms: C_10  and  C_18
REMARK    4  A    between atoms: C_20  and  C_21
REMARK                            x       y       z     vdW  Elec       q    Type
REMARK                         _______ _______ _______ _____ _____    ______ ____
ROOT
ATOM      1  O   UNL     1      -2.311 -10.503  14.786  0.00  0.00    -0.336 OA
ATOM      4  N   UNL     1      -4.511 -10.924  14.818  0.00  0.00    -0.190 NA
ATOM      5  N   UNL     1      -2.696 -10.458  16.131  0.00  0.00    -0.056 NA
ATOM     18  C   UNL     1      -3.438 -10.783  14.081  0.00  0.00    +0.245 A 
ATOM     20  C   UNL     1      -4.006 -10.717  16.068  0.00  0.00    +0.207 A 
ENDROOT
BRANCH  20  21
ATOM      6  N   UNL     1      -6.833 -10.173  18.442  0.00  0.00    -0.220 NA
ATOM      7  N   UNL     1      -6.510  -9.349  16.247  0.00  0.00    -0.342 N 
ATOM      8  N   UNL     1      -5.185 -11.600  19.468  0.00  0.00    -0.243 NA
ATOM     21  C   UNL     1      -4.838 -10.772  17.235  0.00  0.00    +0.080 A 
ATOM     22  C   UNL     1      -6.050 -10.121  17.343  0.00  0.00    +0.130 A 
ATOM     23  C   UNL     1      -4.452 -11.505  18.339  0.00  0.00    +0.127 A 
ATOM     24  C   UNL     1      -6.347 -10.920  19.451  0.00  0.00    +0.223 A 
ATOM     25  H   UNL     1      -5.830  -8.877  15.666  0.00  0.00    +0.144 HD
ATOM     26  H   UNL     1      -7.410  -8.899  16.364  0.00  0.00    +0.144 HD
ENDBRANCH  20  21
BRANCH  18  10
ATOM      2  N   UNL     1      -4.030  -9.833  11.857  0.00  0.00    -0.288 NA
ATOM     10  C   UNL     1      -3.286 -10.887  12.577  0.00  0.00    +0.146 C 
ATOM     11  C   UNL     1      -3.298  -9.586  10.615  0.00  0.00    +0.085 C 
ATOM     14  C   UNL     1      -1.827 -10.721  12.114  0.00  0.00    +0.030 C 
ATOM     15  C   UNL     1      -1.860  -9.595  11.092  0.00  0.00    +0.017 C 
BRANCH   2   9
ATOM      3  N   UNL     1      -8.024  -9.508  10.442  0.00  0.00    -0.305 NA
ATOM      9  C   UNL     1      -5.427 -10.181  11.612  0.00  0.00    +0.060 C 
ATOM     12  C   UNL     1      -5.694 -10.273  10.107  0.00  0.00    +0.034 C 
ATOM     13  C   UNL     1      -6.368  -9.153  12.246  0.00  0.00    +0.034 C 
ATOM     16  C   UNL     1      -7.175 -10.538   9.828  0.00  0.00    +0.085 C 
ATOM     17  C   UNL     1      -7.827  -9.455  11.897  0.00  0.00    +0.085 C 
ATOM     19  C   UNL     1      -9.432  -9.747  10.123  0.00  0.00    +0.104 C 
ENDBRANCH   2   9
ENDBRANCH  18  10
TORSDOF 3
ENDMDL
MODEL 9
REMARK VINA RESULT:      -6.3      2.785      7.068
REMARK  Name = 45783739
REMARK  4 active torsions:
REMARK  status: ('A' for Active; 'I' for Inactive)
REMARK    1  A    between atoms: N_2  and  C_9
REMARK    2  A    between atoms: N_3  and  C_19
REMARK    3  A    between atoms: C_10  and  C_18
REMARK    4  A    between atoms: C_20  and  C_21
REMARK                            x       y       z     vdW  Elec       q    Type
REMARK                         _______ _______ _______ _____ _____    ______ ____
ROOT
ATOM      1  O   UNL     1      14.595   8.436  20.209  0.00  0.00    -0.336 OA
ATOM      4  N   UNL     1      12.907   9.594  19.298  0.00  0.00    -0.190 NA
ATOM      5  N   UNL     1      15.060   8.893  18.971  0.00  0.00    -0.056 NA
ATOM     18  C   UNL     1      13.320   8.892  20.323  0.00  0.00    +0.245 A 
ATOM     20  C   UNL     1      14.009   9.568  18.494  0.00  0.00    +0.207 A 
ENDROOT
BRANCH  20  21
ATOM      6  N   UNL     1      13.179  10.534  14.987  0.00  0.00    -0.220 NA
ATOM      7  N   UNL     1      12.197   8.898  16.387  0.00  0.00    -0.342 N 
ATOM      8  N   UNL     1      15.012  11.883  15.780  0.00  0.00    -0.243 NA
ATOM     21  C   UNL     1      14.027  10.223  17.218  0.00  0.00    +0.080 A 
ATOM     22  C   UNL     1      13.162   9.917  16.188  0.00  0.00    +0.130 A 
ATOM     23  C   UNL     1      14.939  11.225  16.956  0.00  0.00    +0.127 A 
ATOM     24  C   UNL     1      14.115  11.493  14.855  0.00  0.00    +0.223 A 
ATOM     25  H   UNL     1      12.433   8.116  16.984  0.00  0.00    +0.144 HD
ATOM     26  H   UNL     1      11.575   8.715  15.609  0.00  0.00    +0.144 HD
ENDBRANCH  20  21
BRANCH  18  10
ATOM      2  N   UNL     1      11.401   9.380  21.832  0.00  0.00    -0.288 NA
ATOM     10  C   UNL     1      12.584   8.527  21.595  0.00  0.00    +0.146 C 
ATOM     11  C   UNL     1      10.445   8.563  22.579  0.00  0.00    +0.085 C 
ATOM     14  C   UNL     1      12.031   7.091  21.572  0.00  0.00    +0.030 C 
ATOM     15  C   UNL     1      10.544   7.231  21.864  0.00  0.00    +0.017 C 
BRANCH   2   9
ATOM      3  N   UNL     1      10.831  13.160  23.688  0.00  0.00    -0.305 NA
ATOM      9  C   UNL     1      11.719  10.626  22.525  0.00  0.00    +0.060 C 
ATOM     12  C   UNL     1      10.972  10.695  23.860  0.00  0.00    +0.034 C 
ATOM     13  C   UNL     1      11.360  11.840  21.663  0.00  0.00    +0.034 C 
ATOM     16  C   UNL     1      11.215  12.037  24.554  0.00  0.00    +0.085 C 
ATOM     17  C   UNL     1      11.590  13.145  22.430  0.00  0.00    +0.085 C 
ATOM     19  C   UNL     1      11.020  14.433  24.385  0.00  0.00    +0.104 C 
ENDBRANCH   2   9
ENDBRANCH  18  10
TORSDOF 3
ENDMDL
MODEL 10
REMARK VINA RESULT:      -6.2      1.695      3.848
REMARK  Name = 45783739
REMARK  4 active torsions:
REMARK  status: ('A' for Active; 'I' for Inactive)
REMARK    1  A    between atoms: N_2  and  C_9
REMARK    2  A    between atoms: N_3  and  C_19
REMARK    3  A    between atoms: C_10  and  C_18
REMARK    4  A    between atoms: C_20  and  C_21
REMARK                            x       y       z     vdW  Elec       q    Type
REMARK                         _______ _______ _______ _____ _____    ______ ____
ROOT
ATOM      1  O   UNL     1      14.586  10.425  21.251  0.00  0.00    -0.336 OA
ATOM      4  N   UNL     1      12.528   9.790  21.868  0.00  0.00    -0.190 NA
ATOM      5  N   UNL     1      13.949  11.578  21.725  0.00  0.00    -0.056 NA
ATOM     18  C   UNL     1      13.681   9.419  21.371  0.00  0.00    +0.245 A 
ATOM     20  C   UNL     1      12.740  11.123  22.070  0.00  0.00    +0.207 A 
ENDROOT
BRANCH  20  21
ATOM      6  N   UNL     1      10.205  12.594  24.379  0.00  0.00    -0.220 NA
ATOM      7  N   UNL     1      11.609  10.710  24.664  0.00  0.00    -0.342 N 
ATOM      8  N   UNL     1      10.286  13.885  22.346  0.00  0.00    -0.243 NA
ATOM     21  C   UNL     1      11.722  11.973  22.617  0.00  0.00    +0.080 A 
ATOM     22  C   UNL     1      11.163  11.793  23.865  0.00  0.00    +0.130 A 
ATOM     23  C   UNL     1      11.242  13.046  21.895  0.00  0.00    +0.127 A 
ATOM     24  C   UNL     1       9.820  13.605  23.578  0.00  0.00    +0.223 A 
ATOM     25  H   UNL     1      11.897   9.856  24.205  0.00  0.00    +0.144 HD
ATOM     26  H   UNL     1      11.181  10.623  25.577  0.00  0.00    +0.144 HD
ENDBRANCH  20  21
BRANCH  18  10
ATOM      2  N   UNL     1      14.958   8.095  19.694  0.00  0.00    -0.288 NA
ATOM     10  C   UNL     1      14.134   8.046  20.919  0.00  0.00    +0.146 C 
ATOM     11  C   UNL     1      15.866   6.950  19.760  0.00  0.00    +0.085 C 
ATOM     14  C   UNL     1      15.022   7.340  21.958  0.00  0.00    +0.030 C 
ATOM     15  C   UNL     1      16.298   6.977  21.212  0.00  0.00    +0.017 C 
BRANCH   2   9
ATOM      3  N   UNL     1      11.906   9.144  16.928  0.00  0.00    -0.305 NA
ATOM      9  C   UNL     1      14.165   8.098  18.466  0.00  0.00    +0.060 C 
ATOM     12  C   UNL     1      14.188   9.488  17.824  0.00  0.00    +0.034 C 
ATOM     13  C   UNL     1      12.720   7.676  18.746  0.00  0.00    +0.034 C 
ATOM     16  C   UNL     1      13.282   9.537  16.592  0.00  0.00    +0.085 C 
ATOM     17  C   UNL     1      11.862   7.785  17.483  0.00  0.00    +0.085 C 
ATOM     19  C   UNL     1      11.043   9.246  15.751  0.00  0.00    +0.104 C 
ENDBRANCH   2   9
ENDBRANCH  18  10
TORSDOF 3
ENDMDL
