MODEL 1
REMARK VINA RESULT:      -7.7      0.000      0.000
REMARK  Name = 75536249
REMARK  9 active torsions:
REMARK  status: ('A' for Active; 'I' for Inactive)
REMARK    1  A    between atoms: O_3  and  C_11
REMARK    2  A    between atoms: N_6  and  C_15
REMARK    3  A    between atoms: N_8  and  C_20
REMARK    4  A    between atoms: C_9  and  C_15
REMARK    5  A    between atoms: C_10  and  C_14
REMARK    6  A    between atoms: C_14  and  C_16
REMARK    7  A    between atoms: C_19  and  C_21
REMARK    8  A    between atoms: C_20  and  C_22
REMARK    9  A    between atoms: C_20  and  C_23
REMARK                            x       y       z     vdW  Elec       q    Type
REMARK                         _______ _______ _______ _____ _____    ______ ____
ROOT
ATOM      2  O   UNL     1      10.666   8.543  19.775  0.00  0.00    -0.369 OA
ATOM      9  C   UNL     1      10.868   8.473  21.192  0.00  0.00    +0.164 C 
ATOM     10  C   UNL     1      11.832   8.304  18.983  0.00  0.00    +0.125 C 
ATOM     11  C   UNL     1      11.479   7.127  21.603  0.00  0.00    +0.145 C 
ATOM     12  C   UNL     1      12.409   6.920  19.275  0.00  0.00    +0.034 C 
ATOM     13  C   UNL     1      12.702   6.764  20.765  0.00  0.00    +0.036 C 
ENDROOT
BRANCH  11   3
ATOM      3  O   UNL     1      10.501   6.100  21.415  0.00  0.00    -0.389 OA
ATOM     29  H   UNL     1      10.454   5.586  22.239  0.00  0.00    +0.210 HD
ENDBRANCH  11   3
BRANCH  10  14
ATOM     14  C   UNL     1      11.425   8.423  17.519  0.00  0.00    +0.090 C 
BRANCH  14  16
ATOM      4  O   UNL     1      13.471   9.926  14.960  0.00  0.00    -0.354 OA
ATOM      7  N   UNL     1      12.392   9.157  15.378  0.00  0.00    -0.083 NA
ATOM     16  C   UNL     1      12.454   9.167  16.712  0.00  0.00    +0.087 A 
ATOM     17  C   UNL     1      13.541   9.921  17.189  0.00  0.00    +0.076 A 
ATOM     19  C   UNL     1      14.147  10.376  16.048  0.00  0.00    +0.167 A 
BRANCH  19  21
ATOM      1  F   UNL     1      18.592  13.547  14.982  0.00  0.00    -0.205 F 
ATOM     21  C   UNL     1      15.294  11.192  15.774  0.00  0.00    +0.020 A 
ATOM     24  C   UNL     1      15.746  12.104  16.729  0.00  0.00    +0.014 A 
ATOM     25  C   UNL     1      15.957  11.077  14.551  0.00  0.00    +0.014 A 
ATOM     26  C   UNL     1      16.861  12.899  16.461  0.00  0.00    +0.039 A 
ATOM     27  C   UNL     1      17.070  11.872  14.284  0.00  0.00    +0.039 A 
ATOM     28  C   UNL     1      17.522  12.783  15.239  0.00  0.00    +0.123 A 
ENDBRANCH  19  21
ENDBRANCH  14  16
ENDBRANCH  10  14
BRANCH   9  15
ATOM     15  C   UNL     1      11.671   9.671  21.695  0.00  0.00    +0.140 C 
BRANCH  15   6
ATOM      5  O   UNL     1      12.350  12.330  22.585  0.00  0.00    -0.253 OA
ATOM      6  N   UNL     1      10.840  10.571  22.434  0.00  0.00    -0.297 N 
ATOM      8  N   UNL     1      10.241  12.513  23.536  0.00  0.00    -0.297 N 
ATOM     18  C   UNL     1      11.244  11.850  22.832  0.00  0.00    +0.300 C 
ATOM     30  H   UNL     1       9.922  10.247  22.724  0.00  0.00    +0.150 HD
ATOM     31  H   UNL     1       9.388  12.005  23.752  0.00  0.00    +0.150 HD
BRANCH   8  20
ATOM     20  C   UNL     1      10.404  13.848  24.059  0.00  0.00    +0.068 C 
ATOM     22  C   UNL     1      10.404  13.826  25.582  0.00  0.00    +0.027 C 
ATOM     23  C   UNL     1       9.315  14.769  23.520  0.00  0.00    +0.027 C 
ENDBRANCH   8  20
ENDBRANCH  15   6
ENDBRANCH   9  15
TORSDOF 7
ENDMDL
MODEL 2
REMARK VINA RESULT:      -7.5      4.963      5.873
REMARK  Name = 75536249
REMARK  9 active torsions:
REMARK  status: ('A' for Active; 'I' for Inactive)
REMARK    1  A    between atoms: O_3  and  C_11
REMARK    2  A    between atoms: N_6  and  C_15
REMARK    3  A    between atoms: N_8  and  C_20
REMARK    4  A    between atoms: C_9  and  C_15
REMARK    5  A    between atoms: C_10  and  C_14
REMARK    6  A    between atoms: C_14  and  C_16
REMARK    7  A    between atoms: C_19  and  C_21
REMARK    8  A    between atoms: C_20  and  C_22
REMARK    9  A    between atoms: C_20  and  C_23
REMARK                            x       y       z     vdW  Elec       q    Type
REMARK                         _______ _______ _______ _____ _____    ______ ____
ROOT
ATOM      2  O   UNL     1      13.182   8.971  19.602  0.00  0.00    -0.369 OA
ATOM      9  C   UNL     1      12.292   9.417  20.633  0.00  0.00    +0.164 C 
ATOM     10  C   UNL     1      13.809   7.709  19.844  0.00  0.00    +0.125 C 
ATOM     11  C   UNL     1      11.208   8.372  20.926  0.00  0.00    +0.145 C 
ATOM     12  C   UNL     1      12.761   6.612  20.024  0.00  0.00    +0.034 C 
ATOM     13  C   UNL     1      11.788   6.977  21.142  0.00  0.00    +0.036 C 
ENDROOT
BRANCH  11   3
ATOM      3  O   UNL     1      10.318   8.307  19.808  0.00  0.00    -0.389 OA
ATOM     29  H   UNL     1       9.410   8.288  20.156  0.00  0.00    +0.210 HD
ENDBRANCH  11   3
BRANCH  10  14
ATOM     14  C   UNL     1      14.709   7.409  18.652  0.00  0.00    +0.090 C 
BRANCH  14  16
ATOM      4  O   UNL     1      17.729   5.479  19.043  0.00  0.00    -0.354 OA
ATOM      7  N   UNL     1      16.543   5.788  18.388  0.00  0.00    -0.083 NA
ATOM     16  C   UNL     1      16.018   6.803  19.081  0.00  0.00    +0.087 A 
ATOM     17  C   UNL     1      16.821   7.174  20.174  0.00  0.00    +0.076 A 
ATOM     19  C   UNL     1      17.883   6.310  20.105  0.00  0.00    +0.167 A 
BRANCH  19  21
ATOM      1  F   UNL     1      22.489   5.535  23.126  0.00  0.00    -0.205 F 
ATOM     21  C   UNL     1      19.071   6.111  20.883  0.00  0.00    +0.020 A 
ATOM     24  C   UNL     1      20.031   5.188  20.467  0.00  0.00    +0.014 A 
ATOM     25  C   UNL     1      19.267   6.840  22.057  0.00  0.00    +0.014 A 
ATOM     26  C   UNL     1      21.186   4.993  21.225  0.00  0.00    +0.039 A 
ATOM     27  C   UNL     1      20.421   6.645  22.815  0.00  0.00    +0.039 A 
ATOM     28  C   UNL     1      21.381   5.722  22.399  0.00  0.00    +0.123 A 
ENDBRANCH  19  21
ENDBRANCH  14  16
ENDBRANCH  10  14
BRANCH   9  15
ATOM     15  C   UNL     1      13.064   9.840  21.882  0.00  0.00    +0.140 C 
BRANCH  15   6
ATOM      5  O   UNL     1      10.836  10.474  23.602  0.00  0.00    -0.253 OA
ATOM      6  N   UNL     1      12.655  11.140  22.320  0.00  0.00    -0.297 N 
ATOM      8  N   UNL     1      11.384  12.722  23.428  0.00  0.00    -0.297 N 
ATOM     18  C   UNL     1      11.557  11.366  23.158  0.00  0.00    +0.300 C 
ATOM     30  H   UNL     1      13.163  11.946  21.969  0.00  0.00    +0.150 HD
ATOM     31  H   UNL     1      11.988  13.388  22.956  0.00  0.00    +0.150 HD
BRANCH   8  20
ATOM     20  C   UNL     1      10.323  13.223  24.267  0.00  0.00    +0.068 C 
ATOM     22  C   UNL     1       9.654  14.426  23.615  0.00  0.00    +0.027 C 
ATOM     23  C   UNL     1      10.856  13.571  25.653  0.00  0.00    +0.027 C 
ENDBRANCH   8  20
ENDBRANCH  15   6
ENDBRANCH   9  15
TORSDOF 7
ENDMDL
MODEL 3
REMARK VINA RESULT:      -7.2      5.301      7.654
REMARK  Name = 75536249
REMARK  9 active torsions:
REMARK  status: ('A' for Active; 'I' for Inactive)
REMARK    1  A    between atoms: O_3  and  C_11
REMARK    2  A    between atoms: N_6  and  C_15
REMARK    3  A    between atoms: N_8  and  C_20
REMARK    4  A    between atoms: C_9  and  C_15
REMARK    5  A    between atoms: C_10  and  C_14
REMARK    6  A    between atoms: C_14  and  C_16
REMARK    7  A    between atoms: C_19  and  C_21
REMARK    8  A    between atoms: C_20  and  C_22
REMARK    9  A    between atoms: C_20  and  C_23
REMARK                            x       y       z     vdW  Elec       q    Type
REMARK                         _______ _______ _______ _____ _____    ______ ____
ROOT
ATOM      2  O   UNL     1      13.155   7.011  18.909  0.00  0.00    -0.369 OA
ATOM      9  C   UNL     1      12.475   7.830  17.949  0.00  0.00    +0.164 C 
ATOM     10  C   UNL     1      14.059   7.710  19.770  0.00  0.00    +0.125 C 
ATOM     11  C   UNL     1      11.723   8.981  18.628  0.00  0.00    +0.145 C 
ATOM     12  C   UNL     1      13.324   8.793  20.558  0.00  0.00    +0.034 C 
ATOM     13  C   UNL     1      12.601   9.748  19.612  0.00  0.00    +0.036 C 
ENDROOT
BRANCH  11   3
ATOM      3  O   UNL     1      10.618   8.442  19.358  0.00  0.00    -0.389 OA
ATOM     29  H   UNL     1      10.542   8.942  20.189  0.00  0.00    +0.210 HD
ENDBRANCH  11   3
BRANCH  10  14
ATOM     14  C   UNL     1      14.681   6.684  20.710  0.00  0.00    +0.090 C 
BRANCH  14  16
ATOM      4  O   UNL     1      17.797   5.771  19.143  0.00  0.00    -0.354 OA
ATOM      7  N   UNL     1      16.415   5.922  19.138  0.00  0.00    -0.083 NA
ATOM     16  C   UNL     1      16.113   6.395  20.350  0.00  0.00    +0.087 A 
ATOM     17  C   UNL     1      17.253   6.562  21.156  0.00  0.00    +0.076 A 
ATOM     19  C   UNL     1      18.284   6.156  20.351  0.00  0.00    +0.167 A 
BRANCH  19  21
ATOM      1  F   UNL     1      23.800   5.773  20.963  0.00  0.00    -0.205 F 
ATOM     21  C   UNL     1      19.706   6.057  20.507  0.00  0.00    +0.020 A 
ATOM     24  C   UNL     1      20.338   4.819  20.380  0.00  0.00    +0.014 A 
ATOM     25  C   UNL     1      20.458   7.199  20.788  0.00  0.00    +0.014 A 
ATOM     26  C   UNL     1      21.721   4.724  20.534  0.00  0.00    +0.039 A 
ATOM     27  C   UNL     1      21.840   7.103  20.942  0.00  0.00    +0.039 A 
ATOM     28  C   UNL     1      22.472   5.865  20.815  0.00  0.00    +0.123 A 
ENDBRANCH  19  21
ENDBRANCH  14  16
ENDBRANCH  10  14
BRANCH   9  15
ATOM     15  C   UNL     1      13.430   8.304  16.855  0.00  0.00    +0.140 C 
BRANCH  15   6
ATOM      5  O   UNL     1      14.791   9.914  14.885  0.00  0.00    -0.253 OA
ATOM      6  N   UNL     1      12.949   9.504  16.240  0.00  0.00    -0.297 N 
ATOM      8  N   UNL     1      12.972  11.356  14.857  0.00  0.00    -0.297 N 
ATOM     18  C   UNL     1      13.673  10.232  15.290  0.00  0.00    +0.300 C 
ATOM     30  H   UNL     1      12.052   9.872  16.543  0.00  0.00    +0.150 HD
ATOM     31  H   UNL     1      12.086  11.573  15.304  0.00  0.00    +0.150 HD
BRANCH   8  20
ATOM     20  C   UNL     1      13.498  12.276  13.877  0.00  0.00    +0.068 C 
ATOM     22  C   UNL     1      13.926  13.575  14.546  0.00  0.00    +0.027 C 
ATOM     23  C   UNL     1      12.471  12.532  12.779  0.00  0.00    +0.027 C 
ENDBRANCH   8  20
ENDBRANCH  15   6
ENDBRANCH   9  15
TORSDOF 7
ENDMDL
MODEL 4
REMARK VINA RESULT:      -7.0     24.815     27.007
REMARK  Name = 75536249
REMARK  9 active torsions:
REMARK  status: ('A' for Active; 'I' for Inactive)
REMARK    1  A    between atoms: O_3  and  C_11
REMARK    2  A    between atoms: N_6  and  C_15
REMARK    3  A    between atoms: N_8  and  C_20
REMARK    4  A    between atoms: C_9  and  C_15
REMARK    5  A    between atoms: C_10  and  C_14
REMARK    6  A    between atoms: C_14  and  C_16
REMARK    7  A    between atoms: C_19  and  C_21
REMARK    8  A    between atoms: C_20  and  C_22
REMARK    9  A    between atoms: C_20  and  C_23
REMARK                            x       y       z     vdW  Elec       q    Type
REMARK                         _______ _______ _______ _____ _____    ______ ____
ROOT
ATOM      2  O   UNL     1     -14.995   4.963  21.479  0.00  0.00    -0.369 OA
ATOM      9  C   UNL     1     -16.369   4.875  21.879  0.00  0.00    +0.164 C 
ATOM     10  C   UNL     1     -14.111   5.511  22.460  0.00  0.00    +0.125 C 
ATOM     11  C   UNL     1     -16.522   4.081  23.183  0.00  0.00    +0.145 C 
ATOM     12  C   UNL     1     -14.143   4.677  23.740  0.00  0.00    +0.034 C 
ATOM     13  C   UNL     1     -15.569   4.565  24.272  0.00  0.00    +0.036 C 
ENDROOT
BRANCH  11   3
ATOM      3  O   UNL     1     -16.225   2.706  22.922  0.00  0.00    -0.389 OA
ATOM     29  H   UNL     1     -16.787   2.169  23.507  0.00  0.00    +0.210 HD
ENDBRANCH  11   3
BRANCH  10  14
ATOM     14  C   UNL     1     -12.712   5.525  21.858  0.00  0.00    +0.090 C 
BRANCH  14  16
ATOM      4  O   UNL     1     -12.586   8.900  20.596  0.00  0.00    -0.354 OA
ATOM      7  N   UNL     1     -13.063   7.931  21.471  0.00  0.00    -0.083 NA
ATOM     16  C   UNL     1     -12.437   6.805  21.115  0.00  0.00    +0.087 A 
ATOM     17  C   UNL     1     -11.561   7.000  20.033  0.00  0.00    +0.076 A 
ATOM     19  C   UNL     1     -11.693   8.334  19.744  0.00  0.00    +0.167 A 
BRANCH  19  21
ATOM      1  F   UNL     1      -9.427  11.759  15.993  0.00  0.00    -0.205 F 
ATOM     21  C   UNL     1     -11.110   9.217  18.777  0.00  0.00    +0.020 A 
ATOM     24  C   UNL     1     -10.708   8.724  17.535  0.00  0.00    +0.014 A 
ATOM     25  C   UNL     1     -10.943  10.569  19.078  0.00  0.00    +0.014 A 
ATOM     26  C   UNL     1     -10.139   9.583  16.594  0.00  0.00    +0.039 A 
ATOM     27  C   UNL     1     -10.374  11.428  18.138  0.00  0.00    +0.039 A 
ATOM     28  C   UNL     1      -9.972  10.934  16.896  0.00  0.00    +0.123 A 
ENDBRANCH  19  21
ENDBRANCH  14  16
ENDBRANCH  10  14
BRANCH   9  15
ATOM     15  C   UNL     1     -17.013   6.258  21.944  0.00  0.00    +0.140 C 
BRANCH  15   6
ATOM      5  O   UNL     1     -17.168   7.157  19.207  0.00  0.00    -0.253 OA
ATOM      6  N   UNL     1     -16.186   7.240  21.311  0.00  0.00    -0.297 N 
ATOM      8  N   UNL     1     -15.392   8.594  19.615  0.00  0.00    -0.297 N 
ATOM     18  C   UNL     1     -16.324   7.622  19.972  0.00  0.00    +0.300 C 
ATOM     30  H   UNL     1     -15.430   7.650  21.851  0.00  0.00    +0.150 HD
ATOM     31  H   UNL     1     -14.689   8.862  20.297  0.00  0.00    +0.150 HD
BRANCH   8  20
ATOM     20  C   UNL     1     -15.321   9.159  18.289  0.00  0.00    +0.068 C 
ATOM     22  C   UNL     1     -14.473   8.277  17.382  0.00  0.00    +0.027 C 
ATOM     23  C   UNL     1     -14.774  10.582  18.343  0.00  0.00    +0.027 C 
ENDBRANCH   8  20
ENDBRANCH  15   6
ENDBRANCH   9  15
TORSDOF 7
ENDMDL
MODEL 5
REMARK VINA RESULT:      -7.0     27.292     28.952
REMARK  Name = 75536249
REMARK  9 active torsions:
REMARK  status: ('A' for Active; 'I' for Inactive)
REMARK    1  A    between atoms: O_3  and  C_11
REMARK    2  A    between atoms: N_6  and  C_15
REMARK    3  A    between atoms: N_8  and  C_20
REMARK    4  A    between atoms: C_9  and  C_15
REMARK    5  A    between atoms: C_10  and  C_14
REMARK    6  A    between atoms: C_14  and  C_16
REMARK    7  A    between atoms: C_19  and  C_21
REMARK    8  A    between atoms: C_20  and  C_22
REMARK    9  A    between atoms: C_20  and  C_23
REMARK                            x       y       z     vdW  Elec       q    Type
REMARK                         _______ _______ _______ _____ _____    ______ ____
ROOT
ATOM      2  O   UNL     1      -4.848  -9.119  11.721  0.00  0.00    -0.369 OA
ATOM      9  C   UNL     1      -6.154  -8.889  11.178  0.00  0.00    +0.164 C 
ATOM     10  C   UNL     1      -4.263 -10.379  11.380  0.00  0.00    +0.125 C 
ATOM     11  C   UNL     1      -6.161  -9.041   9.652  0.00  0.00    +0.145 C 
ATOM     12  C   UNL     1      -4.141 -10.524   9.864  0.00  0.00    +0.034 C 
ATOM     13  C   UNL     1      -5.500 -10.339   9.195  0.00  0.00    +0.036 C 
ENDROOT
BRANCH  11   3
ATOM      3  O   UNL     1      -5.431  -7.954   9.077  0.00  0.00    -0.389 OA
ATOM     29  H   UNL     1      -5.229  -8.191   8.156  0.00  0.00    +0.210 HD
ENDBRANCH  11   3
BRANCH  10  14
ATOM     14  C   UNL     1      -2.893 -10.442  12.042  0.00  0.00    +0.090 C 
BRANCH  14  16
ATOM      4  O   UNL     1      -2.362 -10.504  15.608  0.00  0.00    -0.354 OA
ATOM      7  N   UNL     1      -1.914 -10.362  14.300  0.00  0.00    -0.083 NA
ATOM     16  C   UNL     1      -3.001 -10.529  13.541  0.00  0.00    +0.087 A 
ATOM     17  C   UNL     1      -4.154 -10.776  14.307  0.00  0.00    +0.076 A 
ATOM     19  C   UNL     1      -3.697 -10.750  15.599  0.00  0.00    +0.167 A 
BRANCH  19  21
ATOM      1  F   UNL     1      -6.064 -11.407  20.590  0.00  0.00    -0.205 F 
ATOM     21  C   UNL     1      -4.307 -10.918  16.886  0.00  0.00    +0.020 A 
ATOM     24  C   UNL     1      -3.664 -11.672  17.869  0.00  0.00    +0.014 A 
ATOM     25  C   UNL     1      -5.543 -10.330  17.155  0.00  0.00    +0.014 A 
ATOM     26  C   UNL     1      -4.258 -11.837  19.121  0.00  0.00    +0.039 A 
ATOM     27  C   UNL     1      -6.137 -10.495  18.406  0.00  0.00    +0.039 A 
ATOM     28  C   UNL     1      -5.494 -11.249  19.389  0.00  0.00    +0.123 A 
ENDBRANCH  19  21
ENDBRANCH  14  16
ENDBRANCH  10  14
BRANCH   9  15
ATOM     15  C   UNL     1      -7.200  -9.761  11.869  0.00  0.00    +0.140 C 
BRANCH  15   6
ATOM      5  O   UNL     1      -9.568 -10.129  13.476  0.00  0.00    -0.253 OA
ATOM      6  N   UNL     1      -7.393  -9.353  13.228  0.00  0.00    -0.297 N 
ATOM      8  N   UNL     1      -8.494  -9.071  15.240  0.00  0.00    -0.297 N 
ATOM     18  C   UNL     1      -8.577  -9.568  13.941  0.00  0.00    +0.300 C 
ATOM     30  H   UNL     1      -6.645  -8.840  13.684  0.00  0.00    +0.150 HD
ATOM     31  H   UNL     1      -7.659  -8.559  15.508  0.00  0.00    +0.150 HD
BRANCH   8  20
ATOM     20  C   UNL     1      -9.582  -9.165  16.185  0.00  0.00    +0.068 C 
ATOM     22  C   UNL     1      -9.549  -7.987  17.149  0.00  0.00    +0.027 C 
ATOM     23  C   UNL     1      -9.528 -10.493  16.932  0.00  0.00    +0.027 C 
ENDBRANCH   8  20
ENDBRANCH  15   6
ENDBRANCH   9  15
TORSDOF 7
ENDMDL
MODEL 6
REMARK VINA RESULT:      -7.0     27.842     31.045
REMARK  Name = 75536249
REMARK  9 active torsions:
REMARK  status: ('A' for Active; 'I' for Inactive)
REMARK    1  A    between atoms: O_3  and  C_11
REMARK    2  A    between atoms: N_6  and  C_15
REMARK    3  A    between atoms: N_8  and  C_20
REMARK    4  A    between atoms: C_9  and  C_15
REMARK    5  A    between atoms: C_10  and  C_14
REMARK    6  A    between atoms: C_14  and  C_16
REMARK    7  A    between atoms: C_19  and  C_21
REMARK    8  A    between atoms: C_20  and  C_22
REMARK    9  A    between atoms: C_20  and  C_23
REMARK                            x       y       z     vdW  Elec       q    Type
REMARK                         _______ _______ _______ _____ _____    ______ ____
ROOT
ATOM      2  O   UNL     1     -16.121   1.994  24.990  0.00  0.00    -0.369 OA
ATOM      9  C   UNL     1     -16.114   2.987  23.956  0.00  0.00    +0.164 C 
ATOM     10  C   UNL     1     -17.288   1.986  25.816  0.00  0.00    +0.125 C 
ATOM     11  C   UNL     1     -17.355   2.870  23.061  0.00  0.00    +0.145 C 
ATOM     12  C   UNL     1     -18.542   1.752  24.975  0.00  0.00    +0.034 C 
ATOM     13  C   UNL     1     -18.648   2.796  23.867  0.00  0.00    +0.036 C 
ENDROOT
BRANCH  11   3
ATOM      3  O   UNL     1     -17.253   1.670  22.288  0.00  0.00    -0.389 OA
ATOM     29  H   UNL     1     -16.578   1.818  21.604  0.00  0.00    +0.210 HD
ENDBRANCH  11   3
BRANCH  10  14
ATOM     14  C   UNL     1     -17.112   0.877  26.846  0.00  0.00    +0.090 C 
BRANCH  14  16
ATOM      4  O   UNL     1     -15.249   1.270  29.907  0.00  0.00    -0.354 OA
ATOM      7  N   UNL     1     -15.801   0.495  28.894  0.00  0.00    -0.083 NA
ATOM     16  C   UNL     1     -16.397   1.367  28.076  0.00  0.00    +0.087 A 
ATOM     17  C   UNL     1     -16.254   2.695  28.517  0.00  0.00    +0.076 A 
ATOM     19  C   UNL     1     -15.525   2.578  29.672  0.00  0.00    +0.167 A 
BRANCH  19  21
ATOM      1  F   UNL     1     -13.546   6.175  33.425  0.00  0.00    -0.205 F 
ATOM     21  C   UNL     1     -15.014   3.506  30.638  0.00  0.00    +0.020 A 
ATOM     24  C   UNL     1     -13.905   3.165  31.414  0.00  0.00    +0.014 A 
ATOM     25  C   UNL     1     -15.626   4.749  30.804  0.00  0.00    +0.014 A 
ATOM     26  C   UNL     1     -13.409   4.067  32.355  0.00  0.00    +0.039 A 
ATOM     27  C   UNL     1     -15.131   5.650  31.745  0.00  0.00    +0.039 A 
ATOM     28  C   UNL     1     -14.022   5.309  32.521  0.00  0.00    +0.123 A 
ENDBRANCH  19  21
ENDBRANCH  14  16
ENDBRANCH  10  14
BRANCH   9  15
ATOM     15  C   UNL     1     -15.929   4.387  24.537  0.00  0.00    +0.140 C 
BRANCH  15   6
ATOM      5  O   UNL     1     -15.853   5.992  22.140  0.00  0.00    -0.253 OA
ATOM      6  N   UNL     1     -14.785   5.031  23.966  0.00  0.00    -0.297 N 
ATOM      8  N   UNL     1     -13.577   6.308  22.464  0.00  0.00    -0.297 N 
ATOM     18  C   UNL     1     -14.831   5.796  22.795  0.00  0.00    +0.300 C 
ATOM     30  H   UNL     1     -13.884   4.891  24.412  0.00  0.00    +0.150 HD
ATOM     31  H   UNL     1     -12.779   6.029  23.028  0.00  0.00    +0.150 HD
BRANCH   8  20
ATOM     20  C   UNL     1     -13.351   7.130  21.300  0.00  0.00    +0.068 C 
ATOM     22  C   UNL     1     -11.964   6.869  20.728  0.00  0.00    +0.027 C 
ATOM     23  C   UNL     1     -13.538   8.604  21.642  0.00  0.00    +0.027 C 
ENDBRANCH   8  20
ENDBRANCH  15   6
ENDBRANCH   9  15
TORSDOF 7
ENDMDL
MODEL 7
REMARK VINA RESULT:      -6.9     26.991     29.112
REMARK  Name = 75536249
REMARK  9 active torsions:
REMARK  status: ('A' for Active; 'I' for Inactive)
REMARK    1  A    between atoms: O_3  and  C_11
REMARK    2  A    between atoms: N_6  and  C_15
REMARK    3  A    between atoms: N_8  and  C_20
REMARK    4  A    between atoms: C_9  and  C_15
REMARK    5  A    between atoms: C_10  and  C_14
REMARK    6  A    between atoms: C_14  and  C_16
REMARK    7  A    between atoms: C_19  and  C_21
REMARK    8  A    between atoms: C_20  and  C_22
REMARK    9  A    between atoms: C_20  and  C_23
REMARK                            x       y       z     vdW  Elec       q    Type
REMARK                         _______ _______ _______ _____ _____    ______ ____
ROOT
ATOM      2  O   UNL     1      -3.148  -9.616  10.191  0.00  0.00    -0.369 OA
ATOM      9  C   UNL     1      -4.251  -9.357   9.314  0.00  0.00    +0.164 C 
ATOM     10  C   UNL     1      -3.466 -10.375  11.360  0.00  0.00    +0.125 C 
ATOM     11  C   UNL     1      -4.944 -10.657   8.888  0.00  0.00    +0.145 C 
ATOM     12  C   UNL     1      -4.053 -11.733  10.979  0.00  0.00    +0.034 C 
ATOM     13  C   UNL     1      -5.271 -11.558  10.076  0.00  0.00    +0.036 C 
ENDROOT
BRANCH  11   3
ATOM      3  O   UNL     1      -4.070 -11.382   8.018  0.00  0.00    -0.389 OA
ATOM     29  H   UNL     1      -3.168 -11.295   8.370  0.00  0.00    +0.210 HD
ENDBRANCH  11   3
BRANCH  10  14
ATOM     14  C   UNL     1      -2.181 -10.545  12.160  0.00  0.00    +0.090 C 
BRANCH  14  16
ATOM      4  O   UNL     1      -2.034 -10.390  15.759  0.00  0.00    -0.354 OA
ATOM      7  N   UNL     1      -1.457 -10.288  14.499  0.00  0.00    -0.083 NA
ATOM     16  C   UNL     1      -2.445 -10.562  13.642  0.00  0.00    +0.087 A 
ATOM     17  C   UNL     1      -3.657 -10.840  14.297  0.00  0.00    +0.076 A 
ATOM     19  C   UNL     1      -3.345 -10.719  15.626  0.00  0.00    +0.167 A 
BRANCH  19  21
ATOM      1  F   UNL     1      -6.193 -11.265  20.372  0.00  0.00    -0.205 F 
ATOM     21  C   UNL     1      -4.079 -10.859  16.849  0.00  0.00    +0.020 A 
ATOM     24  C   UNL     1      -3.575 -11.658  17.877  0.00  0.00    +0.014 A 
ATOM     25  C   UNL     1      -5.296 -10.197  17.013  0.00  0.00    +0.014 A 
ATOM     26  C   UNL     1      -4.290 -11.795  19.067  0.00  0.00    +0.039 A 
ATOM     27  C   UNL     1      -6.010 -10.334  18.202  0.00  0.00    +0.039 A 
ATOM     28  C   UNL     1      -5.507 -11.134  19.230  0.00  0.00    +0.123 A 
ENDBRANCH  19  21
ENDBRANCH  14  16
ENDBRANCH  10  14
BRANCH   9  15
ATOM     15  C   UNL     1      -5.214  -8.341   9.926  0.00  0.00    +0.140 C 
BRANCH  15   6
ATOM      5  O   UNL     1      -8.084  -8.386   9.625  0.00  0.00    -0.253 OA
ATOM      6  N   UNL     1      -5.985  -7.690   8.911  0.00  0.00    -0.297 N 
ATOM      8  N   UNL     1      -7.874  -7.036   7.750  0.00  0.00    -0.297 N 
ATOM     18  C   UNL     1      -7.381  -7.761   8.832  0.00  0.00    +0.300 C 
ATOM     30  H   UNL     1      -5.490  -7.185   8.183  0.00  0.00    +0.150 HD
ATOM     31  H   UNL     1      -7.208  -6.613   7.109  0.00  0.00    +0.150 HD
BRANCH   8  20
ATOM     20  C   UNL     1      -9.282  -6.947   7.444  0.00  0.00    +0.068 C 
ATOM     22  C   UNL     1      -9.496  -6.925   5.936  0.00  0.00    +0.027 C 
ATOM     23  C   UNL     1      -9.896  -5.719   8.108  0.00  0.00    +0.027 C 
ENDBRANCH   8  20
ENDBRANCH  15   6
ENDBRANCH   9  15
TORSDOF 7
ENDMDL
MODEL 8
REMARK VINA RESULT:      -6.9     17.347     20.751
REMARK  Name = 75536249
REMARK  9 active torsions:
REMARK  status: ('A' for Active; 'I' for Inactive)
REMARK    1  A    between atoms: O_3  and  C_11
REMARK    2  A    between atoms: N_6  and  C_15
REMARK    3  A    between atoms: N_8  and  C_20
REMARK    4  A    between atoms: C_9  and  C_15
REMARK    5  A    between atoms: C_10  and  C_14
REMARK    6  A    between atoms: C_14  and  C_16
REMARK    7  A    between atoms: C_19  and  C_21
REMARK    8  A    between atoms: C_20  and  C_22
REMARK    9  A    between atoms: C_20  and  C_23
REMARK                            x       y       z     vdW  Elec       q    Type
REMARK                         _______ _______ _______ _____ _____    ______ ____
ROOT
ATOM      2  O   UNL     1      12.911   2.933   0.635  0.00  0.00    -0.369 OA
ATOM      9  C   UNL     1      13.340   3.704   1.764  0.00  0.00    +0.164 C 
ATOM     10  C   UNL     1      13.024   3.593  -0.629  0.00  0.00    +0.125 C 
ATOM     11  C   UNL     1      14.782   4.197   1.590  0.00  0.00    +0.145 C 
ATOM     12  C   UNL     1      14.472   3.997  -0.898  0.00  0.00    +0.034 C 
ATOM     13  C   UNL     1      15.007   4.866   0.237  0.00  0.00    +0.036 C 
ENDROOT
BRANCH  11   3
ATOM      3  O   UNL     1      15.666   3.075   1.674  0.00  0.00    -0.389 OA
ATOM     29  H   UNL     1      15.412   2.449   0.974  0.00  0.00    +0.210 HD
ENDBRANCH  11   3
BRANCH  10  14
ATOM     14  C   UNL     1      12.524   2.627  -1.696  0.00  0.00    +0.090 C 
BRANCH  14  16
ATOM      4  O   UNL     1       9.309   2.971  -3.291  0.00  0.00    -0.354 OA
ATOM      7  N   UNL     1      10.367   2.211  -2.807  0.00  0.00    -0.083 NA
ATOM     16  C   UNL     1      11.235   3.099  -2.315  0.00  0.00    +0.087 A 
ATOM     17  C   UNL     1      10.784   4.423  -2.458  0.00  0.00    +0.076 A 
ATOM     19  C   UNL     1       9.569   4.287  -3.078  0.00  0.00    +0.167 A 
BRANCH  19  21
ATOM      1  F   UNL     1       5.650   7.831  -4.816  0.00  0.00    -0.205 F 
ATOM     21  C   UNL     1       8.560   5.201  -3.526  0.00  0.00    +0.020 A 
ATOM     24  C   UNL     1       8.115   6.218  -2.681  0.00  0.00    +0.014 A 
ATOM     25  C   UNL     1       8.021   5.073  -4.807  0.00  0.00    +0.014 A 
ATOM     26  C   UNL     1       7.132   7.107  -3.117  0.00  0.00    +0.039 A 
ATOM     27  C   UNL     1       7.038   5.961  -5.243  0.00  0.00    +0.039 A 
ATOM     28  C   UNL     1       6.594   6.978  -4.397  0.00  0.00    +0.123 A 
ENDBRANCH  19  21
ENDBRANCH  14  16
ENDBRANCH  10  14
BRANCH   9  15
ATOM     15  C   UNL     1      12.357   4.833   2.067  0.00  0.00    +0.140 C 
BRANCH  15   6
ATOM      5  O   UNL     1      11.314   6.727   3.977  0.00  0.00    -0.253 OA
ATOM      6  N   UNL     1      11.586   4.542   3.237  0.00  0.00    -0.297 N 
ATOM      8  N   UNL     1      10.394   4.964   5.172  0.00  0.00    -0.297 N 
ATOM     18  C   UNL     1      11.116   5.522   4.119  0.00  0.00    +0.300 C 
ATOM     30  H   UNL     1      11.408   3.568   3.463  0.00  0.00    +0.150 HD
ATOM     31  H   UNL     1      10.346   3.952   5.241  0.00  0.00    +0.150 HD
BRANCH   8  20
ATOM     20  C   UNL     1       9.800   5.758   6.221  0.00  0.00    +0.068 C 
ATOM     22  C   UNL     1       9.800   4.987   7.534  0.00  0.00    +0.027 C 
ATOM     23  C   UNL     1       8.390   6.189   5.832  0.00  0.00    +0.027 C 
ENDBRANCH   8  20
ENDBRANCH  15   6
ENDBRANCH   9  15
TORSDOF 7
ENDMDL
MODEL 9
REMARK VINA RESULT:      -6.8      4.974      8.906
REMARK  Name = 75536249
REMARK  9 active torsions:
REMARK  status: ('A' for Active; 'I' for Inactive)
REMARK    1  A    between atoms: O_3  and  C_11
REMARK    2  A    between atoms: N_6  and  C_15
REMARK    3  A    between atoms: N_8  and  C_20
REMARK    4  A    between atoms: C_9  and  C_15
REMARK    5  A    between atoms: C_10  and  C_14
REMARK    6  A    between atoms: C_14  and  C_16
REMARK    7  A    between atoms: C_19  and  C_21
REMARK    8  A    between atoms: C_20  and  C_22
REMARK    9  A    between atoms: C_20  and  C_23
REMARK                            x       y       z     vdW  Elec       q    Type
REMARK                         _______ _______ _______ _____ _____    ______ ____
ROOT
ATOM      2  O   UNL     1      12.222   7.997  22.155  0.00  0.00    -0.369 OA
ATOM      9  C   UNL     1      13.304   7.333  21.490  0.00  0.00    +0.164 C 
ATOM     10  C   UNL     1      11.685   9.126  21.463  0.00  0.00    +0.125 C 
ATOM     11  C   UNL     1      12.909   6.903  20.071  0.00  0.00    +0.145 C 
ATOM     12  C   UNL     1      11.168   8.718  20.084  0.00  0.00    +0.034 C 
ATOM     13  C   UNL     1      12.271   8.039  19.277  0.00  0.00    +0.036 C 
ENDROOT
BRANCH  11   3
ATOM      3  O   UNL     1      11.953   5.843  20.161  0.00  0.00    -0.389 OA
ATOM     29  H   UNL     1      12.288   5.100  19.631  0.00  0.00    +0.210 HD
ENDBRANCH  11   3
BRANCH  10  14
ATOM     14  C   UNL     1      10.559   9.695  22.317  0.00  0.00    +0.090 C 
BRANCH  14  16
ATOM      4  O   UNL     1      11.425  13.034  23.363  0.00  0.00    -0.354 OA
ATOM      7  N   UNL     1      10.985  12.117  22.416  0.00  0.00    -0.083 NA
ATOM     16  C   UNL     1      10.986  10.939  23.047  0.00  0.00    +0.087 A 
ATOM     17  C   UNL     1      11.411  11.050  24.383  0.00  0.00    +0.076 A 
ATOM     19  C   UNL     1      11.675  12.387  24.530  0.00  0.00    +0.167 A 
BRANCH  19  21
ATOM      1  F   UNL     1      13.471  15.578  28.718  0.00  0.00    -0.205 F 
ATOM     21  C   UNL     1      12.138  13.208  25.610  0.00  0.00    +0.020 A 
ATOM     24  C   UNL     1      11.371  14.293  26.038  0.00  0.00    +0.014 A 
ATOM     25  C   UNL     1      13.354  12.924  26.232  0.00  0.00    +0.014 A 
ATOM     26  C   UNL     1      11.822  15.094  27.089  0.00  0.00    +0.039 A 
ATOM     27  C   UNL     1      13.804  13.725  27.282  0.00  0.00    +0.039 A 
ATOM     28  C   UNL     1      13.038  14.810  27.710  0.00  0.00    +0.123 A 
ENDBRANCH  19  21
ENDBRANCH  14  16
ENDBRANCH  10  14
BRANCH   9  15
ATOM     15  C   UNL     1      14.575   8.180  21.523  0.00  0.00    +0.140 C 
BRANCH  15   6
ATOM      5  O   UNL     1      17.296   8.687  20.708  0.00  0.00    -0.253 OA
ATOM      6  N   UNL     1      15.723   7.372  21.800  0.00  0.00    -0.297 N 
ATOM      8  N   UNL     1      17.944   6.732  21.775  0.00  0.00    -0.297 N 
ATOM     18  C   UNL     1      17.016   7.687  21.367  0.00  0.00    +0.300 C 
ATOM     30  H   UNL     1      15.585   6.500  22.302  0.00  0.00    +0.150 HD
ATOM     31  H   UNL     1      17.604   5.903  22.254  0.00  0.00    +0.150 HD
BRANCH   8  20
ATOM     20  C   UNL     1      19.349   6.821  21.458  0.00  0.00    +0.068 C 
ATOM     22  C   UNL     1      19.750   5.698  20.510  0.00  0.00    +0.027 C 
ATOM     23  C   UNL     1      20.187   6.794  22.731  0.00  0.00    +0.027 C 
ENDBRANCH   8  20
ENDBRANCH  15   6
ENDBRANCH   9  15
TORSDOF 7
ENDMDL
MODEL 10
REMARK VINA RESULT:      -6.7     28.660     30.471
REMARK  Name = 75536249
REMARK  9 active torsions:
REMARK  status: ('A' for Active; 'I' for Inactive)
REMARK    1  A    between atoms: O_3  and  C_11
REMARK    2  A    between atoms: N_6  and  C_15
REMARK    3  A    between atoms: N_8  and  C_20
REMARK    4  A    between atoms: C_9  and  C_15
REMARK    5  A    between atoms: C_10  and  C_14
REMARK    6  A    between atoms: C_14  and  C_16
REMARK    7  A    between atoms: C_19  and  C_21
REMARK    8  A    between atoms: C_20  and  C_22
REMARK    9  A    between atoms: C_20  and  C_23
REMARK                            x       y       z     vdW  Elec       q    Type
REMARK                         _______ _______ _______ _____ _____    ______ ____
ROOT
ATOM      2  O   UNL     1      -6.773 -11.904  17.454  0.00  0.00    -0.369 OA
ATOM      9  C   UNL     1      -6.314 -12.355  18.734  0.00  0.00    +0.164 C 
ATOM     10  C   UNL     1      -6.078 -10.772  16.925  0.00  0.00    +0.125 C 
ATOM     11  C   UNL     1      -4.811 -12.661  18.714  0.00  0.00    +0.145 C 
ATOM     12  C   UNL     1      -4.588 -11.075  16.776  0.00  0.00    +0.034 C 
ATOM     13  C   UNL     1      -3.995 -11.523  18.109  0.00  0.00    +0.036 C 
ENDROOT
BRANCH  11   3
ATOM      3  O   UNL     1      -4.590 -13.828  17.918  0.00  0.00    -0.389 OA
ATOM     29  H   UNL     1      -5.215 -14.511  18.217  0.00  0.00    +0.210 HD
ENDBRANCH  11   3
BRANCH  10  14
ATOM     14  C   UNL     1      -6.701 -10.441  15.574  0.00  0.00    +0.090 C 
BRANCH  14  16
ATOM      4  O   UNL     1      -9.318  -8.213  16.661  0.00  0.00    -0.354 OA
ATOM      7  N   UNL     1      -8.137  -8.916  16.867  0.00  0.00    -0.083 NA
ATOM     16  C   UNL     1      -7.915  -9.564  15.720  0.00  0.00    +0.087 A 
ATOM     17  C   UNL     1      -8.912  -9.309  14.762  0.00  0.00    +0.076 A 
ATOM     19  C   UNL     1      -9.770  -8.455  15.404  0.00  0.00    +0.167 A 
BRANCH  19  21
ATOM      1  F   UNL     1     -14.496  -5.880  13.997  0.00  0.00    -0.205 F 
ATOM     21  C   UNL     1     -10.989  -7.792  15.042  0.00  0.00    +0.020 A 
ATOM     24  C   UNL     1     -11.937  -8.452  14.260  0.00  0.00    +0.014 A 
ATOM     25  C   UNL     1     -11.226  -6.485  15.471  0.00  0.00    +0.014 A 
ATOM     26  C   UNL     1     -13.122  -7.806  13.907  0.00  0.00    +0.039 A 
ATOM     27  C   UNL     1     -12.410  -5.840  15.118  0.00  0.00    +0.039 A 
ATOM     28  C   UNL     1     -13.359  -6.500  14.336  0.00  0.00    +0.123 A 
ENDBRANCH  19  21
ENDBRANCH  14  16
ENDBRANCH  10  14
BRANCH   9  15
ATOM     15  C   UNL     1      -6.709 -11.375  19.838  0.00  0.00    +0.140 C 
BRANCH  15   6
ATOM      5  O   UNL     1      -9.489 -12.103  20.096  0.00  0.00    -0.253 OA
ATOM      6  N   UNL     1      -7.844 -10.595  19.449  0.00  0.00    -0.297 N 
ATOM      8  N   UNL     1     -10.074 -10.068  19.147  0.00  0.00    -0.297 N 
ATOM     18  C   UNL     1      -9.168 -11.021  19.608  0.00  0.00    +0.300 C 
ATOM     30  H   UNL     1      -7.679  -9.703  18.994  0.00  0.00    +0.150 HD
ATOM     31  H   UNL     1      -9.710  -9.236  18.693  0.00  0.00    +0.150 HD
BRANCH   8  20
ATOM     20  C   UNL     1     -11.504 -10.261  19.196  0.00  0.00    +0.068 C 
ATOM     22  C   UNL     1     -12.180  -9.502  18.061  0.00  0.00    +0.027 C 
ATOM     23  C   UNL     1     -12.055  -9.834  20.551  0.00  0.00    +0.027 C 
ENDBRANCH   8  20
ENDBRANCH  15   6
ENDBRANCH   9  15
TORSDOF 7
ENDMDL
