MODEL 1
REMARK VINA RESULT:      -6.7      0.000      0.000
REMARK  Name = 11882522
REMARK  13 active torsions:
REMARK  status: ('A' for Active; 'I' for Inactive)
REMARK    1  A    between atoms: S_2  and  C_30
REMARK    2  A    between atoms: S_2  and  C_34
REMARK    3  A    between atoms: O_3  and  C_12
REMARK    4  A    between atoms: O_4  and  C_14
REMARK    5  A    between atoms: O_7  and  C_25
REMARK    6  A    between atoms: O_7  and  C_33
REMARK    7  A    between atoms: N_9  and  C_13
REMARK    8  A    between atoms: N_10  and  C_19
REMARK    9  A    between atoms: C_16  and  C_18
REMARK   10  A    between atoms: C_19  and  C_21
REMARK   11  A    between atoms: C_19  and  C_23
REMARK   12  A    between atoms: C_20  and  C_22
REMARK   13  A    between atoms: C_21  and  C_24
REMARK                            x       y       z     vdW  Elec       q    Type
REMARK                         _______ _______ _______ _____ _____    ______ ____
ROOT
ATOM     12  C   UNL     1      12.316   7.410  20.694  0.00  0.00    +0.167 C 
ATOM     13  C   UNL     1      13.283   8.609  20.672  0.00  0.00    +0.128 C 
ATOM     14  C   UNL     1      10.853   7.868  20.758  0.00  0.00    +0.149 C 
ATOM     15  C   UNL     1      10.588   8.790  21.960  0.00  0.00    +0.074 C 
ATOM     16  C   UNL     1      11.711   9.748  22.236  0.00  0.00    +0.015 C 
ATOM     17  C   UNL     1      12.921   9.684  21.660  0.00  0.00    +0.006 C 
ENDROOT
BRANCH  16  18
ATOM      5  O   UNL     1      11.004  10.620  24.300  0.00  0.00    -0.271 OA
ATOM     10  N   UNL     1      11.811  12.081  22.674  0.00  0.00    -0.300 N 
ATOM     18  C   UNL     1      11.469  10.841  23.182  0.00  0.00    +0.241 C 
ATOM     38  H   UNL     1      12.097  12.179  21.706  0.00  0.00    +0.150 HD
BRANCH  10  19
ATOM     19  C   UNL     1      11.660  13.311  23.420  0.00  0.00    +0.164 C 
BRANCH  19  23
ATOM      8  O   UNL     1      11.293  15.100  21.818  0.00  0.00    -0.274 OA
ATOM     11  N   UNL     1       9.466  14.017  22.692  0.00  0.00    -0.328 N 
ATOM     23  C   UNL     1      10.819  14.251  22.570  0.00  0.00    +0.231 C 
ATOM     39  H   UNL     1       9.088  13.310  23.315  0.00  0.00    +0.145 HD
ATOM     40  H   UNL     1       8.793  14.565  22.166  0.00  0.00    +0.145 HD
ENDBRANCH  19  23
BRANCH  19  21
ATOM     21  C   UNL     1      13.010  13.955  23.754  0.00  0.00    +0.074 C 
BRANCH  21  24
ATOM      1  S   UNL     1      13.426  13.969  26.482  0.00  0.00    -0.102 S 
ATOM     24  C   UNL     1      13.688  13.311  24.939  0.00  0.00    -0.008 A 
ATOM     27  C   UNL     1      14.513  12.231  24.934  0.00  0.00    +0.011 A 
ATOM     31  C   UNL     1      14.957  11.920  26.250  0.00  0.00    +0.008 A 
ATOM     32  C   UNL     1      14.442  12.786  27.189  0.00  0.00    +0.045 A 
ENDBRANCH  21  24
ENDBRANCH  19  21
ENDBRANCH  10  19
ENDBRANCH  16  18
BRANCH  13   9
ATOM      6  O   UNL     1      15.222   7.876  18.685  0.00  0.00    -0.270 OA
ATOM      9  N   UNL     1      14.646   8.198  20.908  0.00  0.00    -0.302 N 
ATOM     20  C   UNL     1      15.513   7.862  19.878  0.00  0.00    +0.248 C 
ATOM     35  H   UNL     1      14.940   8.084  21.873  0.00  0.00    +0.150 HD
BRANCH  20  22
ATOM     22  C   UNL     1      16.875   7.434  20.289  0.00  0.00    +0.078 A 
ATOM     25  C   UNL     1      17.581   8.181  21.210  0.00  0.00    +0.133 A 
ATOM     26  C   UNL     1      17.391   6.285  19.724  0.00  0.00    +0.018 A 
ATOM     28  C   UNL     1      18.858   7.762  21.581  0.00  0.00    +0.061 A 
ATOM     29  C   UNL     1      18.669   5.866  20.096  0.00  0.00    +0.015 A 
ATOM     30  C   UNL     1      19.402   6.605  21.025  0.00  0.00    +0.011 A 
BRANCH  30   2
ATOM      2  S   UNL     1      21.034   6.068  21.500  0.00  0.00    -0.128 S 
ATOM     34  C   UNL     1      21.126   4.432  20.720  0.00  0.00    +0.090 C 
ENDBRANCH  30   2
BRANCH  25   7
ATOM      7  O   UNL     1      17.066   9.314  21.765  0.00  0.00    -0.494 OA
ATOM     33  C   UNL     1      17.708  10.544  21.438  0.00  0.00    +0.277 C 
ENDBRANCH  25   7
ENDBRANCH  20  22
ENDBRANCH  13   9
BRANCH  12   3
ATOM      3  O   UNL     1      12.591   6.593  21.834  0.00  0.00    -0.387 OA
ATOM     36  H   UNL     1      13.393   6.924  22.271  0.00  0.00    +0.210 HD
ENDBRANCH  12   3
BRANCH  14   4
ATOM      4  O   UNL     1      10.492   8.528  19.546  0.00  0.00    -0.389 OA
ATOM     37  H   UNL     1       9.651   8.148  19.243  0.00  0.00    +0.210 HD
ENDBRANCH  14   4
TORSDOF 11
ENDMDL
MODEL 2
REMARK VINA RESULT:      -6.5      1.700      2.157
REMARK  Name = 11882522
REMARK  13 active torsions:
REMARK  status: ('A' for Active; 'I' for Inactive)
REMARK    1  A    between atoms: S_2  and  C_30
REMARK    2  A    between atoms: S_2  and  C_34
REMARK    3  A    between atoms: O_3  and  C_12
REMARK    4  A    between atoms: O_4  and  C_14
REMARK    5  A    between atoms: O_7  and  C_25
REMARK    6  A    between atoms: O_7  and  C_33
REMARK    7  A    between atoms: N_9  and  C_13
REMARK    8  A    between atoms: N_10  and  C_19
REMARK    9  A    between atoms: C_16  and  C_18
REMARK   10  A    between atoms: C_19  and  C_21
REMARK   11  A    between atoms: C_19  and  C_23
REMARK   12  A    between atoms: C_20  and  C_22
REMARK   13  A    between atoms: C_21  and  C_24
REMARK                            x       y       z     vdW  Elec       q    Type
REMARK                         _______ _______ _______ _____ _____    ______ ____
ROOT
ATOM     12  C   UNL     1      12.351   7.393  20.609  0.00  0.00    +0.167 C 
ATOM     13  C   UNL     1      13.307   8.597  20.506  0.00  0.00    +0.128 C 
ATOM     14  C   UNL     1      10.885   7.840  20.648  0.00  0.00    +0.149 C 
ATOM     15  C   UNL     1      10.614   8.837  21.788  0.00  0.00    +0.074 C 
ATOM     16  C   UNL     1      11.728   9.822  21.997  0.00  0.00    +0.015 C 
ATOM     17  C   UNL     1      12.937   9.731  21.423  0.00  0.00    +0.006 C 
ENDROOT
BRANCH  16  18
ATOM      5  O   UNL     1      11.112  10.816  24.035  0.00  0.00    -0.271 OA
ATOM     10  N   UNL     1      11.694  12.185  22.241  0.00  0.00    -0.300 N 
ATOM     18  C   UNL     1      11.478  10.972  22.870  0.00  0.00    +0.241 C 
ATOM     38  H   UNL     1      11.901  12.219  21.249  0.00  0.00    +0.150 HD
BRANCH  10  19
ATOM     19  C   UNL     1      11.510  13.460  22.898  0.00  0.00    +0.164 C 
BRANCH  19  23
ATOM      8  O   UNL     1      10.136  14.441  21.150  0.00  0.00    -0.274 OA
ATOM     11  N   UNL     1       9.222  14.161  23.238  0.00  0.00    -0.328 N 
ATOM     23  C   UNL     1      10.248  14.084  22.321  0.00  0.00    +0.231 C 
ATOM     39  H   UNL     1       9.327  13.860  24.202  0.00  0.00    +0.145 HD
ATOM     40  H   UNL     1       8.319  14.544  22.978  0.00  0.00    +0.145 HD
ENDBRANCH  19  23
BRANCH  19  21
ATOM     21  C   UNL     1      12.709  14.394  22.695  0.00  0.00    +0.074 C 
BRANCH  21  24
ATOM      1  S   UNL     1      15.042  13.039  22.117  0.00  0.00    -0.102 S 
ATOM     24  C   UNL     1      13.662  13.900  21.634  0.00  0.00    -0.008 A 
ATOM     27  C   UNL     1      13.557  14.060  20.288  0.00  0.00    +0.011 A 
ATOM     31  C   UNL     1      14.653  13.453  19.613  0.00  0.00    +0.008 A 
ATOM     32  C   UNL     1      15.537  12.861  20.488  0.00  0.00    +0.045 A 
ENDBRANCH  21  24
ENDBRANCH  19  21
ENDBRANCH  10  19
ENDBRANCH  16  18
BRANCH  13   9
ATOM      6  O   UNL     1      15.231   7.696  18.574  0.00  0.00    -0.270 OA
ATOM      9  N   UNL     1      14.674   8.215  20.765  0.00  0.00    -0.302 N 
ATOM     20  C   UNL     1      15.533   7.791  19.760  0.00  0.00    +0.248 C 
ATOM     35  H   UNL     1      14.979   8.189  21.733  0.00  0.00    +0.150 HD
BRANCH  20  22
ATOM     22  C   UNL     1      16.901   7.408  20.195  0.00  0.00    +0.078 A 
ATOM     25  C   UNL     1      17.609   8.234  21.044  0.00  0.00    +0.133 A 
ATOM     26  C   UNL     1      17.421   6.219  19.723  0.00  0.00    +0.018 A 
ATOM     28  C   UNL     1      18.892   7.855  21.439  0.00  0.00    +0.061 A 
ATOM     29  C   UNL     1      18.704   5.841  20.119  0.00  0.00    +0.015 A 
ATOM     30  C   UNL     1      19.440   6.659  20.977  0.00  0.00    +0.011 A 
BRANCH  30   2
ATOM      2  S   UNL     1      21.079   6.175  21.482  0.00  0.00    -0.128 S 
ATOM     34  C   UNL     1      21.203   4.505  20.780  0.00  0.00    +0.090 C 
ENDBRANCH  30   2
BRANCH  25   7
ATOM      7  O   UNL     1      17.090   9.406  21.507  0.00  0.00    -0.494 OA
ATOM     33  C   UNL     1      18.018  10.424  21.873  0.00  0.00    +0.277 C 
ENDBRANCH  25   7
ENDBRANCH  20  22
ENDBRANCH  13   9
BRANCH  12   3
ATOM      3  O   UNL     1      12.637   6.655  21.800  0.00  0.00    -0.387 OA
ATOM     36  H   UNL     1      13.296   5.972  21.595  0.00  0.00    +0.210 HD
ENDBRANCH  12   3
BRANCH  14   4
ATOM      4  O   UNL     1      10.515   8.417  19.396  0.00  0.00    -0.389 OA
ATOM     37  H   UNL     1      11.332   8.616  18.910  0.00  0.00    +0.210 HD
ENDBRANCH  14   4
TORSDOF 11
ENDMDL
MODEL 3
REMARK VINA RESULT:      -6.3      1.703      2.557
REMARK  Name = 11882522
REMARK  13 active torsions:
REMARK  status: ('A' for Active; 'I' for Inactive)
REMARK    1  A    between atoms: S_2  and  C_30
REMARK    2  A    between atoms: S_2  and  C_34
REMARK    3  A    between atoms: O_3  and  C_12
REMARK    4  A    between atoms: O_4  and  C_14
REMARK    5  A    between atoms: O_7  and  C_25
REMARK    6  A    between atoms: O_7  and  C_33
REMARK    7  A    between atoms: N_9  and  C_13
REMARK    8  A    between atoms: N_10  and  C_19
REMARK    9  A    between atoms: C_16  and  C_18
REMARK   10  A    between atoms: C_19  and  C_21
REMARK   11  A    between atoms: C_19  and  C_23
REMARK   12  A    between atoms: C_20  and  C_22
REMARK   13  A    between atoms: C_21  and  C_24
REMARK                            x       y       z     vdW  Elec       q    Type
REMARK                         _______ _______ _______ _____ _____    ______ ____
ROOT
ATOM     12  C   UNL     1      12.329   7.382  20.630  0.00  0.00    +0.167 C 
ATOM     13  C   UNL     1      13.396   8.481  20.471  0.00  0.00    +0.128 C 
ATOM     14  C   UNL     1      10.912   7.967  20.620  0.00  0.00    +0.149 C 
ATOM     15  C   UNL     1      10.726   9.051  21.696  0.00  0.00    +0.074 C 
ATOM     16  C   UNL     1      11.927   9.937  21.864  0.00  0.00    +0.015 C 
ATOM     17  C   UNL     1      13.127   9.698  21.314  0.00  0.00    +0.006 C 
ENDROOT
BRANCH  16  18
ATOM      5  O   UNL     1      10.986  12.037  22.336  0.00  0.00    -0.271 OA
ATOM     10  N   UNL     1      12.608  11.177  23.772  0.00  0.00    -0.300 N 
ATOM     18  C   UNL     1      11.780  11.155  22.665  0.00  0.00    +0.241 C 
ATOM     38  H   UNL     1      13.300  10.449  23.911  0.00  0.00    +0.150 HD
BRANCH  10  19
ATOM     19  C   UNL     1      12.645  12.277  24.711  0.00  0.00    +0.164 C 
BRANCH  19  23
ATOM      8  O   UNL     1      10.579  11.618  25.808  0.00  0.00    -0.274 OA
ATOM     11  N   UNL     1      10.755  13.757  24.991  0.00  0.00    -0.328 N 
ATOM     23  C   UNL     1      11.225  12.481  25.218  0.00  0.00    +0.231 C 
ATOM     39  H   UNL     1      11.300  14.462  24.504  0.00  0.00    +0.145 HD
ATOM     40  H   UNL     1       9.826  14.031  25.294  0.00  0.00    +0.145 HD
ENDBRANCH  19  23
BRANCH  19  21
ATOM     21  C   UNL     1      13.175  13.566  24.072  0.00  0.00    +0.074 C 
BRANCH  21  24
ATOM      1  S   UNL     1      14.622  13.612  21.723  0.00  0.00    -0.102 S 
ATOM     24  C   UNL     1      14.514  13.377  23.401  0.00  0.00    -0.008 A 
ATOM     27  C   UNL     1      15.691  13.029  23.985  0.00  0.00    +0.011 A 
ATOM     31  C   UNL     1      16.736  12.950  23.022  0.00  0.00    +0.008 A 
ATOM     32  C   UNL     1      16.294  13.242  21.751  0.00  0.00    +0.045 A 
ENDBRANCH  21  24
ENDBRANCH  19  21
ENDBRANCH  10  19
ENDBRANCH  16  18
BRANCH  13   9
ATOM      6  O   UNL     1      15.889   9.743  19.808  0.00  0.00    -0.270 OA
ATOM      9  N   UNL     1      14.718   7.988  20.771  0.00  0.00    -0.302 N 
ATOM     20  C   UNL     1      15.870   8.672  20.409  0.00  0.00    +0.248 C 
ATOM     35  H   UNL     1      14.790   7.068  21.197  0.00  0.00    +0.150 HD
BRANCH  20  22
ATOM     22  C   UNL     1      17.154   8.017  20.768  0.00  0.00    +0.078 A 
ATOM     25  C   UNL     1      17.476   6.790  20.224  0.00  0.00    +0.133 A 
ATOM     26  C   UNL     1      17.991   8.672  21.650  0.00  0.00    +0.018 A 
ATOM     28  C   UNL     1      18.687   6.193  20.575  0.00  0.00    +0.061 A 
ATOM     29  C   UNL     1      19.202   8.075  22.000  0.00  0.00    +0.015 A 
ATOM     30  C   UNL     1      19.549   6.835  21.464  0.00  0.00    +0.011 A 
BRANCH  30   2
ATOM      2  S   UNL     1      21.097   6.072  21.912  0.00  0.00    -0.128 S 
ATOM     34  C   UNL     1      21.376   4.954  20.510  0.00  0.00    +0.090 C 
ENDBRANCH  30   2
BRANCH  25   7
ATOM      7  O   UNL     1      16.647   6.149  19.354  0.00  0.00    -0.494 OA
ATOM     33  C   UNL     1      17.257   5.485  18.249  0.00  0.00    +0.277 C 
ENDBRANCH  25   7
ENDBRANCH  20  22
ENDBRANCH  13   9
BRANCH  12   3
ATOM      3  O   UNL     1      12.532   6.692  21.866  0.00  0.00    -0.387 OA
ATOM     36  H   UNL     1      13.464   6.778  22.124  0.00  0.00    +0.210 HD
ENDBRANCH  12   3
BRANCH  14   4
ATOM      4  O   UNL     1      10.610   8.500  19.332  0.00  0.00    -0.389 OA
ATOM     37  H   UNL     1      10.471   7.751  18.728  0.00  0.00    +0.210 HD
ENDBRANCH  14   4
TORSDOF 11
ENDMDL
MODEL 4
REMARK VINA RESULT:      -6.3      5.041     11.719
REMARK  Name = 11882522
REMARK  13 active torsions:
REMARK  status: ('A' for Active; 'I' for Inactive)
REMARK    1  A    between atoms: S_2  and  C_30
REMARK    2  A    between atoms: S_2  and  C_34
REMARK    3  A    between atoms: O_3  and  C_12
REMARK    4  A    between atoms: O_4  and  C_14
REMARK    5  A    between atoms: O_7  and  C_25
REMARK    6  A    between atoms: O_7  and  C_33
REMARK    7  A    between atoms: N_9  and  C_13
REMARK    8  A    between atoms: N_10  and  C_19
REMARK    9  A    between atoms: C_16  and  C_18
REMARK   10  A    between atoms: C_19  and  C_21
REMARK   11  A    between atoms: C_19  and  C_23
REMARK   12  A    between atoms: C_20  and  C_22
REMARK   13  A    between atoms: C_21  and  C_24
REMARK                            x       y       z     vdW  Elec       q    Type
REMARK                         _______ _______ _______ _____ _____    ______ ____
ROOT
ATOM     12  C   UNL     1      20.441   7.522  23.817  0.00  0.00    +0.167 C 
ATOM     13  C   UNL     1      20.134   7.383  22.314  0.00  0.00    +0.128 C 
ATOM     14  C   UNL     1      21.941   7.374  24.101  0.00  0.00    +0.149 C 
ATOM     15  C   UNL     1      22.503   6.047  23.561  0.00  0.00    +0.074 C 
ATOM     16  C   UNL     1      21.925   5.650  22.234  0.00  0.00    +0.015 C 
ATOM     17  C   UNL     1      20.868   6.245  21.660  0.00  0.00    +0.006 C 
ENDROOT
BRANCH  16  18
ATOM      5  O   UNL     1      21.919   3.846  20.729  0.00  0.00    -0.271 OA
ATOM     10  N   UNL     1      23.912   4.427  21.787  0.00  0.00    -0.300 N 
ATOM     18  C   UNL     1      22.564   4.553  21.503  0.00  0.00    +0.241 C 
ATOM     38  H   UNL     1      24.339   4.994  22.512  0.00  0.00    +0.150 HD
BRANCH  10  19
ATOM     19  C   UNL     1      24.755   3.416  21.191  0.00  0.00    +0.164 C 
BRANCH  19  23
ATOM      8  O   UNL     1      25.665   4.869  19.468  0.00  0.00    -0.274 OA
ATOM     11  N   UNL     1      24.561   2.959  18.825  0.00  0.00    -0.328 N 
ATOM     23  C   UNL     1      25.038   3.852  19.761  0.00  0.00    +0.231 C 
ATOM     39  H   UNL     1      24.048   2.122  19.081  0.00  0.00    +0.145 HD
ATOM     40  H   UNL     1      24.697   3.124  17.833  0.00  0.00    +0.145 HD
ENDBRANCH  19  23
BRANCH  19  21
ATOM     21  C   UNL     1      24.098   2.031  21.206  0.00  0.00    +0.074 C 
BRANCH  21  24
ATOM      1  S   UNL     1      25.792   0.253  22.464  0.00  0.00    -0.102 S 
ATOM     24  C   UNL     1      24.416   1.247  22.456  0.00  0.00    -0.008 A 
ATOM     27  C   UNL     1      23.719   1.230  23.623  0.00  0.00    +0.011 A 
ATOM     31  C   UNL     1      24.333   0.366  24.574  0.00  0.00    +0.008 A 
ATOM     32  C   UNL     1      25.469  -0.231  24.075  0.00  0.00    +0.045 A 
ENDBRANCH  21  24
ENDBRANCH  19  21
ENDBRANCH  10  19
ENDBRANCH  16  18
BRANCH  13   9
ATOM      6  O   UNL     1      18.344   9.364  21.256  0.00  0.00    -0.270 OA
ATOM      9  N   UNL     1      18.720   7.226  22.072  0.00  0.00    -0.302 N 
ATOM     20  C   UNL     1      17.934   8.246  21.556  0.00  0.00    +0.248 C 
ATOM     35  H   UNL     1      18.287   6.356  22.368  0.00  0.00    +0.150 HD
BRANCH  20  22
ATOM     22  C   UNL     1      16.491   7.934  21.391  0.00  0.00    +0.078 A 
ATOM     25  C   UNL     1      16.106   6.825  20.665  0.00  0.00    +0.133 A 
ATOM     26  C   UNL     1      15.573   8.781  21.979  0.00  0.00    +0.018 A 
ATOM     28  C   UNL     1      14.746   6.550  20.522  0.00  0.00    +0.061 A 
ATOM     29  C   UNL     1      14.213   8.506  21.836  0.00  0.00    +0.015 A 
ATOM     30  C   UNL     1      13.800   7.391  21.107  0.00  0.00    +0.011 A 
BRANCH  30   2
ATOM      2  S   UNL     1      12.061   7.040  20.925  0.00  0.00    -0.128 S 
ATOM     34  C   UNL     1      11.328   8.173  22.139  0.00  0.00    +0.090 C 
ENDBRANCH  30   2
BRANCH  25   7
ATOM      7  O   UNL     1      17.016   5.991  20.087  0.00  0.00    -0.494 OA
ATOM     33  C   UNL     1      16.949   5.843  18.671  0.00  0.00    +0.277 C 
ENDBRANCH  25   7
ENDBRANCH  20  22
ENDBRANCH  13   9
BRANCH  12   3
ATOM      3  O   UNL     1      19.735   6.516  24.547  0.00  0.00    -0.387 OA
ATOM     36  H   UNL     1      18.871   6.871  24.815  0.00  0.00    +0.210 HD
ENDBRANCH  12   3
BRANCH  14   4
ATOM      4  O   UNL     1      22.657   8.473  23.541  0.00  0.00    -0.389 OA
ATOM     37  H   UNL     1      23.558   8.167  23.343  0.00  0.00    +0.210 HD
ENDBRANCH  14   4
TORSDOF 11
ENDMDL
MODEL 5
REMARK VINA RESULT:      -6.2     29.269     32.970
REMARK  Name = 11882522
REMARK  13 active torsions:
REMARK  status: ('A' for Active; 'I' for Inactive)
REMARK    1  A    between atoms: S_2  and  C_30
REMARK    2  A    between atoms: S_2  and  C_34
REMARK    3  A    between atoms: O_3  and  C_12
REMARK    4  A    between atoms: O_4  and  C_14
REMARK    5  A    between atoms: O_7  and  C_25
REMARK    6  A    between atoms: O_7  and  C_33
REMARK    7  A    between atoms: N_9  and  C_13
REMARK    8  A    between atoms: N_10  and  C_19
REMARK    9  A    between atoms: C_16  and  C_18
REMARK   10  A    between atoms: C_19  and  C_21
REMARK   11  A    between atoms: C_19  and  C_23
REMARK   12  A    between atoms: C_20  and  C_22
REMARK   13  A    between atoms: C_21  and  C_24
REMARK                            x       y       z     vdW  Elec       q    Type
REMARK                         _______ _______ _______ _____ _____    ______ ____
ROOT
ATOM     12  C   UNL     1     -11.025 -10.393  19.848  0.00  0.00    +0.167 C 
ATOM     13  C   UNL     1     -10.853 -11.905  19.611  0.00  0.00    +0.128 C 
ATOM     14  C   UNL     1     -10.746  -9.588  18.574  0.00  0.00    +0.149 C 
ATOM     15  C   UNL     1      -9.350  -9.883  17.997  0.00  0.00    +0.074 C 
ATOM     16  C   UNL     1      -8.955 -11.328  18.101  0.00  0.00    +0.015 C 
ATOM     17  C   UNL     1      -9.623 -12.247  18.814  0.00  0.00    +0.006 C 
ENDROOT
BRANCH  16  18
ATOM      5  O   UNL     1      -7.881 -12.473  16.353  0.00  0.00    -0.271 OA
ATOM     10  N   UNL     1      -6.586 -11.332  17.919  0.00  0.00    -0.300 N 
ATOM     18  C   UNL     1      -7.772 -11.775  17.360  0.00  0.00    +0.241 C 
ATOM     38  H   UNL     1      -6.588 -10.841  18.806  0.00  0.00    +0.150 HD
BRANCH  10  19
ATOM     19  C   UNL     1      -5.287 -11.647  17.368  0.00  0.00    +0.164 C 
BRANCH  19  23
ATOM      8  O   UNL     1      -4.048 -12.035  19.422  0.00  0.00    -0.274 OA
ATOM     11  N   UNL     1      -4.563 -13.836  18.093  0.00  0.00    -0.328 N 
ATOM     23  C   UNL     1      -4.555 -12.492  18.399  0.00  0.00    +0.231 C 
ATOM     39  H   UNL     1      -4.988 -14.201  17.246  0.00  0.00    +0.145 HD
ATOM     40  H   UNL     1      -4.121 -14.512  18.708  0.00  0.00    +0.145 HD
ENDBRANCH  19  23
BRANCH  19  21
ATOM     21  C   UNL     1      -4.477 -10.388  17.037  0.00  0.00    +0.074 C 
BRANCH  21  24
ATOM      1  S   UNL     1      -3.670 -10.965  14.462  0.00  0.00    -0.102 S 
ATOM     24  C   UNL     1      -3.329 -10.662  16.097  0.00  0.00    -0.008 A 
ATOM     27  C   UNL     1      -2.004 -10.700  16.398  0.00  0.00    +0.011 A 
ATOM     31  C   UNL     1      -1.224 -10.991  15.243  0.00  0.00    +0.008 A 
ATOM     32  C   UNL     1      -2.004 -11.159  14.120  0.00  0.00    +0.045 A 
ENDBRANCH  21  24
ENDBRANCH  19  21
ENDBRANCH  10  19
ENDBRANCH  16  18
BRANCH  13   9
ATOM      6  O   UNL     1     -12.943 -13.561  20.677  0.00  0.00    -0.270 OA
ATOM      9  N   UNL     1     -10.822 -12.640  20.853  0.00  0.00    -0.302 N 
ATOM     20  C   UNL     1     -11.887 -13.417  21.286  0.00  0.00    +0.248 C 
ATOM     35  H   UNL     1     -10.014 -12.510  21.454  0.00  0.00    +0.150 HD
BRANCH  20  22
ATOM     22  C   UNL     1     -11.708 -14.088  22.600  0.00  0.00    +0.078 A 
ATOM     25  C   UNL     1     -10.559 -14.809  22.852  0.00  0.00    +0.133 A 
ATOM     26  C   UNL     1     -12.718 -13.964  23.533  0.00  0.00    +0.018 A 
ATOM     28  C   UNL     1     -10.412 -15.432  24.092  0.00  0.00    +0.061 A 
ATOM     29  C   UNL     1     -12.570 -14.586  24.773  0.00  0.00    +0.015 A 
ATOM     30  C   UNL     1     -11.417 -15.321  25.052  0.00  0.00    +0.011 A 
BRANCH  30   2
ATOM      2  S   UNL     1     -11.229 -16.116  26.636  0.00  0.00    -0.128 S 
ATOM     34  C   UNL     1     -12.850 -15.812  27.395  0.00  0.00    +0.090 C 
ENDBRANCH  30   2
BRANCH  25   7
ATOM      7  O   UNL     1      -9.565 -14.928  21.927  0.00  0.00    -0.494 OA
ATOM     33  C   UNL     1      -8.928 -16.199  21.823  0.00  0.00    +0.277 C 
ENDBRANCH  25   7
ENDBRANCH  20  22
ENDBRANCH  13   9
BRANCH  12   3
ATOM      3  O   UNL     1     -10.122  -9.963  20.870  0.00  0.00    -0.387 OA
ATOM     36  H   UNL     1      -9.408 -10.617  20.955  0.00  0.00    +0.210 HD
ENDBRANCH  12   3
BRANCH  14   4
ATOM      4  O   UNL     1     -11.746  -9.858  17.594  0.00  0.00    -0.389 OA
ATOM     37  H   UNL     1     -11.396  -9.580  16.731  0.00  0.00    +0.210 HD
ENDBRANCH  14   4
TORSDOF 11
ENDMDL
MODEL 6
REMARK VINA RESULT:      -6.2     27.203     31.279
REMARK  Name = 11882522
REMARK  13 active torsions:
REMARK  status: ('A' for Active; 'I' for Inactive)
REMARK    1  A    between atoms: S_2  and  C_30
REMARK    2  A    between atoms: S_2  and  C_34
REMARK    3  A    between atoms: O_3  and  C_12
REMARK    4  A    between atoms: O_4  and  C_14
REMARK    5  A    between atoms: O_7  and  C_25
REMARK    6  A    between atoms: O_7  and  C_33
REMARK    7  A    between atoms: N_9  and  C_13
REMARK    8  A    between atoms: N_10  and  C_19
REMARK    9  A    between atoms: C_16  and  C_18
REMARK   10  A    between atoms: C_19  and  C_21
REMARK   11  A    between atoms: C_19  and  C_23
REMARK   12  A    between atoms: C_20  and  C_22
REMARK   13  A    between atoms: C_21  and  C_24
REMARK                            x       y       z     vdW  Elec       q    Type
REMARK                         _______ _______ _______ _____ _____    ______ ____
ROOT
ATOM     12  C   UNL     1      -8.346 -10.256  18.293  0.00  0.00    +0.167 C 
ATOM     13  C   UNL     1      -7.668  -9.334  17.263  0.00  0.00    +0.128 C 
ATOM     14  C   UNL     1      -7.314 -11.040  19.113  0.00  0.00    +0.149 C 
ATOM     15  C   UNL     1      -6.359 -11.849  18.219  0.00  0.00    +0.074 C 
ATOM     16  C   UNL     1      -5.962 -11.128  16.963  0.00  0.00    +0.015 C 
ATOM     17  C   UNL     1      -6.534  -9.996  16.527  0.00  0.00    +0.006 C 
ENDROOT
BRANCH  16  18
ATOM      5  O   UNL     1      -4.673 -12.897  16.110  0.00  0.00    -0.271 OA
ATOM     10  N   UNL     1      -4.115 -10.709  15.529  0.00  0.00    -0.300 N 
ATOM     18  C   UNL     1      -4.864 -11.682  16.167  0.00  0.00    +0.241 C 
ATOM     38  H   UNL     1      -4.287  -9.727  15.711  0.00  0.00    +0.150 HD
BRANCH  10  19
ATOM     19  C   UNL     1      -2.978 -11.012  14.689  0.00  0.00    +0.164 C 
BRANCH  19  23
ATOM      8  O   UNL     1      -1.054  -9.541  14.886  0.00  0.00    -0.274 OA
ATOM     11  N   UNL     1      -1.524 -10.974  16.619  0.00  0.00    -0.328 N 
ATOM     23  C   UNL     1      -1.749 -10.431  15.372  0.00  0.00    +0.231 C 
ATOM     39  H   UNL     1      -2.107 -11.706  17.010  0.00  0.00    +0.145 HD
ATOM     40  H   UNL     1      -0.743 -10.662  17.188  0.00  0.00    +0.145 HD
ENDBRANCH  19  23
BRANCH  19  21
ATOM     21  C   UNL     1      -3.130 -10.431  13.278  0.00  0.00    +0.074 C 
BRANCH  21  24
ATOM      1  S   UNL     1      -3.341 -13.123  12.709  0.00  0.00    -0.102 S 
ATOM     24  C   UNL     1      -3.342 -11.495  12.229  0.00  0.00    -0.008 A 
ATOM     27  C   UNL     1      -3.543 -11.315  10.896  0.00  0.00    +0.011 A 
ATOM     31  C   UNL     1      -3.704 -12.563  10.229  0.00  0.00    +0.008 A 
ATOM     32  C   UNL     1      -3.615 -13.629  11.096  0.00  0.00    +0.045 A 
ENDBRANCH  21  24
ENDBRANCH  19  21
ENDBRANCH  10  19
ENDBRANCH  16  18
BRANCH  13   9
ATOM      6  O   UNL     1      -9.883  -7.586  17.796  0.00  0.00    -0.270 OA
ATOM      9  N   UNL     1      -8.613  -8.823  16.300  0.00  0.00    -0.302 N 
ATOM     20  C   UNL     1      -9.656  -7.979  16.655  0.00  0.00    +0.248 C 
ATOM     35  H   UNL     1      -8.543  -9.165  15.347  0.00  0.00    +0.150 HD
BRANCH  20  22
ATOM     22  C   UNL     1     -10.559  -7.563  15.551  0.00  0.00    +0.078 A 
ATOM     25  C   UNL     1     -11.048  -8.507  14.670  0.00  0.00    +0.133 A 
ATOM     26  C   UNL     1     -10.879  -6.224  15.445  0.00  0.00    +0.018 A 
ATOM     28  C   UNL     1     -11.894  -8.095  13.641  0.00  0.00    +0.061 A 
ATOM     29  C   UNL     1     -11.725  -5.813  14.414  0.00  0.00    +0.015 A 
ATOM     30  C   UNL     1     -12.232  -6.748  13.512  0.00  0.00    +0.011 A 
BRANCH  30   2
ATOM      2  S   UNL     1     -13.313  -6.221  12.196  0.00  0.00    -0.128 S 
ATOM     34  C   UNL     1     -14.705  -7.371  12.381  0.00  0.00    +0.090 C 
ENDBRANCH  30   2
BRANCH  25   7
ATOM      7  O   UNL     1     -10.730  -9.828  14.780  0.00  0.00    -0.494 OA
ATOM     33  C   UNL     1     -10.327 -10.497  13.588  0.00  0.00    +0.277 C 
ENDBRANCH  25   7
ENDBRANCH  20  22
ENDBRANCH  13   9
BRANCH  12   3
ATOM      3  O   UNL     1      -9.197 -11.186  17.618  0.00  0.00    -0.387 OA
ATOM     36  H   UNL     1      -8.648 -11.877  17.213  0.00  0.00    +0.210 HD
ENDBRANCH  12   3
BRANCH  14   4
ATOM      4  O   UNL     1      -6.570 -10.150  19.944  0.00  0.00    -0.389 OA
ATOM     37  H   UNL     1      -7.135  -9.382  20.133  0.00  0.00    +0.210 HD
ENDBRANCH  14   4
TORSDOF 11
ENDMDL
MODEL 7
REMARK VINA RESULT:      -6.1     16.582     18.985
REMARK  Name = 11882522
REMARK  13 active torsions:
REMARK  status: ('A' for Active; 'I' for Inactive)
REMARK    1  A    between atoms: S_2  and  C_30
REMARK    2  A    between atoms: S_2  and  C_34
REMARK    3  A    between atoms: O_3  and  C_12
REMARK    4  A    between atoms: O_4  and  C_14
REMARK    5  A    between atoms: O_7  and  C_25
REMARK    6  A    between atoms: O_7  and  C_33
REMARK    7  A    between atoms: N_9  and  C_13
REMARK    8  A    between atoms: N_10  and  C_19
REMARK    9  A    between atoms: C_16  and  C_18
REMARK   10  A    between atoms: C_19  and  C_21
REMARK   11  A    between atoms: C_19  and  C_23
REMARK   12  A    between atoms: C_20  and  C_22
REMARK   13  A    between atoms: C_21  and  C_24
REMARK                            x       y       z     vdW  Elec       q    Type
REMARK                         _______ _______ _______ _____ _____    ______ ____
ROOT
ATOM     12  C   UNL     1      15.014   4.357   1.313  0.00  0.00    +0.167 C 
ATOM     13  C   UNL     1      14.557   5.766   1.735  0.00  0.00    +0.128 C 
ATOM     14  C   UNL     1      13.890   3.589   0.607  0.00  0.00    +0.149 C 
ATOM     15  C   UNL     1      12.618   3.502   1.468  0.00  0.00    +0.074 C 
ATOM     16  C   UNL     1      12.331   4.760   2.235  0.00  0.00    +0.015 C 
ATOM     17  C   UNL     1      13.187   5.786   2.357  0.00  0.00    +0.006 C 
ENDROOT
BRANCH  16  18
ATOM      5  O   UNL     1      10.196   3.980   2.829  0.00  0.00    -0.271 OA
ATOM     10  N   UNL     1      10.851   6.109   3.515  0.00  0.00    -0.300 N 
ATOM     18  C   UNL     1      11.021   4.891   2.881  0.00  0.00    +0.241 C 
ATOM     38  H   UNL     1      11.550   6.838   3.423  0.00  0.00    +0.150 HD
BRANCH  10  19
ATOM     19  C   UNL     1       9.641   6.472   4.218  0.00  0.00    +0.164 C 
BRANCH  19  23
ATOM      8  O   UNL     1       9.054   7.510   2.101  0.00  0.00    -0.274 OA
ATOM     11  N   UNL     1       7.867   8.095   3.979  0.00  0.00    -0.328 N 
ATOM     23  C   UNL     1       8.858   7.408   3.311  0.00  0.00    +0.231 C 
ATOM     39  H   UNL     1       7.714   7.999   4.978  0.00  0.00    +0.145 HD
ATOM     40  H   UNL     1       7.260   8.743   3.486  0.00  0.00    +0.145 HD
ENDBRANCH  19  23
BRANCH  19  21
ATOM     21  C   UNL     1       9.934   7.150   5.562  0.00  0.00    +0.074 C 
BRANCH  21  24
ATOM      1  S   UNL     1       9.351   6.840   8.241  0.00  0.00    -0.102 S 
ATOM     24  C   UNL     1       9.804   6.206   6.733  0.00  0.00    -0.008 A 
ATOM     27  C   UNL     1      10.011   4.863   6.740  0.00  0.00    +0.011 A 
ATOM     31  C   UNL     1       9.791   4.318   8.037  0.00  0.00    +0.008 A 
ATOM     32  C   UNL     1       9.427   5.283   8.950  0.00  0.00    +0.045 A 
ENDBRANCH  21  24
ENDBRANCH  19  21
ENDBRANCH  10  19
ENDBRANCH  16  18
BRANCH  13   9
ATOM      6  O   UNL     1      15.606   8.435   1.582  0.00  0.00    -0.270 OA
ATOM      9  N   UNL     1      15.492   6.378   2.648  0.00  0.00    -0.302 N 
ATOM     20  C   UNL     1      15.943   7.681   2.491  0.00  0.00    +0.248 C 
ATOM     35  H   UNL     1      15.881   5.795   3.382  0.00  0.00    +0.150 HD
BRANCH  20  22
ATOM     22  C   UNL     1      16.925   8.154   3.500  0.00  0.00    +0.078 A 
ATOM     25  C   UNL     1      16.507   8.442   4.784  0.00  0.00    +0.133 A 
ATOM     26  C   UNL     1      18.242   8.292   3.109  0.00  0.00    +0.018 A 
ATOM     28  C   UNL     1      17.445   8.885   5.716  0.00  0.00    +0.061 A 
ATOM     29  C   UNL     1      19.180   8.736   4.042  0.00  0.00    +0.015 A 
ATOM     30  C   UNL     1      18.781   9.032   5.345  0.00  0.00    +0.011 A 
BRANCH  30   2
ATOM      2  S   UNL     1      19.980   9.598   6.536  0.00  0.00    -0.128 S 
ATOM     34  C   UNL     1      20.912   8.077   6.872  0.00  0.00    +0.090 C 
ENDBRANCH  30   2
BRANCH  25   7
ATOM      7  O   UNL     1      15.206   8.303   5.165  0.00  0.00    -0.494 OA
ATOM     33  C   UNL     1      14.945   7.443   6.273  0.00  0.00    +0.277 C 
ENDBRANCH  25   7
ENDBRANCH  20  22
ENDBRANCH  13   9
BRANCH  12   3
ATOM      3  O   UNL     1      15.419   3.618   2.468  0.00  0.00    -0.387 OA
ATOM     36  H   UNL     1      15.714   2.736   2.189  0.00  0.00    +0.210 HD
ENDBRANCH  12   3
BRANCH  14   4
ATOM      4  O   UNL     1      13.591   4.200  -0.647  0.00  0.00    -0.389 OA
ATOM     37  H   UNL     1      13.043   4.982  -0.470  0.00  0.00    +0.210 HD
ENDBRANCH  14   4
TORSDOF 11
ENDMDL
MODEL 8
REMARK VINA RESULT:      -6.1      4.560      6.344
REMARK  Name = 11882522
REMARK  13 active torsions:
REMARK  status: ('A' for Active; 'I' for Inactive)
REMARK    1  A    between atoms: S_2  and  C_30
REMARK    2  A    between atoms: S_2  and  C_34
REMARK    3  A    between atoms: O_3  and  C_12
REMARK    4  A    between atoms: O_4  and  C_14
REMARK    5  A    between atoms: O_7  and  C_25
REMARK    6  A    between atoms: O_7  and  C_33
REMARK    7  A    between atoms: N_9  and  C_13
REMARK    8  A    between atoms: N_10  and  C_19
REMARK    9  A    between atoms: C_16  and  C_18
REMARK   10  A    between atoms: C_19  and  C_21
REMARK   11  A    between atoms: C_19  and  C_23
REMARK   12  A    between atoms: C_20  and  C_22
REMARK   13  A    between atoms: C_21  and  C_24
REMARK                            x       y       z     vdW  Elec       q    Type
REMARK                         _______ _______ _______ _____ _____    ______ ____
ROOT
ATOM     12  C   UNL     1      12.818   9.516  15.423  0.00  0.00    +0.167 C 
ATOM     13  C   UNL     1      13.244  10.490  16.538  0.00  0.00    +0.128 C 
ATOM     14  C   UNL     1      11.446   8.896  15.710  0.00  0.00    +0.149 C 
ATOM     15  C   UNL     1      11.403   8.193  17.078  0.00  0.00    +0.074 C 
ATOM     16  C   UNL     1      12.160   8.925  18.149  0.00  0.00    +0.015 C 
ATOM     17  C   UNL     1      12.982   9.960  17.922  0.00  0.00    +0.006 C 
ENDROOT
BRANCH  16  18
ATOM      5  O   UNL     1      11.010   7.812  19.869  0.00  0.00    -0.271 OA
ATOM     10  N   UNL     1      12.984   8.942  20.377  0.00  0.00    -0.300 N 
ATOM     18  C   UNL     1      11.979   8.496  19.538  0.00  0.00    +0.241 C 
ATOM     38  H   UNL     1      13.692   9.582  20.035  0.00  0.00    +0.150 HD
BRANCH  10  19
ATOM     19  C   UNL     1      13.021   8.650  21.792  0.00  0.00    +0.164 C 
BRANCH  19  23
ATOM      8  O   UNL     1      11.034   9.807  22.577  0.00  0.00    -0.274 OA
ATOM     11  N   UNL     1      13.093  10.686  23.092  0.00  0.00    -0.328 N 
ATOM     23  C   UNL     1      12.260   9.760  22.500  0.00  0.00    +0.231 C 
ATOM     39  H   UNL     1      14.104  10.634  23.023  0.00  0.00    +0.145 HD
ATOM     40  H   UNL     1      12.713  11.471  23.611  0.00  0.00    +0.145 HD
ENDBRANCH  19  23
BRANCH  19  21
ATOM     21  C   UNL     1      14.455   8.559  22.328  0.00  0.00    +0.074 C 
BRANCH  21  24
ATOM      1  S   UNL     1      16.958   8.351  21.185  0.00  0.00    -0.102 S 
ATOM     24  C   UNL     1      15.373   7.787  21.411  0.00  0.00    -0.008 A 
ATOM     27  C   UNL     1      15.087   6.655  20.715  0.00  0.00    +0.011 A 
ATOM     31  C   UNL     1      16.212   6.222  19.958  0.00  0.00    +0.008 A 
ATOM     32  C   UNL     1      17.298   7.053  20.121  0.00  0.00    +0.045 A 
ENDBRANCH  21  24
ENDBRANCH  19  21
ENDBRANCH  10  19
ENDBRANCH  16  18
BRANCH  13   9
ATOM      6  O   UNL     1      14.352  12.626  14.971  0.00  0.00    -0.270 OA
ATOM      9  N   UNL     1      14.638  10.846  16.431  0.00  0.00    -0.302 N 
ATOM     20  C   UNL     1      15.080  11.901  15.644  0.00  0.00    +0.248 C 
ATOM     35  H   UNL     1      15.312  10.246  16.895  0.00  0.00    +0.150 HD
BRANCH  20  22
ATOM     22  C   UNL     1      16.549  12.121  15.620  0.00  0.00    +0.078 A 
ATOM     25  C   UNL     1      17.168  12.746  16.684  0.00  0.00    +0.133 A 
ATOM     26  C   UNL     1      17.251  11.686  14.514  0.00  0.00    +0.018 A 
ATOM     28  C   UNL     1      18.548  12.943  16.640  0.00  0.00    +0.061 A 
ATOM     29  C   UNL     1      18.631  11.884  14.471  0.00  0.00    +0.015 A 
ATOM     30  C   UNL     1      19.279  12.513  15.534  0.00  0.00    +0.011 A 
BRANCH  30   2
ATOM      2  S   UNL     1      21.043  12.765  15.479  0.00  0.00    -0.128 S 
ATOM     34  C   UNL     1      21.568  11.448  14.345  0.00  0.00    +0.090 C 
ENDBRANCH  30   2
BRANCH  25   7
ATOM      7  O   UNL     1      16.469  13.172  17.774  0.00  0.00    -0.494 OA
ATOM     33  C   UNL     1      16.749  12.526  19.014  0.00  0.00    +0.277 C 
ENDBRANCH  25   7
ENDBRANCH  20  22
ENDBRANCH  13   9
BRANCH  12   3
ATOM      3  O   UNL     1      13.782   8.466  15.310  0.00  0.00    -0.387 OA
ATOM     36  H   UNL     1      13.803   8.156  14.390  0.00  0.00    +0.210 HD
ENDBRANCH  12   3
BRANCH  14   4
ATOM      4  O   UNL     1      10.432   9.897  15.643  0.00  0.00    -0.389 OA
ATOM     37  H   UNL     1      10.810  10.671  15.193  0.00  0.00    +0.210 HD
ENDBRANCH  14   4
TORSDOF 11
ENDMDL
MODEL 9
REMARK VINA RESULT:      -6.1      5.243      7.221
REMARK  Name = 11882522
REMARK  13 active torsions:
REMARK  status: ('A' for Active; 'I' for Inactive)
REMARK    1  A    between atoms: S_2  and  C_30
REMARK    2  A    between atoms: S_2  and  C_34
REMARK    3  A    between atoms: O_3  and  C_12
REMARK    4  A    between atoms: O_4  and  C_14
REMARK    5  A    between atoms: O_7  and  C_25
REMARK    6  A    between atoms: O_7  and  C_33
REMARK    7  A    between atoms: N_9  and  C_13
REMARK    8  A    between atoms: N_10  and  C_19
REMARK    9  A    between atoms: C_16  and  C_18
REMARK   10  A    between atoms: C_19  and  C_21
REMARK   11  A    between atoms: C_19  and  C_23
REMARK   12  A    between atoms: C_20  and  C_22
REMARK   13  A    between atoms: C_21  and  C_24
REMARK                            x       y       z     vdW  Elec       q    Type
REMARK                         _______ _______ _______ _____ _____    ______ ____
ROOT
ATOM     12  C   UNL     1      12.713   9.510  15.205  0.00  0.00    +0.167 C 
ATOM     13  C   UNL     1      13.289  10.554  16.181  0.00  0.00    +0.128 C 
ATOM     14  C   UNL     1      11.415   8.894  15.742  0.00  0.00    +0.149 C 
ATOM     15  C   UNL     1      11.603   8.274  17.138  0.00  0.00    +0.074 C 
ATOM     16  C   UNL     1      12.505   9.077  18.031  0.00  0.00    +0.015 C 
ATOM     17  C   UNL     1      13.260  10.106  17.617  0.00  0.00    +0.006 C 
ENDROOT
BRANCH  16  18
ATOM      5  O   UNL     1      12.343   9.580  20.320  0.00  0.00    -0.271 OA
ATOM     10  N   UNL     1      12.856   7.400  19.676  0.00  0.00    -0.300 N 
ATOM     18  C   UNL     1      12.554   8.731  19.454  0.00  0.00    +0.241 C 
ATOM     38  H   UNL     1      13.110   6.794  18.903  0.00  0.00    +0.150 HD
BRANCH  10  19
ATOM     19  C   UNL     1      12.963   6.823  20.998  0.00  0.00    +0.164 C 
BRANCH  19  23
ATOM      8  O   UNL     1      10.936   7.440  22.188  0.00  0.00    -0.274 OA
ATOM     11  N   UNL     1      11.000   5.418  21.099  0.00  0.00    -0.328 N 
ATOM     23  C   UNL     1      11.547   6.614  21.513  0.00  0.00    +0.231 C 
ATOM     39  H   UNL     1      11.514   4.746  20.540  0.00  0.00    +0.145 HD
ATOM     40  H   UNL     1      10.053   5.161  21.361  0.00  0.00    +0.145 HD
ENDBRANCH  19  23
BRANCH  19  21
ATOM     21  C   UNL     1      13.754   7.720  21.958  0.00  0.00    +0.074 C 
BRANCH  21  24
ATOM      1  S   UNL     1      16.036   9.239  21.644  0.00  0.00    -0.102 S 
ATOM     24  C   UNL     1      15.232   7.745  21.650  0.00  0.00    -0.008 A 
ATOM     27  C   UNL     1      16.036   6.686  21.366  0.00  0.00    +0.011 A 
ATOM     31  C   UNL     1      17.375   7.109  21.131  0.00  0.00    +0.008 A 
ATOM     32  C   UNL     1      17.516   8.474  21.249  0.00  0.00    +0.045 A 
ENDBRANCH  21  24
ENDBRANCH  19  21
ENDBRANCH  10  19
ENDBRANCH  16  18
BRANCH  13   9
ATOM      6  O   UNL     1      14.424  13.191  16.242  0.00  0.00    -0.270 OA
ATOM      9  N   UNL     1      14.641  10.918  15.833  0.00  0.00    -0.302 N 
ATOM     20  C   UNL     1      15.100  12.226  15.894  0.00  0.00    +0.248 C 
ATOM     35  H   UNL     1      15.242  10.190  15.459  0.00  0.00    +0.150 HD
BRANCH  20  22
ATOM     22  C   UNL     1      16.510  12.440  15.478  0.00  0.00    +0.078 A 
ATOM     25  C   UNL     1      16.876  12.241  14.162  0.00  0.00    +0.133 A 
ATOM     26  C   UNL     1      17.418  12.834  16.441  0.00  0.00    +0.018 A 
ATOM     28  C   UNL     1      18.205  12.447  13.792  0.00  0.00    +0.061 A 
ATOM     29  C   UNL     1      18.747  13.039  16.070  0.00  0.00    +0.015 A 
ATOM     30  C   UNL     1      19.141  12.845  14.746  0.00  0.00    +0.011 A 
BRANCH  30   2
ATOM      2  S   UNL     1      20.839  13.108  14.274  0.00  0.00    -0.128 S 
ATOM     34  C   UNL     1      20.687  14.485  13.101  0.00  0.00    +0.090 C 
ENDBRANCH  30   2
BRANCH  25   7
ATOM      7  O   UNL     1      15.975  11.853  13.215  0.00  0.00    -0.494 OA
ATOM     33  C   UNL     1      16.335  12.070  11.853  0.00  0.00    +0.277 C 
ENDBRANCH  25   7
ENDBRANCH  20  22
ENDBRANCH  13   9
BRANCH  12   3
ATOM      3  O   UNL     1      13.667   8.465  15.002  0.00  0.00    -0.387 OA
ATOM     36  H   UNL     1      14.504   8.718  15.426  0.00  0.00    +0.210 HD
ENDBRANCH  12   3
BRANCH  14   4
ATOM      4  O   UNL     1      10.383   9.878  15.780  0.00  0.00    -0.389 OA
ATOM     37  H   UNL     1       9.532   9.411  15.818  0.00  0.00    +0.210 HD
ENDBRANCH  14   4
TORSDOF 11
ENDMDL
MODEL 10
REMARK VINA RESULT:      -6.0     28.443     30.690
REMARK  Name = 11882522
REMARK  13 active torsions:
REMARK  status: ('A' for Active; 'I' for Inactive)
REMARK    1  A    between atoms: S_2  and  C_30
REMARK    2  A    between atoms: S_2  and  C_34
REMARK    3  A    between atoms: O_3  and  C_12
REMARK    4  A    between atoms: O_4  and  C_14
REMARK    5  A    between atoms: O_7  and  C_25
REMARK    6  A    between atoms: O_7  and  C_33
REMARK    7  A    between atoms: N_9  and  C_13
REMARK    8  A    between atoms: N_10  and  C_19
REMARK    9  A    between atoms: C_16  and  C_18
REMARK   10  A    between atoms: C_19  and  C_21
REMARK   11  A    between atoms: C_19  and  C_23
REMARK   12  A    between atoms: C_20  and  C_22
REMARK   13  A    between atoms: C_21  and  C_24
REMARK                            x       y       z     vdW  Elec       q    Type
REMARK                         _______ _______ _______ _____ _____    ______ ____
ROOT
ATOM     12  C   UNL     1      -3.432 -12.445  11.793  0.00  0.00    +0.167 C 
ATOM     13  C   UNL     1      -4.711 -11.973  12.511  0.00  0.00    +0.128 C 
ATOM     14  C   UNL     1      -2.536 -13.270  12.725  0.00  0.00    +0.149 C 
ATOM     15  C   UNL     1      -2.176 -12.504  14.010  0.00  0.00    +0.074 C 
ATOM     16  C   UNL     1      -3.311 -11.686  14.554  0.00  0.00    +0.015 C 
ATOM     17  C   UNL     1      -4.456 -11.446  13.897  0.00  0.00    +0.006 C 
ENDROOT
BRANCH  16  18
ATOM      5  O   UNL     1      -2.253 -10.355  16.176  0.00  0.00    -0.271 OA
ATOM     10  N   UNL     1      -4.161 -11.556  16.769  0.00  0.00    -0.300 N 
ATOM     18  C   UNL     1      -3.174 -11.125  15.901  0.00  0.00    +0.241 C 
ATOM     38  H   UNL     1      -4.824 -12.267  16.481  0.00  0.00    +0.150 HD
BRANCH  10  19
ATOM     19  C   UNL     1      -4.233 -11.142  18.153  0.00  0.00    +0.164 C 
BRANCH  19  23
ATOM      8  O   UNL     1      -3.301 -12.299  20.075  0.00  0.00    -0.274 OA
ATOM     11  N   UNL     1      -4.388 -13.533  18.471  0.00  0.00    -0.328 N 
ATOM     23  C   UNL     1      -3.901 -12.358  19.004  0.00  0.00    +0.231 C 
ATOM     39  H   UNL     1      -4.884 -13.567  17.587  0.00  0.00    +0.145 HD
ATOM     40  H   UNL     1      -4.248 -14.417  18.949  0.00  0.00    +0.145 HD
ENDBRANCH  19  23
BRANCH  19  21
ATOM     21  C   UNL     1      -5.617 -10.594  18.521  0.00  0.00    +0.074 C 
BRANCH  21  24
ATOM      1  S   UNL     1      -7.500 -11.984  17.060  0.00  0.00    -0.102 S 
ATOM     24  C   UNL     1      -6.574 -10.592  17.354  0.00  0.00    -0.008 A 
ATOM     27  C   UNL     1      -6.802  -9.583  16.472  0.00  0.00    +0.011 A 
ATOM     31  C   UNL     1      -7.779  -9.958  15.507  0.00  0.00    +0.008 A 
ATOM     32  C   UNL     1      -8.243 -11.239  15.708  0.00  0.00    +0.045 A 
ENDBRANCH  21  24
ENDBRANCH  19  21
ENDBRANCH  10  19
ENDBRANCH  16  18
BRANCH  13   9
ATOM      6  O   UNL     1      -6.936 -12.390  10.745  0.00  0.00    -0.270 OA
ATOM      9  N   UNL     1      -5.408 -10.965  11.750  0.00  0.00    -0.302 N 
ATOM     20  C   UNL     1      -6.478 -11.264  10.919  0.00  0.00    +0.248 C 
ATOM     35  H   UNL     1      -5.039 -10.019  11.777  0.00  0.00    +0.150 HD
BRANCH  20  22
ATOM     22  C   UNL     1      -7.069 -10.117  10.183  0.00  0.00    +0.078 A 
ATOM     25  C   UNL     1      -6.320  -9.447   9.237  0.00  0.00    +0.133 A 
ATOM     26  C   UNL     1      -8.369  -9.758  10.480  0.00  0.00    +0.018 A 
ATOM     28  C   UNL     1      -6.895  -8.372   8.559  0.00  0.00    +0.061 A 
ATOM     29  C   UNL     1      -8.943  -8.683   9.801  0.00  0.00    +0.015 A 
ATOM     30  C   UNL     1      -8.206  -7.990   8.841  0.00  0.00    +0.011 A 
BRANCH  30   2
ATOM      2  S   UNL     1      -8.941  -6.617   7.973  0.00  0.00    -0.128 S 
ATOM     34  C   UNL     1     -10.343  -6.207   9.052  0.00  0.00    +0.090 C 
ENDBRANCH  30   2
BRANCH  25   7
ATOM      7  O   UNL     1      -5.038  -9.806   8.947  0.00  0.00    -0.494 OA
ATOM     33  C   UNL     1      -4.016  -8.863   9.259  0.00  0.00    +0.277 C 
ENDBRANCH  25   7
ENDBRANCH  20  22
ENDBRANCH  13   9
BRANCH  12   3
ATOM      3  O   UNL     1      -2.694 -11.310  11.334  0.00  0.00    -0.387 OA
ATOM     36  H   UNL     1      -3.036 -11.044  10.464  0.00  0.00    +0.210 HD
ENDBRANCH  12   3
BRANCH  14   4
ATOM      4  O   UNL     1      -3.173 -14.503  13.053  0.00  0.00    -0.389 OA
ATOM     37  H   UNL     1      -3.385 -14.956  12.220  0.00  0.00    +0.210 HD
ENDBRANCH  14   4
TORSDOF 11
ENDMDL
