REMARK  Name = 45783436
REMARK  11 active torsions:
REMARK  status: ('A' for Active; 'I' for Inactive)
REMARK    1  A    between atoms: O_2  and  C_26
REMARK    2  A    between atoms: O_2  and  C_29
REMARK    3  A    between atoms: O_3  and  C_25
REMARK    4  A    between atoms: O_5  and  C_30
REMARK    5  A    between atoms: O_5  and  C_31
REMARK    6  A    between atoms: N_6  and  C_14
REMARK    7  A    between atoms: C_10  and  C_15
REMARK    8  A    between atoms: C_14  and  C_16
REMARK    9  A    between atoms: C_19  and  C_23
REMARK   10  A    between atoms: C_22  and  C_25
REMARK   11  A    between atoms: C_29  and  C_30
REMARK                            x       y       z     vdW  Elec       q    Type
REMARK                         _______ _______ _______ _____ _____    ______ ____
ROOT
ATOM      6  N   UNL     1      -3.624   0.372  -1.368  0.00  0.00    -0.287 NA
ATOM     10  C   UNL     1      -3.909  -0.605  -0.298  0.00  0.00    +0.146 C 
ATOM     11  C   UNL     1      -4.662  -1.748  -1.003  0.00  0.00    +0.030 C 
ATOM     12  C   UNL     1      -4.807  -1.297  -2.449  0.00  0.00    +0.017 C 
ATOM     13  C   UNL     1      -4.681   0.211  -2.367  0.00  0.00    +0.085 C 
ENDROOT
BRANCH  10  15
ATOM      1  O   UNL     1      -2.801  -1.484   1.696  0.00  0.00    -0.336 OA
ATOM      7  N   UNL     1      -1.428  -1.157  -0.044  0.00  0.00    -0.189 NA
ATOM      8  N   UNL     1      -1.526  -1.869   2.128  0.00  0.00    -0.054 NA
ATOM     15  C   UNL     1      -2.655  -1.079   0.407  0.00  0.00    +0.245 A 
ATOM     19  C   UNL     1      -0.772  -1.647   1.047  0.00  0.00    +0.221 A 
BRANCH  19  23
ATOM      9  N   UNL     1       1.164  -2.390   2.172  0.00  0.00    -0.252 NA
ATOM     23  C   UNL     1       0.639  -1.906   1.024  0.00  0.00    +0.115 A 
ATOM     24  C   UNL     1       1.376  -1.661  -0.123  0.00  0.00    +0.077 A 
ATOM     26  C   UNL     1       2.740  -1.929  -0.090  0.00  0.00    +0.124 A 
ATOM     27  C   UNL     1       2.493  -2.639   2.166  0.00  0.00    +0.115 A 
ATOM     28  C   UNL     1       3.317  -2.428   1.072  0.00  0.00    +0.065 A 
BRANCH  26   2
ATOM      2  O   UNL     1       3.507  -1.705  -1.191  0.00  0.00    -0.490 OA
BRANCH   2  29
ATOM     29  C   UNL     1       3.098  -0.654  -2.065  0.00  0.00    +0.257 C 
BRANCH  29  30
ATOM     30  C   UNL     1       4.325  -0.047  -2.718  0.00  0.00    +0.200 C 
BRANCH  30   5
ATOM      5  O   UNL     1       5.171   0.489  -1.707  0.00  0.00    -0.380 OA
ATOM     31  C   UNL     1       6.351   1.053  -2.261  0.00  0.00    +0.194 C 
ENDBRANCH  30   5
ENDBRANCH  29  30
ENDBRANCH   2  29
ENDBRANCH  26   2
ENDBRANCH  19  23
ENDBRANCH  10  15
BRANCH   6  14
ATOM     14  C   UNL     1      -3.532   1.743  -0.883  0.00  0.00    +0.120 C 
BRANCH  14  16
ATOM     16  C   UNL     1      -2.194   2.027  -0.254  0.00  0.00    -0.033 A 
ATOM     17  C   UNL     1      -2.124   2.449   1.074  0.00  0.00    +0.006 A 
ATOM     18  C   UNL     1      -1.024   1.867  -0.997  0.00  0.00    +0.006 A 
ATOM     20  C   UNL     1      -0.885   2.711   1.658  0.00  0.00    +0.015 A 
ATOM     21  C   UNL     1       0.215   2.130  -0.413  0.00  0.00    +0.015 A 
ATOM     22  C   UNL     1       0.285   2.552   0.914  0.00  0.00    +0.059 A 
BRANCH  22  25
ATOM      4  O   UNL     1       1.756   3.201   2.686  0.00  0.00    -0.245 OA
ATOM     25  C   UNL     1       1.577   2.825   1.523  0.00  0.00    +0.337 C 
BRANCH  25   3
ATOM      3  O   UNL     1       2.611   2.620   0.662  0.00  0.00    -0.477 OA
ATOM     32  H   UNL     1       3.478   2.805   1.082  0.00  0.00    +0.295 HD
ENDBRANCH  25   3
ENDBRANCH  22  25
ENDBRANCH  14  16
ENDBRANCH   6  14
TORSDOF 10
