REMARK  Name = 11886303
REMARK  8 active torsions:
REMARK  status: ('A' for Active; 'I' for Inactive)
REMARK    1  A    between atoms: O_3  and  C_20
REMARK    2  A    between atoms: O_3  and  C_24
REMARK    3  A    between atoms: O_7  and  C_25
REMARK    4  A    between atoms: N_9  and  C_16
REMARK    5  A    between atoms: N_10  and  C_17
REMARK    6  A    between atoms: C_21  and  C_22
REMARK    7  A    between atoms: C_22  and  C_23
REMARK    8  A    between atoms: C_23  and  C_25
REMARK                            x       y       z     vdW  Elec       q    Type
REMARK                         _______ _______ _______ _____ _____    ______ ____
ROOT
ATOM      1  O   UNL     1      -1.560  -2.792   0.459  0.00  0.00    -0.370 OA
ATOM      2  O   UNL     1      -1.587  -0.522  -1.717  0.00  0.00    -0.370 OA
ATOM     14  C   UNL     1      -1.150  -0.587  -0.347  0.00  0.00    +0.176 C 
ATOM     15  C   UNL     1      -2.129  -1.476   0.394  0.00  0.00    +0.171 C 
ATOM     16  C   UNL     1       0.175  -1.319  -0.263  0.00  0.00    +0.171 C 
ATOM     17  C   UNL     1      -3.364  -1.482  -0.479  0.00  0.00    +0.130 C 
ATOM     18  C   UNL     1      -0.247  -2.777  -0.119  0.00  0.00    +0.190 C 
ATOM     19  C   UNL     1      -2.779  -1.307  -1.868  0.00  0.00    +0.185 C 
ENDROOT
BRANCH  16   9
ATOM      9  N   UNL     1       1.030  -0.812   0.813  0.00  0.00    -0.187 N 
ATOM     11  N   UNL     1       0.617  -0.815   2.088  0.00  0.00    -0.041 NA
ATOM     12  N   UNL     1       2.672   0.037   1.947  0.00  0.00    -0.071 NA
ATOM     13  N   UNL     1       1.625  -0.295   2.777  0.00  0.00    -0.020 NA
ATOM     20  C   UNL     1       2.283  -0.291   0.737  0.00  0.00    +0.342 A 
BRANCH  20   3
ATOM      3  O   UNL     1       2.973  -0.148  -0.379  0.00  0.00    -0.423 OA
BRANCH   3  24
ATOM      5  O   UNL     1       7.800  -0.511  -0.183  0.00  0.00    -0.452 OA
ATOM      6  O   UNL     1       8.082   1.866  -0.463  0.00  0.00    -0.453 OA
ATOM     24  C   UNL     1       4.251   0.393  -0.404  0.00  0.00    +0.136 A 
ATOM     26  C   UNL     1       5.361  -0.444  -0.269  0.00  0.00    +0.096 A 
ATOM     27  C   UNL     1       4.415   1.779  -0.567  0.00  0.00    +0.050 A 
ATOM     28  C   UNL     1       6.611   0.140  -0.300  0.00  0.00    +0.170 A 
ATOM     29  C   UNL     1       6.772   1.498  -0.460  0.00  0.00    +0.166 A 
ATOM     30  C   UNL     1       5.692   2.346  -0.596  0.00  0.00    +0.053 A 
ATOM     31  C   UNL     1       8.728   0.588  -0.288  0.00  0.00    +0.466 C 
ENDBRANCH   3  24
ENDBRANCH  20   3
ENDBRANCH  16   9
BRANCH  17  10
ATOM      4  O   UNL     1      -6.223  -1.348  -0.906  0.00  0.00    -0.276 OA
ATOM     10  N   UNL     1      -4.247  -0.391  -0.143  0.00  0.00    -0.308 N 
ATOM     21  C   UNL     1      -5.614  -0.416  -0.387  0.00  0.00    +0.214 C 
ATOM     32  H   UNL     1      -3.836   0.455   0.243  0.00  0.00    +0.149 HD
BRANCH  21  22
ATOM     22  C   UNL     1      -6.288   0.866   0.068  0.00  0.00    +0.107 C 
BRANCH  22  23
ATOM     23  C   UNL     1      -7.791   0.859  -0.191  0.00  0.00    +0.129 C 
BRANCH  23  25
ATOM      8  O   UNL     1      -7.876   3.085   0.789  0.00  0.00    -0.251 OA
ATOM     25  C   UNL     1      -8.448   2.143   0.259  0.00  0.00    +0.305 C 
BRANCH  25   7
ATOM      7  O   UNL     1      -9.782   2.135  -0.001  0.00  0.00    -0.481 OA
ATOM     33  H   UNL     1     -10.215   2.966   0.288  0.00  0.00    +0.295 HD
ENDBRANCH  25   7
ENDBRANCH  23  25
ENDBRANCH  22  23
ENDBRANCH  21  22
ENDBRANCH  17  10
TORSDOF 8
