REMARK  Name = 56774198
REMARK  8 active torsions:
REMARK  status: ('A' for Active; 'I' for Inactive)
REMARK    1  A    between atoms: O_2  and  C_20
REMARK    2  A    between atoms: O_2  and  C_21
REMARK    3  A    between atoms: N_3  and  C_7
REMARK    4  A    between atoms: C_5  and  C_10
REMARK    5  A    between atoms: C_5  and  C_11
REMARK    6  A    between atoms: C_6  and  C_9
REMARK    7  A    between atoms: C_9  and  C_12
REMARK    8  A    between atoms: C_14  and  C_15
REMARK                            x       y       z     vdW  Elec       q    Type
REMARK                         _______ _______ _______ _____ _____    ______ ____
ROOT
ATOM      1  O   UNL     1      -0.568  -1.688   0.264  0.00  0.00    -0.354 OA
ATOM      4  N   UNL     1       0.800  -1.701   0.507  0.00  0.00    -0.083 NA
ATOM     12  C   UNL     1       1.117  -0.428   0.763  0.00  0.00    +0.084 A 
ATOM     13  C   UNL     1       0.001   0.424   0.696  0.00  0.00    +0.076 A 
ATOM     14  C   UNL     1      -1.032  -0.418   0.379  0.00  0.00    +0.167 A 
ENDROOT
BRANCH  14  15
ATOM     15  C   UNL     1      -2.447  -0.245   0.154  0.00  0.00    +0.020 A 
ATOM     16  C   UNL     1      -3.019   1.023   0.252  0.00  0.00    +0.015 A 
ATOM     17  C   UNL     1      -3.242  -1.347  -0.163  0.00  0.00    +0.015 A 
ATOM     18  C   UNL     1      -4.387   1.190   0.034  0.00  0.00    +0.046 A 
ATOM     19  C   UNL     1      -4.609  -1.180  -0.381  0.00  0.00    +0.046 A 
ATOM     20  C   UNL     1      -5.182   0.088  -0.282  0.00  0.00    +0.120 A 
BRANCH  20   2
ATOM      2  O   UNL     1      -6.516   0.251  -0.498  0.00  0.00    -0.495 OA
ATOM     21  C   UNL     1      -7.035   1.575  -0.384  0.00  0.00    +0.277 C 
ENDBRANCH  20   2
ENDBRANCH  14  15
BRANCH  12   9
ATOM      9  C   UNL     1       2.510  -0.066   1.070  0.00  0.00    +0.063 C 
BRANCH   9   6
ATOM      5  C   UNL     1       4.701   0.873  -0.031  0.00  0.00    -0.016 C 
ATOM      6  C   UNL     1       3.284   0.288  -0.207  0.00  0.00    +0.003 C 
ATOM      7  C   UNL     1       5.116   0.034  -1.258  0.00  0.00    +0.057 C 
ATOM      8  C   UNL     1       3.950  -0.914  -0.908  0.00  0.00    +0.023 C 
ATOM     10  C   UNL     1       4.833   2.365  -0.286  0.00  0.00    +0.013 C 
ATOM     11  C   UNL     1       5.341   0.536   1.299  0.00  0.00    +0.013 C 
BRANCH   7   3
ATOM      3  N   UNL     1       6.382  -0.661  -1.020  0.00  0.00    -0.327 NA
ATOM     22  H   UNL     1       6.569  -1.406  -1.690  0.00  0.00    +0.118 HD
ATOM     23  H   UNL     1       7.195  -0.047  -1.050  0.00  0.00    +0.118 HD
ENDBRANCH   7   3
ENDBRANCH   9   6
ENDBRANCH  12   9
TORSDOF 5
