MODEL 1
REMARK VINA RESULT:      -7.2      0.000      0.000
REMARK  Name = 11883362
REMARK  6 active torsions:
REMARK  status: ('A' for Active; 'I' for Inactive)
REMARK    1  A    between atoms: S_1  and  N_8
REMARK    2  A    between atoms: S_1  and  C_24
REMARK    3  A    between atoms: O_4  and  C_14
REMARK    4  A    between atoms: O_4  and  C_23
REMARK    5  A    between atoms: N_8  and  C_13
REMARK    6  A    between atoms: N_9  and  C_17
REMARK                            x       y       z     vdW  Elec       q    Type
REMARK                         _______ _______ _______ _____ _____    ______ ____
ROOT
ATOM      2  O   UNL     1      19.676   6.525  20.397  0.00  0.00    -0.369 OA
ATOM      3  O   UNL     1      19.474   8.576  22.680  0.00  0.00    -0.368 OA
ATOM     11  C   UNL     1      19.615   7.140  22.688  0.00  0.00    +0.171 C 
ATOM     12  C   UNL     1      18.793   6.612  21.527  0.00  0.00    +0.191 C 
ATOM     13  C   UNL     1      21.031   6.760  22.335  0.00  0.00    +0.133 C 
ATOM     14  C   UNL     1      17.752   7.690  21.345  0.00  0.00    +0.235 C 
ATOM     15  C   UNL     1      21.020   6.796  20.819  0.00  0.00    +0.183 C 
ATOM     16  C   UNL     1      18.534   8.945  21.660  0.00  0.00    +0.207 C 
ENDROOT
BRANCH  13   8
ATOM      8  N   UNL     1      21.317   5.383  22.801  0.00  0.00    -0.182 NA
ATOM     33  H   UNL     1      20.628   4.653  22.585  0.00  0.00    +0.148 HD
BRANCH   8   1
ATOM      1  S   UNL     1      22.512   5.122  23.979  0.00  0.00    +0.061 S 
ATOM      5  O   UNL     1      21.884   4.961  25.277  0.00  0.00    -0.153 OA
ATOM      6  O   UNL     1      23.568   6.099  23.796  0.00  0.00    -0.153 OA
BRANCH   1  24
ATOM     10  N   UNL     1      23.746   4.416  21.359  0.00  0.00    -0.253 NA
ATOM     24  C   UNL     1      23.168   3.555  23.493  0.00  0.00    +0.131 A 
ATOM     25  C   UNL     1      23.712   3.389  22.229  0.00  0.00    +0.097 A 
ATOM     26  C   UNL     1      23.112   2.522  24.424  0.00  0.00    +0.031 A 
ATOM     27  C   UNL     1      24.220   2.115  21.898  0.00  0.00    +0.002 A 
ATOM     28  C   UNL     1      23.614   1.270  24.091  0.00  0.00    +0.003 A 
ATOM     29  C   UNL     1      24.168   1.066  22.830  0.00  0.00    +0.010 A 
ATOM     30  C   UNL     1      24.771   1.937  20.621  0.00  0.00    +0.011 A 
ATOM     31  C   UNL     1      24.287   4.202  20.137  0.00  0.00    +0.111 A 
ATOM     32  C   UNL     1      24.808   2.993  19.723  0.00  0.00    +0.020 A 
ENDBRANCH   1  24
ENDBRANCH   8   1
ENDBRANCH  13   8
BRANCH  14   4
ATOM      4  O   UNL     1      17.197   7.722  20.049  0.00  0.00    -0.442 OA
BRANCH   4  23
ATOM      7  O   UNL     1      16.156   5.847  19.229  0.00  0.00    -0.226 OA
ATOM      9  N   UNL     1      14.966   7.488  20.359  0.00  0.00    -0.278 N 
ATOM     23  C   UNL     1      16.104   6.917  19.825  0.00  0.00    +0.401 C 
ATOM     34  H   UNL     1      15.060   8.403  20.786  0.00  0.00    +0.152 HD
BRANCH   9  17
ATOM     17  C   UNL     1      13.655   6.882  20.285  0.00  0.00    +0.076 C 
ATOM     18  C   UNL     1      12.811   7.246  21.511  0.00  0.00    +0.022 C 
ATOM     19  C   UNL     1      12.942   7.268  18.984  0.00  0.00    +0.022 C 
ATOM     20  C   UNL     1      12.361   8.708  21.497  0.00  0.00    +0.002 C 
ATOM     21  C   UNL     1      12.492   8.729  18.976  0.00  0.00    +0.002 C 
ATOM     22  C   UNL     1      11.645   9.065  20.199  0.00  0.00    +0.000 C 
ENDBRANCH   9  17
ENDBRANCH   4  23
ENDBRANCH  14   4
TORSDOF 6
ENDMDL
MODEL 2
REMARK VINA RESULT:      -7.2     28.436     31.809
REMARK  Name = 11883362
REMARK  6 active torsions:
REMARK  status: ('A' for Active; 'I' for Inactive)
REMARK    1  A    between atoms: S_1  and  N_8
REMARK    2  A    between atoms: S_1  and  C_24
REMARK    3  A    between atoms: O_4  and  C_14
REMARK    4  A    between atoms: O_4  and  C_23
REMARK    5  A    between atoms: N_8  and  C_13
REMARK    6  A    between atoms: N_9  and  C_17
REMARK                            x       y       z     vdW  Elec       q    Type
REMARK                         _______ _______ _______ _____ _____    ______ ____
ROOT
ATOM      2  O   UNL     1      -4.130 -11.952  14.527  0.00  0.00    -0.369 OA
ATOM      3  O   UNL     1      -2.012 -10.896  16.493  0.00  0.00    -0.368 OA
ATOM     11  C   UNL     1      -3.366 -10.477  16.222  0.00  0.00    +0.171 C 
ATOM     12  C   UNL     1      -3.586 -10.637  14.730  0.00  0.00    +0.191 C 
ATOM     13  C   UNL     1      -4.340 -11.450  16.841  0.00  0.00    +0.133 C 
ATOM     14  C   UNL     1      -2.186 -10.518  14.178  0.00  0.00    +0.235 C 
ATOM     15  C   UNL     1      -4.424 -12.549  15.799  0.00  0.00    +0.183 C 
ATOM     16  C   UNL     1      -1.362 -11.195  15.249  0.00  0.00    +0.207 C 
ENDROOT
BRANCH  13   8
ATOM      8  N   UNL     1      -5.666 -10.808  17.000  0.00  0.00    -0.182 NA
ATOM     33  H   UNL     1      -5.838  -9.936  16.486  0.00  0.00    +0.148 HD
BRANCH   8   1
ATOM      1  S   UNL     1      -6.680 -11.272  18.280  0.00  0.00    +0.061 S 
ATOM      5  O   UNL     1      -6.083 -10.869  19.539  0.00  0.00    -0.153 OA
ATOM      6  O   UNL     1      -7.091 -12.647  18.074  0.00  0.00    -0.153 OA
BRANCH   1  24
ATOM     10  N   UNL     1      -9.343 -11.502  19.600  0.00  0.00    -0.253 NA
ATOM     24  C   UNL     1      -8.103 -10.260  18.003  0.00  0.00    +0.131 A 
ATOM     25  C   UNL     1      -9.274 -10.499  18.704  0.00  0.00    +0.097 A 
ATOM     26  C   UNL     1      -7.987  -9.237  17.068  0.00  0.00    +0.031 A 
ATOM     27  C   UNL     1     -10.377  -9.660  18.440  0.00  0.00    +0.002 A 
ATOM     28  C   UNL     1      -9.076  -8.414  16.813  0.00  0.00    +0.003 A 
ATOM     29  C   UNL     1     -10.270  -8.623  17.498  0.00  0.00    +0.010 A 
ATOM     30  C   UNL     1     -11.568  -9.894  19.142  0.00  0.00    +0.011 A 
ATOM     31  C   UNL     1     -10.510 -11.694  20.258  0.00  0.00    +0.111 A 
ATOM     32  C   UNL     1     -11.641 -10.926  20.067  0.00  0.00    +0.020 A 
ENDBRANCH   1  24
ENDBRANCH   8   1
ENDBRANCH  13   8
BRANCH  14   4
ATOM      4  O   UNL     1      -2.025 -11.130  12.918  0.00  0.00    -0.442 OA
BRANCH   4  23
ATOM      7  O   UNL     1      -1.198  -9.517  11.509  0.00  0.00    -0.226 OA
ATOM      9  N   UNL     1      -3.267 -10.498  11.133  0.00  0.00    -0.278 N 
ATOM     23  C   UNL     1      -2.084 -10.306  11.818  0.00  0.00    +0.401 C 
ATOM     34  H   UNL     1      -3.934 -11.152  11.528  0.00  0.00    +0.152 HD
BRANCH   9  17
ATOM     17  C   UNL     1      -3.624  -9.777   9.931  0.00  0.00    +0.076 C 
ATOM     18  C   UNL     1      -4.369 -10.684   8.947  0.00  0.00    +0.022 C 
ATOM     19  C   UNL     1      -4.443  -8.524  10.262  0.00  0.00    +0.022 C 
ATOM     20  C   UNL     1      -5.787 -11.015   9.414  0.00  0.00    +0.002 C 
ATOM     21  C   UNL     1      -5.860  -8.859  10.727  0.00  0.00    +0.002 C 
ATOM     22  C   UNL     1      -6.585  -9.754   9.727  0.00  0.00    +0.000 C 
ENDBRANCH   9  17
ENDBRANCH   4  23
ENDBRANCH  14   4
TORSDOF 6
ENDMDL
MODEL 3
REMARK VINA RESULT:      -7.1     29.678     31.634
REMARK  Name = 11883362
REMARK  6 active torsions:
REMARK  status: ('A' for Active; 'I' for Inactive)
REMARK    1  A    between atoms: S_1  and  N_8
REMARK    2  A    between atoms: S_1  and  C_24
REMARK    3  A    between atoms: O_4  and  C_14
REMARK    4  A    between atoms: O_4  and  C_23
REMARK    5  A    between atoms: N_8  and  C_13
REMARK    6  A    between atoms: N_9  and  C_17
REMARK                            x       y       z     vdW  Elec       q    Type
REMARK                         _______ _______ _______ _____ _____    ______ ____
ROOT
ATOM      2  O   UNL     1      -6.186 -10.294  17.528  0.00  0.00    -0.369 OA
ATOM      3  O   UNL     1      -4.421 -12.324  19.019  0.00  0.00    -0.368 OA
ATOM     11  C   UNL     1      -5.078 -12.382  17.735  0.00  0.00    +0.171 C 
ATOM     12  C   UNL     1      -6.406 -11.667  17.888  0.00  0.00    +0.191 C 
ATOM     13  C   UNL     1      -4.325 -11.541  16.734  0.00  0.00    +0.133 C 
ATOM     14  C   UNL     1      -6.693 -11.820  19.363  0.00  0.00    +0.235 C 
ATOM     15  C   UNL     1      -4.861 -10.146  16.996  0.00  0.00    +0.183 C 
ATOM     16  C   UNL     1      -5.311 -11.719  19.968  0.00  0.00    +0.207 C 
ENDROOT
BRANCH  13   8
ATOM      8  N   UNL     1      -4.673 -11.960  15.356  0.00  0.00    -0.182 NA
ATOM     33  H   UNL     1      -5.319 -12.751  15.247  0.00  0.00    +0.148 HD
BRANCH   8   1
ATOM      1  S   UNL     1      -3.730 -11.428  14.048  0.00  0.00    +0.061 S 
ATOM      5  O   UNL     1      -3.328 -12.568  13.246  0.00  0.00    -0.153 OA
ATOM      6  O   UNL     1      -2.735 -10.495  14.541  0.00  0.00    -0.153 OA
BRANCH   1  24
ATOM     10  N   UNL     1      -3.292 -10.110  11.411  0.00  0.00    -0.253 NA
ATOM     24  C   UNL     1      -4.900 -10.488  13.114  0.00  0.00    +0.131 A 
ATOM     25  C   UNL     1      -4.537  -9.937  11.895  0.00  0.00    +0.097 A 
ATOM     26  C   UNL     1      -6.173 -10.336  13.653  0.00  0.00    +0.031 A 
ATOM     27  C   UNL     1      -5.512  -9.198  11.195  0.00  0.00    +0.002 A 
ATOM     28  C   UNL     1      -7.129  -9.606  12.958  0.00  0.00    +0.003 A 
ATOM     29  C   UNL     1      -6.801  -9.037  11.731  0.00  0.00    +0.010 A 
ATOM     30  C   UNL     1      -5.155  -8.635   9.962  0.00  0.00    +0.011 A 
ATOM     31  C   UNL     1      -2.987  -9.551  10.216  0.00  0.00    +0.111 A 
ATOM     32  C   UNL     1      -3.873  -8.811   9.460  0.00  0.00    +0.020 A 
ENDBRANCH   1  24
ENDBRANCH   8   1
ENDBRANCH  13   8
BRANCH  14   4
ATOM      4  O   UNL     1      -7.568 -10.838  19.870  0.00  0.00    -0.442 OA
BRANCH   4  23
ATOM      7  O   UNL     1      -9.683 -11.731  19.890  0.00  0.00    -0.226 OA
ATOM      9  N   UNL     1      -9.147  -9.936  18.521  0.00  0.00    -0.278 N 
ATOM     23  C   UNL     1      -8.880 -10.908  19.463  0.00  0.00    +0.401 C 
ATOM     34  H   UNL     1      -8.374  -9.350  18.223  0.00  0.00    +0.152 HD
BRANCH   9  17
ATOM     17  C   UNL     1     -10.440  -9.753  17.900  0.00  0.00    +0.076 C 
ATOM     18  C   UNL     1     -10.689  -8.278  17.570  0.00  0.00    +0.022 C 
ATOM     19  C   UNL     1     -10.582 -10.634  16.653  0.00  0.00    +0.022 C 
ATOM     20  C   UNL     1      -9.832  -7.788  16.402  0.00  0.00    +0.002 C 
ATOM     21  C   UNL     1      -9.725 -10.139  15.488  0.00  0.00    +0.002 C 
ATOM     22  C   UNL     1      -9.998  -8.672  15.171  0.00  0.00    +0.000 C 
ENDBRANCH   9  17
ENDBRANCH   4  23
ENDBRANCH  14   4
TORSDOF 6
ENDMDL
MODEL 4
REMARK VINA RESULT:      -6.9     16.969     20.111
REMARK  Name = 11883362
REMARK  6 active torsions:
REMARK  status: ('A' for Active; 'I' for Inactive)
REMARK    1  A    between atoms: S_1  and  N_8
REMARK    2  A    between atoms: S_1  and  C_24
REMARK    3  A    between atoms: O_4  and  C_14
REMARK    4  A    between atoms: O_4  and  C_23
REMARK    5  A    between atoms: N_8  and  C_13
REMARK    6  A    between atoms: N_9  and  C_17
REMARK                            x       y       z     vdW  Elec       q    Type
REMARK                         _______ _______ _______ _____ _____    ______ ____
ROOT
ATOM      2  O   UNL     1      12.983   8.876   4.694  0.00  0.00    -0.369 OA
ATOM      3  O   UNL     1      15.794   7.676   5.044  0.00  0.00    -0.368 OA
ATOM     11  C   UNL     1      14.782   7.475   4.036  0.00  0.00    +0.171 C 
ATOM     12  C   UNL     1      13.442   7.515   4.744  0.00  0.00    +0.191 C 
ATOM     13  C   UNL     1      14.738   8.662   3.106  0.00  0.00    +0.133 C 
ATOM     14  C   UNL     1      13.801   7.095   6.150  0.00  0.00    +0.235 C 
ATOM     15  C   UNL     1      13.859   9.644   3.856  0.00  0.00    +0.183 C 
ATOM     16  C   UNL     1      15.163   7.726   6.331  0.00  0.00    +0.207 C 
ENDROOT
BRANCH  13   8
ATOM      8  N   UNL     1      14.088   8.282   1.829  0.00  0.00    -0.182 NA
ATOM     33  H   UNL     1      13.077   8.435   1.745  0.00  0.00    +0.148 HD
BRANCH   8   1
ATOM      1  S   UNL     1      14.904   7.272   0.735  0.00  0.00    +0.061 S 
ATOM      5  O   UNL     1      16.299   7.172   1.117  0.00  0.00    -0.153 OA
ATOM      6  O   UNL     1      14.542   7.660  -0.615  0.00  0.00    -0.153 OA
BRANCH   1  24
ATOM     10  N   UNL     1      11.990   6.642   0.680  0.00  0.00    -0.253 NA
ATOM     24  C   UNL     1      14.140   5.708   1.044  0.00  0.00    +0.131 A 
ATOM     25  C   UNL     1      12.762   5.580   0.979  0.00  0.00    +0.097 A 
ATOM     26  C   UNL     1      14.976   4.638   1.349  0.00  0.00    +0.031 A 
ATOM     27  C   UNL     1      12.210   4.308   1.236  0.00  0.00    +0.002 A 
ATOM     28  C   UNL     1      14.426   3.388   1.601  0.00  0.00    +0.003 A 
ATOM     29  C   UNL     1      13.045   3.221   1.544  0.00  0.00    +0.010 A 
ATOM     30  C   UNL     1      10.816   4.168   1.173  0.00  0.00    +0.011 A 
ATOM     31  C   UNL     1      10.649   6.465   0.629  0.00  0.00    +0.111 A 
ATOM     32  C   UNL     1      10.019   5.261   0.865  0.00  0.00    +0.020 A 
ENDBRANCH   1  24
ENDBRANCH   8   1
ENDBRANCH  13   8
BRANCH  14   4
ATOM      4  O   UNL     1      12.878   7.534   7.120  0.00  0.00    -0.442 OA
BRANCH   4  23
ATOM      7  O   UNL     1      11.644   5.813   8.006  0.00  0.00    -0.226 OA
ATOM      9  N   UNL     1      10.722   7.291   6.473  0.00  0.00    -0.278 N 
ATOM     23  C   UNL     1      11.732   6.788   7.267  0.00  0.00    +0.401 C 
ATOM     34  H   UNL     1      10.947   8.078   5.874  0.00  0.00    +0.152 HD
BRANCH   9  17
ATOM     17  C   UNL     1       9.394   6.723   6.408  0.00  0.00    +0.076 C 
ATOM     18  C   UNL     1       8.328   7.773   6.737  0.00  0.00    +0.022 C 
ATOM     19  C   UNL     1       9.137   6.079   5.041  0.00  0.00    +0.022 C 
ATOM     20  C   UNL     1       8.162   8.807   5.622  0.00  0.00    +0.002 C 
ATOM     21  C   UNL     1       8.969   7.115   3.930  0.00  0.00    +0.002 C 
ATOM     22  C   UNL     1       7.896   8.144   4.274  0.00  0.00    +0.000 C 
ENDBRANCH   9  17
ENDBRANCH   4  23
ENDBRANCH  14   4
TORSDOF 6
ENDMDL
MODEL 5
REMARK VINA RESULT:      -6.8     29.417     32.335
REMARK  Name = 11883362
REMARK  6 active torsions:
REMARK  status: ('A' for Active; 'I' for Inactive)
REMARK    1  A    between atoms: S_1  and  N_8
REMARK    2  A    between atoms: S_1  and  C_24
REMARK    3  A    between atoms: O_4  and  C_14
REMARK    4  A    between atoms: O_4  and  C_23
REMARK    5  A    between atoms: N_8  and  C_13
REMARK    6  A    between atoms: N_9  and  C_17
REMARK                            x       y       z     vdW  Elec       q    Type
REMARK                         _______ _______ _______ _____ _____    ______ ____
ROOT
ATOM      2  O   UNL     1      -5.506 -12.669  15.372  0.00  0.00    -0.369 OA
ATOM      3  O   UNL     1      -3.683 -10.909  17.116  0.00  0.00    -0.368 OA
ATOM     11  C   UNL     1      -5.117 -10.945  16.957  0.00  0.00    +0.171 C 
ATOM     12  C   UNL     1      -5.389 -11.242  15.495  0.00  0.00    +0.191 C 
ATOM     13  C   UNL     1      -5.685 -12.140  17.682  0.00  0.00    +0.133 C 
ATOM     14  C   UNL     1      -4.143 -10.721  14.817  0.00  0.00    +0.235 C 
ATOM     15  C   UNL     1      -5.500 -13.262  16.679  0.00  0.00    +0.183 C 
ATOM     16  C   UNL     1      -3.069 -11.054  15.828  0.00  0.00    +0.207 C 
ENDROOT
BRANCH  13   8
ATOM      8  N   UNL     1      -7.129 -11.934  17.943  0.00  0.00    -0.182 NA
ATOM     33  H   UNL     1      -7.728 -11.691  17.145  0.00  0.00    +0.148 HD
BRANCH   8   1
ATOM      1  S   UNL     1      -7.676 -11.708  19.534  0.00  0.00    +0.061 S 
ATOM      5  O   UNL     1      -6.863 -10.698  20.185  0.00  0.00    -0.153 OA
ATOM      6  O   UNL     1      -7.861 -13.007  20.153  0.00  0.00    -0.153 OA
BRANCH   1  24
ATOM     10  N   UNL     1      -8.437  -9.550  17.623  0.00  0.00    -0.253 NA
ATOM     24  C   UNL     1      -9.286 -11.027  19.273  0.00  0.00    +0.131 A 
ATOM     25  C   UNL     1      -9.475 -10.020  18.340  0.00  0.00    +0.097 A 
ATOM     26  C   UNL     1     -10.329 -11.544  20.036  0.00  0.00    +0.031 A 
ATOM     27  C   UNL     1     -10.782  -9.517  18.176  0.00  0.00    +0.002 A 
ATOM     28  C   UNL     1     -11.614 -11.043  19.869  0.00  0.00    +0.003 A 
ATOM     29  C   UNL     1     -11.842 -10.031  18.941  0.00  0.00    +0.010 A 
ATOM     30  C   UNL     1     -10.983  -8.497  17.235  0.00  0.00    +0.011 A 
ATOM     31  C   UNL     1      -8.673  -8.566  16.725  0.00  0.00    +0.111 A 
ATOM     32  C   UNL     1      -9.915  -8.010  16.495  0.00  0.00    +0.020 A 
ENDBRANCH   1  24
ENDBRANCH   8   1
ENDBRANCH  13   8
BRANCH  14   4
ATOM      4  O   UNL     1      -3.896 -11.316  13.564  0.00  0.00    -0.442 OA
BRANCH   4  23
ATOM      7  O   UNL     1      -2.172 -10.233  12.503  0.00  0.00    -0.226 OA
ATOM      9  N   UNL     1      -4.356 -10.054  11.741  0.00  0.00    -0.278 N 
ATOM     23  C   UNL     1      -3.364 -10.505  12.588  0.00  0.00    +0.401 C 
ATOM     34  H   UNL     1      -5.310 -10.320  11.956  0.00  0.00    +0.152 HD
BRANCH   9  17
ATOM     17  C   UNL     1      -4.112  -9.181  10.614  0.00  0.00    +0.076 C 
ATOM     18  C   UNL     1      -3.933  -9.986   9.323  0.00  0.00    +0.022 C 
ATOM     19  C   UNL     1      -5.230  -8.141  10.470  0.00  0.00    +0.022 C 
ATOM     20  C   UNL     1      -5.245 -10.597   8.827  0.00  0.00    +0.002 C 
ATOM     21  C   UNL     1      -6.538  -8.756   9.973  0.00  0.00    +0.002 C 
ATOM     22  C   UNL     1      -6.337  -9.543   8.682  0.00  0.00    +0.000 C 
ENDBRANCH   9  17
ENDBRANCH   4  23
ENDBRANCH  14   4
TORSDOF 6
ENDMDL
MODEL 6
REMARK VINA RESULT:      -6.8     30.764     33.333
REMARK  Name = 11883362
REMARK  6 active torsions:
REMARK  status: ('A' for Active; 'I' for Inactive)
REMARK    1  A    between atoms: S_1  and  N_8
REMARK    2  A    between atoms: S_1  and  C_24
REMARK    3  A    between atoms: O_4  and  C_14
REMARK    4  A    between atoms: O_4  and  C_23
REMARK    5  A    between atoms: N_8  and  C_13
REMARK    6  A    between atoms: N_9  and  C_17
REMARK                            x       y       z     vdW  Elec       q    Type
REMARK                         _______ _______ _______ _____ _____    ______ ____
ROOT
ATOM      2  O   UNL     1     -10.821  -6.130  15.959  0.00  0.00    -0.369 OA
ATOM      3  O   UNL     1     -12.505  -8.572  15.147  0.00  0.00    -0.368 OA
ATOM     11  C   UNL     1     -11.114  -8.251  14.937  0.00  0.00    +0.171 C 
ATOM     12  C   UNL     1     -11.040  -6.757  14.686  0.00  0.00    +0.191 C 
ATOM     13  C   UNL     1     -10.343  -8.443  16.219  0.00  0.00    +0.133 C 
ATOM     14  C   UNL     1     -12.414  -6.449  14.137  0.00  0.00    +0.235 C 
ATOM     15  C   UNL     1     -10.580  -7.137  16.953  0.00  0.00    +0.183 C 
ATOM     16  C   UNL     1     -13.291  -7.391  14.930  0.00  0.00    +0.207 C 
ENDROOT
BRANCH  13   8
ATOM      8  N   UNL     1      -8.899  -8.597  15.924  0.00  0.00    -0.182 NA
ATOM     33  H   UNL     1      -8.290  -7.786  16.086  0.00  0.00    +0.148 HD
BRANCH   8   1
ATOM      1  S   UNL     1      -8.364  -9.904  14.982  0.00  0.00    +0.061 S 
ATOM      5  O   UNL     1      -8.192  -9.472  13.608  0.00  0.00    -0.153 OA
ATOM      6  O   UNL     1      -9.183 -11.063  15.286  0.00  0.00    -0.153 OA
BRANCH   1  24
ATOM     10  N   UNL     1      -7.687 -10.450  17.833  0.00  0.00    -0.253 NA
ATOM     24  C   UNL     1      -6.762 -10.213  15.662  0.00  0.00    +0.131 A 
ATOM     25  C   UNL     1      -6.615 -10.451  17.019  0.00  0.00    +0.097 A 
ATOM     26  C   UNL     1      -5.683 -10.204  14.783  0.00  0.00    +0.031 A 
ATOM     27  C   UNL     1      -5.312 -10.691  17.503  0.00  0.00    +0.002 A 
ATOM     28  C   UNL     1      -4.403 -10.441  15.267  0.00  0.00    +0.003 A 
ATOM     29  C   UNL     1      -4.216 -10.684  16.625  0.00  0.00    +0.010 A 
ATOM     30  C   UNL     1      -5.152 -10.932  18.875  0.00  0.00    +0.011 A 
ATOM     31  C   UNL     1      -7.490 -10.687  19.151  0.00  0.00    +0.111 A 
ATOM     32  C   UNL     1      -6.255 -10.931  19.717  0.00  0.00    +0.020 A 
ENDBRANCH   1  24
ENDBRANCH   8   1
ENDBRANCH  13   8
BRANCH  14   4
ATOM      4  O   UNL     1     -12.795  -5.102  14.303  0.00  0.00    -0.442 OA
BRANCH   4  23
ATOM      7  O   UNL     1     -14.074  -3.484  13.296  0.00  0.00    -0.226 OA
ATOM      9  N   UNL     1     -13.042  -5.148  12.053  0.00  0.00    -0.278 N 
ATOM     23  C   UNL     1     -13.370  -4.484  13.217  0.00  0.00    +0.401 C 
ATOM     34  H   UNL     1     -12.487  -5.993  12.138  0.00  0.00    +0.152 HD
BRANCH   9  17
ATOM     17  C   UNL     1     -13.495  -4.741  10.741  0.00  0.00    +0.076 C 
ATOM     18  C   UNL     1     -12.818  -3.437  10.306  0.00  0.00    +0.022 C 
ATOM     19  C   UNL     1     -13.273  -5.854   9.711  0.00  0.00    +0.022 C 
ATOM     20  C   UNL     1     -11.342  -3.632   9.959  0.00  0.00    +0.002 C 
ATOM     21  C   UNL     1     -11.796  -6.044   9.365  0.00  0.00    +0.002 C 
ATOM     22  C   UNL     1     -11.147  -4.736   8.924  0.00  0.00    +0.000 C 
ENDBRANCH   9  17
ENDBRANCH   4  23
ENDBRANCH  14   4
TORSDOF 6
ENDMDL
MODEL 7
REMARK VINA RESULT:      -6.7     16.325     20.096
REMARK  Name = 11883362
REMARK  6 active torsions:
REMARK  status: ('A' for Active; 'I' for Inactive)
REMARK    1  A    between atoms: S_1  and  N_8
REMARK    2  A    between atoms: S_1  and  C_24
REMARK    3  A    between atoms: O_4  and  C_14
REMARK    4  A    between atoms: O_4  and  C_23
REMARK    5  A    between atoms: N_8  and  C_13
REMARK    6  A    between atoms: N_9  and  C_17
REMARK                            x       y       z     vdW  Elec       q    Type
REMARK                         _______ _______ _______ _____ _____    ______ ____
ROOT
ATOM      2  O   UNL     1      14.217   7.982   5.796  0.00  0.00    -0.369 OA
ATOM      3  O   UNL     1      14.999   8.507   2.869  0.00  0.00    -0.368 OA
ATOM     11  C   UNL     1      14.516   7.323   3.537  0.00  0.00    +0.171 C 
ATOM     12  C   UNL     1      15.138   7.314   4.920  0.00  0.00    +0.191 C 
ATOM     13  C   UNL     1      13.036   7.450   3.803  0.00  0.00    +0.133 C 
ATOM     14  C   UNL     1      16.401   8.116   4.717  0.00  0.00    +0.235 C 
ATOM     15  C   UNL     1      12.995   8.249   5.092  0.00  0.00    +0.183 C 
ATOM     16  C   UNL     1      15.958   9.158   3.714  0.00  0.00    +0.207 C 
ENDROOT
BRANCH  13   8
ATOM      8  N   UNL     1      12.444   6.110   4.026  0.00  0.00    -0.182 NA
ATOM     33  H   UNL     1      13.034   5.396   4.469  0.00  0.00    +0.148 HD
BRANCH   8   1
ATOM      1  S   UNL     1      11.018   5.672   3.215  0.00  0.00    +0.061 S 
ATOM      5  O   UNL     1      10.722   4.277   3.476  0.00  0.00    -0.153 OA
ATOM      6  O   UNL     1      11.089   6.161   1.851  0.00  0.00    -0.153 OA
BRANCH   1  24
ATOM     10  N   UNL     1      10.493   5.779   6.147  0.00  0.00    -0.253 NA
ATOM     24  C   UNL     1       9.808   6.652   4.051  0.00  0.00    +0.131 A 
ATOM     25  C   UNL     1       9.690   6.587   5.430  0.00  0.00    +0.097 A 
ATOM     26  C   UNL     1       9.000   7.473   3.269  0.00  0.00    +0.031 A 
ATOM     27  C   UNL     1       8.706   7.392   6.041  0.00  0.00    +0.002 A 
ATOM     28  C   UNL     1       8.033   8.263   3.878  0.00  0.00    +0.003 A 
ATOM     29  C   UNL     1       7.885   8.224   5.262  0.00  0.00    +0.010 A 
ATOM     30  C   UNL     1       8.578   7.333   7.436  0.00  0.00    +0.011 A 
ATOM     31  C   UNL     1      10.338   5.751   7.491  0.00  0.00    +0.111 A 
ATOM     32  C   UNL     1       9.404   6.501   8.178  0.00  0.00    +0.020 A 
ENDBRANCH   1  24
ENDBRANCH   8   1
ENDBRANCH  13   8
BRANCH  14   4
ATOM      4  O   UNL     1      16.895   8.697   5.902  0.00  0.00    -0.442 OA
BRANCH   4  23
ATOM      7  O   UNL     1      18.314  10.489   6.107  0.00  0.00    -0.226 OA
ATOM      9  N   UNL     1      19.084   8.421   5.392  0.00  0.00    -0.278 N 
ATOM     23  C   UNL     1      18.123   9.312   5.825  0.00  0.00    +0.401 C 
ATOM     34  H   UNL     1      18.777   7.485   5.149  0.00  0.00    +0.152 HD
BRANCH   9  17
ATOM     17  C   UNL     1      20.476   8.768   5.210  0.00  0.00    +0.076 C 
ATOM     18  C   UNL     1      21.391   7.626   5.662  0.00  0.00    +0.022 C 
ATOM     19  C   UNL     1      20.759   9.165   3.756  0.00  0.00    +0.022 C 
ATOM     20  C   UNL     1      21.353   6.432   4.707  0.00  0.00    +0.002 C 
ATOM     21  C   UNL     1      20.721   7.969   2.805  0.00  0.00    +0.002 C 
ATOM     22  C   UNL     1      21.648   6.850   3.270  0.00  0.00    +0.000 C 
ENDBRANCH   9  17
ENDBRANCH   4  23
ENDBRANCH  14   4
TORSDOF 6
ENDMDL
MODEL 8
REMARK VINA RESULT:      -6.6     28.742     32.786
REMARK  Name = 11883362
REMARK  6 active torsions:
REMARK  status: ('A' for Active; 'I' for Inactive)
REMARK    1  A    between atoms: S_1  and  N_8
REMARK    2  A    between atoms: S_1  and  C_24
REMARK    3  A    between atoms: O_4  and  C_14
REMARK    4  A    between atoms: O_4  and  C_23
REMARK    5  A    between atoms: N_8  and  C_13
REMARK    6  A    between atoms: N_9  and  C_17
REMARK                            x       y       z     vdW  Elec       q    Type
REMARK                         _______ _______ _______ _____ _____    ______ ____
ROOT
ATOM      2  O   UNL     1      -5.799  -9.523  16.488  0.00  0.00    -0.369 OA
ATOM      3  O   UNL     1      -5.784 -12.598  16.547  0.00  0.00    -0.368 OA
ATOM     11  C   UNL     1      -6.100 -11.619  17.559  0.00  0.00    +0.171 C 
ATOM     12  C   UNL     1      -5.145 -10.458  17.360  0.00  0.00    +0.191 C 
ATOM     13  C   UNL     1      -7.459 -11.022  17.291  0.00  0.00    +0.133 C 
ATOM     14  C   UNL     1      -3.962 -11.117  16.690  0.00  0.00    +0.235 C 
ATOM     15  C   UNL     1      -7.156  -9.939  16.274  0.00  0.00    +0.183 C 
ATOM     16  C   UNL     1      -4.629 -12.156  15.819  0.00  0.00    +0.207 C 
ENDROOT
BRANCH  13   8
ATOM      8  N   UNL     1      -7.997 -10.410  18.529  0.00  0.00    -0.182 NA
ATOM     33  H   UNL     1      -7.414  -9.715  19.009  0.00  0.00    +0.148 HD
BRANCH   8   1
ATOM      1  S   UNL     1      -9.316 -11.129  19.321  0.00  0.00    +0.061 S 
ATOM      5  O   UNL     1      -9.733 -10.287  20.425  0.00  0.00    -0.153 OA
ATOM      6  O   UNL     1      -9.018 -12.531  19.543  0.00  0.00    -0.153 OA
BRANCH   1  24
ATOM     10  N   UNL     1     -10.240  -8.723  17.822  0.00  0.00    -0.253 NA
ATOM     24  C   UNL     1     -10.570 -11.058  18.077  0.00  0.00    +0.131 A 
ATOM     25  C   UNL     1     -10.884  -9.852  17.471  0.00  0.00    +0.097 A 
ATOM     26  C   UNL     1     -11.210 -12.249  17.748  0.00  0.00    +0.031 A 
ATOM     27  C   UNL     1     -11.894  -9.859  16.486  0.00  0.00    +0.002 A 
ATOM     28  C   UNL     1     -12.203 -12.248  16.777  0.00  0.00    +0.003 A 
ATOM     29  C   UNL     1     -12.546 -11.055  16.146  0.00  0.00    +0.010 A 
ATOM     30  C   UNL     1     -12.220  -8.643  15.868  0.00  0.00    +0.011 A 
ATOM     31  C   UNL     1     -10.584  -7.571  17.200  0.00  0.00    +0.111 A 
ATOM     32  C   UNL     1     -11.557  -7.478  16.226  0.00  0.00    +0.020 A 
ENDBRANCH   1  24
ENDBRANCH   8   1
ENDBRANCH  13   8
BRANCH  14   4
ATOM      4  O   UNL     1      -3.172 -10.223  15.941  0.00  0.00    -0.442 OA
BRANCH   4  23
ATOM      7  O   UNL     1      -1.259 -11.376  15.407  0.00  0.00    -0.226 OA
ATOM      9  N   UNL     1      -2.679 -10.570  13.758  0.00  0.00    -0.278 N 
ATOM     23  C   UNL     1      -2.273 -10.780  15.060  0.00  0.00    +0.401 C 
ATOM     34  H   UNL     1      -3.518 -10.018  13.613  0.00  0.00    +0.152 HD
BRANCH   9  17
ATOM     17  C   UNL     1      -1.944 -11.037  12.603  0.00  0.00    +0.076 C 
ATOM     18  C   UNL     1      -2.580 -12.303  12.021  0.00  0.00    +0.022 C 
ATOM     19  C   UNL     1      -1.826  -9.936  11.543  0.00  0.00    +0.022 C 
ATOM     20  C   UNL     1      -3.907 -12.020  11.316  0.00  0.00    +0.002 C 
ATOM     21  C   UNL     1      -3.154  -9.658  10.839  0.00  0.00    +0.002 C 
ATOM     22  C   UNL     1      -3.763 -10.931  10.259  0.00  0.00    +0.000 C 
ENDBRANCH   9  17
ENDBRANCH   4  23
ENDBRANCH  14   4
TORSDOF 6
ENDMDL
MODEL 9
REMARK VINA RESULT:      -6.5     28.616     31.830
REMARK  Name = 11883362
REMARK  6 active torsions:
REMARK  status: ('A' for Active; 'I' for Inactive)
REMARK    1  A    between atoms: S_1  and  N_8
REMARK    2  A    between atoms: S_1  and  C_24
REMARK    3  A    between atoms: O_4  and  C_14
REMARK    4  A    between atoms: O_4  and  C_23
REMARK    5  A    between atoms: N_8  and  C_13
REMARK    6  A    between atoms: N_9  and  C_17
REMARK                            x       y       z     vdW  Elec       q    Type
REMARK                         _______ _______ _______ _____ _____    ______ ____
ROOT
ATOM      2  O   UNL     1      -4.199 -11.714  14.028  0.00  0.00    -0.369 OA
ATOM      3  O   UNL     1      -2.259 -11.068  16.326  0.00  0.00    -0.368 OA
ATOM     11  C   UNL     1      -3.495 -10.451  15.909  0.00  0.00    +0.171 C 
ATOM     12  C   UNL     1      -3.523 -10.501  14.394  0.00  0.00    +0.191 C 
ATOM     13  C   UNL     1      -4.664 -11.310  16.323  0.00  0.00    +0.133 C 
ATOM     14  C   UNL     1      -2.055 -10.548  14.041  0.00  0.00    +0.235 C 
ATOM     15  C   UNL     1      -4.744 -12.330  15.204  0.00  0.00    +0.183 C 
ATOM     16  C   UNL     1      -1.486 -11.389  15.161  0.00  0.00    +0.207 C 
ENDROOT
BRANCH  13   8
ATOM      8  N   UNL     1      -5.905 -10.499  16.351  0.00  0.00    -0.182 NA
ATOM     33  H   UNL     1      -5.871  -9.561  15.934  0.00  0.00    +0.148 HD
BRANCH   8   1
ATOM      1  S   UNL     1      -7.179 -10.942  17.381  0.00  0.00    +0.061 S 
ATOM      5  O   UNL     1      -6.914 -10.447  18.718  0.00  0.00    -0.153 OA
ATOM      6  O   UNL     1      -7.485 -12.344  17.169  0.00  0.00    -0.153 OA
BRANCH   1  24
ATOM     10  N   UNL     1      -8.093 -10.869  14.544  0.00  0.00    -0.253 NA
ATOM     24  C   UNL     1      -8.527 -10.013  16.714  0.00  0.00    +0.131 A 
ATOM     25  C   UNL     1      -8.825 -10.090  15.363  0.00  0.00    +0.097 A 
ATOM     26  C   UNL     1      -9.256  -9.221  17.596  0.00  0.00    +0.031 A 
ATOM     27  C   UNL     1      -9.912  -9.326  14.888  0.00  0.00    +0.002 A 
ATOM     28  C   UNL     1     -10.325  -8.472  17.122  0.00  0.00    +0.003 A 
ATOM     29  C   UNL     1     -10.654  -8.523  15.770  0.00  0.00    +0.010 A 
ATOM     30  C   UNL     1     -10.220  -9.396  13.522  0.00  0.00    +0.011 A 
ATOM     31  C   UNL     1      -8.423 -10.909  13.233  0.00  0.00    +0.111 A 
ATOM     32  C   UNL     1      -9.468 -10.198  12.676  0.00  0.00    +0.020 A 
ENDBRANCH   1  24
ENDBRANCH   8   1
ENDBRANCH  13   8
BRANCH  14   4
ATOM      4  O   UNL     1      -1.800 -11.109  12.773  0.00  0.00    -0.442 OA
BRANCH   4  23
ATOM      7  O   UNL     1      -1.183  -9.450  11.312  0.00  0.00    -0.226 OA
ATOM      9  N   UNL     1      -3.210 -10.556  11.091  0.00  0.00    -0.278 N 
ATOM     23  C   UNL     1      -1.993 -10.291  11.684  0.00  0.00    +0.401 C 
ATOM     34  H   UNL     1      -3.805 -11.249  11.533  0.00  0.00    +0.152 HD
BRANCH   9  17
ATOM     17  C   UNL     1      -3.701  -9.859   9.922  0.00  0.00    +0.076 C 
ATOM     18  C   UNL     1      -4.580 -10.775   9.064  0.00  0.00    +0.022 C 
ATOM     19  C   UNL     1      -4.449  -8.580  10.316  0.00  0.00    +0.022 C 
ATOM     20  C   UNL     1      -5.935 -11.062   9.714  0.00  0.00    +0.002 C 
ATOM     21  C   UNL     1      -5.803  -8.871  10.963  0.00  0.00    +0.002 C 
ATOM     22  C   UNL     1      -6.664  -9.775  10.087  0.00  0.00    +0.000 C 
ENDBRANCH   9  17
ENDBRANCH   4  23
ENDBRANCH  14   4
TORSDOF 6
ENDMDL
MODEL 10
REMARK VINA RESULT:      -6.5     16.984     19.978
REMARK  Name = 11883362
REMARK  6 active torsions:
REMARK  status: ('A' for Active; 'I' for Inactive)
REMARK    1  A    between atoms: S_1  and  N_8
REMARK    2  A    between atoms: S_1  and  C_24
REMARK    3  A    between atoms: O_4  and  C_14
REMARK    4  A    between atoms: O_4  and  C_23
REMARK    5  A    between atoms: N_8  and  C_13
REMARK    6  A    between atoms: N_9  and  C_17
REMARK                            x       y       z     vdW  Elec       q    Type
REMARK                         _______ _______ _______ _____ _____    ______ ____
ROOT
ATOM      2  O   UNL     1      13.314   7.662   5.389  0.00  0.00    -0.369 OA
ATOM      3  O   UNL     1      15.697   9.467   6.111  0.00  0.00    -0.368 OA
ATOM     11  C   UNL     1      14.408   9.763   5.535  0.00  0.00    +0.171 C 
ATOM     12  C   UNL     1      14.063   8.610   4.612  0.00  0.00    +0.191 C 
ATOM     13  C   UNL     1      13.343   9.706   6.602  0.00  0.00    +0.133 C 
ATOM     14  C   UNL     1      15.424   8.074   4.235  0.00  0.00    +0.235 C 
ATOM     15  C   UNL     1      13.020   8.226   6.676  0.00  0.00    +0.183 C 
ATOM     16  C   UNL     1      16.207   8.266   5.515  0.00  0.00    +0.207 C 
ENDROOT
BRANCH  13   8
ATOM      8  N   UNL     1      12.144  10.458   6.162  0.00  0.00    -0.182 NA
ATOM     33  H   UNL     1      12.223  11.025   5.310  0.00  0.00    +0.148 HD
BRANCH   8   1
ATOM      1  S   UNL     1      10.852  10.691   7.239  0.00  0.00    +0.061 S 
ATOM      5  O   UNL     1      10.110  11.877   6.855  0.00  0.00    -0.153 OA
ATOM      6  O   UNL     1      11.343  10.543   8.596  0.00  0.00    -0.153 OA
BRANCH   1  24
ATOM     10  N   UNL     1       9.785   9.824   4.593  0.00  0.00    -0.253 NA
ATOM     24  C   UNL     1       9.838   9.282   6.902  0.00  0.00    +0.131 A 
ATOM     25  C   UNL     1       9.424   9.015   5.607  0.00  0.00    +0.097 A 
ATOM     26  C   UNL     1       9.489   8.474   7.980  0.00  0.00    +0.031 A 
ATOM     27  C   UNL     1       8.616   7.877   5.400  0.00  0.00    +0.002 A 
ATOM     28  C   UNL     1       8.694   7.355   7.769  0.00  0.00    +0.003 A 
ATOM     29  C   UNL     1       8.258   7.055   6.481  0.00  0.00    +0.010 A 
ATOM     30  C   UNL     1       8.190   7.599   4.093  0.00  0.00    +0.011 A 
ATOM     31  C   UNL     1       9.354   9.520   3.347  0.00  0.00    +0.111 A 
ATOM     32  C   UNL     1       8.562   8.431   3.047  0.00  0.00    +0.020 A 
ENDBRANCH   1  24
ENDBRANCH   8   1
ENDBRANCH  13   8
BRANCH  14   4
ATOM      4  O   UNL     1      15.403   6.726   3.823  0.00  0.00    -0.442 OA
BRANCH   4  23
ATOM      7  O   UNL     1      15.464   7.023   1.548  0.00  0.00    -0.226 OA
ATOM      9  N   UNL     1      13.963   5.551   2.530  0.00  0.00    -0.278 N 
ATOM     23  C   UNL     1      14.983   6.480   2.536  0.00  0.00    +0.401 C 
ATOM     34  H   UNL     1      13.631   5.216   3.428  0.00  0.00    +0.152 HD
BRANCH   9  17
ATOM     17  C   UNL     1      13.312   5.083   1.326  0.00  0.00    +0.076 C 
ATOM     18  C   UNL     1      12.787   3.655   1.503  0.00  0.00    +0.022 C 
ATOM     19  C   UNL     1      12.191   6.039   0.900  0.00  0.00    +0.022 C 
ATOM     20  C   UNL     1      11.572   3.589   2.431  0.00  0.00    +0.002 C 
ATOM     21  C   UNL     1      10.978   5.968   1.828  0.00  0.00    +0.002 C 
ATOM     22  C   UNL     1      10.467   4.539   1.981  0.00  0.00    +0.000 C 
ENDBRANCH   9  17
ENDBRANCH   4  23
ENDBRANCH  14   4
TORSDOF 6
ENDMDL
