MODEL 1
REMARK VINA RESULT:      -6.3      0.000      0.000
REMARK  Name = 75367699
REMARK  6 active torsions:
REMARK  status: ('A' for Active; 'I' for Inactive)
REMARK    1  A    between atoms: O_2  and  C_9
REMARK    2  A    between atoms: O_2  and  C_18
REMARK    3  A    between atoms: N_5  and  C_16
REMARK    4  A    between atoms: C_13  and  C_14
REMARK    5  A    between atoms: C_16  and  C_19
REMARK    6  A    between atoms: C_17  and  C_20
REMARK                            x       y       z     vdW  Elec       q    Type
REMARK                         _______ _______ _______ _____ _____    ______ ____
ROOT
ATOM      1  O   UNL     1      11.075   7.305  22.009  0.00  0.00    -0.375 OA
ATOM      3  O   UNL     1      14.862   7.362  19.015  0.00  0.00    -0.268 OA
ATOM      4  N   UNL     1      13.546   8.557  20.543  0.00  0.00    -0.291 N 
ATOM      8  C   UNL     1      12.833   9.794  20.882  0.00  0.00    +0.155 C 
ATOM      9  C   UNL     1      11.668   9.668  21.869  0.00  0.00    +0.216 C 
ATOM     10  C   UNL     1      13.461   7.428  21.470  0.00  0.00    +0.136 C 
ATOM     11  C   UNL     1      10.676   8.569  21.490  0.00  0.00    +0.206 C 
ATOM     12  C   UNL     1      12.143   6.681  21.303  0.00  0.00    +0.179 C 
ATOM     13  C   UNL     1      14.277   8.390  19.354  0.00  0.00    +0.265 C 
ENDROOT
BRANCH  13  14
ATOM      5  N   UNL     1      13.580   9.707  17.320  0.00  0.00    -0.259 N 
ATOM      6  N   UNL     1      13.860  10.828  16.634  0.00  0.00    -0.176 NA
ATOM     14  C   UNL     1      14.363   9.526  18.423  0.00  0.00    +0.124 A 
ATOM     15  C   UNL     1      15.215  10.603  18.460  0.00  0.00    +0.057 A 
ATOM     17  C   UNL     1      14.859  11.371  17.334  0.00  0.00    +0.061 A 
ATOM     20  C   UNL     1      15.457  12.642  16.890  0.00  0.00    +0.067 C 
BRANCH   5  16
ATOM     16  C   UNL     1      12.526   8.836  16.853  0.00  0.00    +0.141 C 
ATOM     19  C   UNL     1      11.871   9.369  15.589  0.00  0.00    +0.029 C 
ENDBRANCH   5  16
ENDBRANCH  13  14
BRANCH   9   2
ATOM      2  O   UNL     1      10.992  10.925  21.871  0.00  0.00    -0.483 OA
BRANCH   2  18
ATOM      7  N   UNL     1      11.187  11.563  25.465  0.00  0.00    -0.260 NA
ATOM     18  C   UNL     1      10.966  11.604  23.058  0.00  0.00    +0.139 A 
ATOM     21  C   UNL     1      10.705  12.969  23.097  0.00  0.00    +0.049 A 
ATOM     22  C   UNL     1      11.199  10.953  24.258  0.00  0.00    +0.156 A 
ATOM     23  C   UNL     1      10.685  13.632  24.318  0.00  0.00    +0.023 A 
ATOM     24  C   UNL     1      10.929  12.891  25.464  0.00  0.00    +0.111 A 
ENDBRANCH   2  18
ENDBRANCH   9   2
TORSDOF 4
ENDMDL
MODEL 2
REMARK VINA RESULT:      -6.3      2.922      6.494
REMARK  Name = 75367699
REMARK  6 active torsions:
REMARK  status: ('A' for Active; 'I' for Inactive)
REMARK    1  A    between atoms: O_2  and  C_9
REMARK    2  A    between atoms: O_2  and  C_18
REMARK    3  A    between atoms: N_5  and  C_16
REMARK    4  A    between atoms: C_13  and  C_14
REMARK    5  A    between atoms: C_16  and  C_19
REMARK    6  A    between atoms: C_17  and  C_20
REMARK                            x       y       z     vdW  Elec       q    Type
REMARK                         _______ _______ _______ _____ _____    ______ ____
ROOT
ATOM      1  O   UNL     1      12.449   7.895  17.024  0.00  0.00    -0.375 OA
ATOM      3  O   UNL     1      13.150  12.363  18.713  0.00  0.00    -0.268 OA
ATOM      4  N   UNL     1      13.895  10.142  18.662  0.00  0.00    -0.291 N 
ATOM      8  C   UNL     1      14.393   8.971  19.395  0.00  0.00    +0.155 C 
ATOM      9  C   UNL     1      14.147   7.603  18.752  0.00  0.00    +0.216 C 
ATOM     10  C   UNL     1      13.659  10.015  17.224  0.00  0.00    +0.136 C 
ATOM     11  C   UNL     1      12.694   7.389  18.332  0.00  0.00    +0.206 C 
ATOM     12  C   UNL     1      12.336   9.312  16.946  0.00  0.00    +0.179 C 
ATOM     13  C   UNL     1      13.598  11.369  19.281  0.00  0.00    +0.265 C 
ENDROOT
BRANCH  13  14
ATOM      5  N   UNL     1      12.935  11.199  21.707  0.00  0.00    -0.259 N 
ATOM      6  N   UNL     1      13.399  11.403  22.952  0.00  0.00    -0.176 NA
ATOM     14  C   UNL     1      13.836  11.496  20.727  0.00  0.00    +0.124 A 
ATOM     15  C   UNL     1      14.969  11.925  21.376  0.00  0.00    +0.057 A 
ATOM     17  C   UNL     1      14.642  11.847  22.744  0.00  0.00    +0.061 A 
ATOM     20  C   UNL     1      15.498  12.189  23.892  0.00  0.00    +0.067 C 
BRANCH   5  16
ATOM     16  C   UNL     1      11.589  10.707  21.527  0.00  0.00    +0.141 C 
ATOM     19  C   UNL     1      10.965  10.268  22.842  0.00  0.00    +0.029 C 
ENDBRANCH   5  16
ENDBRANCH  13  14
BRANCH   9   2
ATOM      2  O   UNL     1      14.500   6.621  19.727  0.00  0.00    -0.483 OA
BRANCH   2  18
ATOM      7  N   UNL     1      17.721   6.499  21.451  0.00  0.00    -0.260 NA
ATOM     18  C   UNL     1      15.836   6.422  19.939  0.00  0.00    +0.139 A 
ATOM     21  C   UNL     1      16.662   5.961  18.920  0.00  0.00    +0.049 A 
ATOM     22  C   UNL     1      16.409   6.673  21.175  0.00  0.00    +0.156 A 
ATOM     23  C   UNL     1      18.017   5.770  19.165  0.00  0.00    +0.023 A 
ATOM     24  C   UNL     1      18.493   6.050  20.436  0.00  0.00    +0.111 A 
ENDBRANCH   2  18
ENDBRANCH   9   2
TORSDOF 4
ENDMDL
MODEL 3
REMARK VINA RESULT:      -6.0      2.260      6.150
REMARK  Name = 75367699
REMARK  6 active torsions:
REMARK  status: ('A' for Active; 'I' for Inactive)
REMARK    1  A    between atoms: O_2  and  C_9
REMARK    2  A    between atoms: O_2  and  C_18
REMARK    3  A    between atoms: N_5  and  C_16
REMARK    4  A    between atoms: C_13  and  C_14
REMARK    5  A    between atoms: C_16  and  C_19
REMARK    6  A    between atoms: C_17  and  C_20
REMARK                            x       y       z     vdW  Elec       q    Type
REMARK                         _______ _______ _______ _____ _____    ______ ____
ROOT
ATOM      1  O   UNL     1      11.917   6.342  20.292  0.00  0.00    -0.375 OA
ATOM      3  O   UNL     1      10.787  10.033  23.191  0.00  0.00    -0.268 OA
ATOM      4  N   UNL     1      11.677   9.352  21.134  0.00  0.00    -0.291 N 
ATOM      8  C   UNL     1      12.731   9.483  20.120  0.00  0.00    +0.155 C 
ATOM      9  C   UNL     1      12.984   8.262  19.230  0.00  0.00    +0.216 C 
ATOM     10  C   UNL     1      10.645   8.333  20.937  0.00  0.00    +0.136 C 
ATOM     11  C   UNL     1      13.167   6.968  20.022  0.00  0.00    +0.206 C 
ATOM     12  C   UNL     1      11.157   6.952  21.330  0.00  0.00    +0.179 C 
ATOM     13  C   UNL     1      11.631  10.131  22.302  0.00  0.00    +0.265 C 
ENDROOT
BRANCH  13  14
ATOM      5  N   UNL     1      12.643  12.417  21.981  0.00  0.00    -0.259 N 
ATOM      6  N   UNL     1      13.713  13.160  22.309  0.00  0.00    -0.176 NA
ATOM     14  C   UNL     1      12.668  11.155  22.499  0.00  0.00    +0.124 A 
ATOM     15  C   UNL     1      13.837  11.067  23.215  0.00  0.00    +0.057 A 
ATOM     17  C   UNL     1      14.440  12.331  23.063  0.00  0.00    +0.061 A 
ATOM     20  C   UNL     1      15.721  12.787  23.627  0.00  0.00    +0.067 C 
BRANCH   5  16
ATOM     16  C   UNL     1      11.611  12.993  21.149  0.00  0.00    +0.141 C 
ATOM     19  C   UNL     1      10.528  13.667  21.977  0.00  0.00    +0.029 C 
ENDBRANCH   5  16
ENDBRANCH  13  14
BRANCH   9   2
ATOM      2  O   UNL     1      14.178   8.530  18.494  0.00  0.00    -0.483 OA
BRANCH   2  18
ATOM      7  N   UNL     1      13.117   9.736  15.211  0.00  0.00    -0.260 NA
ATOM     18  C   UNL     1      14.055   9.347  17.405  0.00  0.00    +0.139 A 
ATOM     21  C   UNL     1      14.703  10.576  17.354  0.00  0.00    +0.049 A 
ATOM     22  C   UNL     1      13.280   8.977  16.318  0.00  0.00    +0.156 A 
ATOM     23  C   UNL     1      14.559  11.385  16.233  0.00  0.00    +0.023 A 
ATOM     24  C   UNL     1      13.763  10.925  15.197  0.00  0.00    +0.111 A 
ENDBRANCH   2  18
ENDBRANCH   9   2
TORSDOF 4
ENDMDL
MODEL 4
REMARK VINA RESULT:      -5.8     26.647     28.685
REMARK  Name = 75367699
REMARK  6 active torsions:
REMARK  status: ('A' for Active; 'I' for Inactive)
REMARK    1  A    between atoms: O_2  and  C_9
REMARK    2  A    between atoms: O_2  and  C_18
REMARK    3  A    between atoms: N_5  and  C_16
REMARK    4  A    between atoms: C_13  and  C_14
REMARK    5  A    between atoms: C_16  and  C_19
REMARK    6  A    between atoms: C_17  and  C_20
REMARK                            x       y       z     vdW  Elec       q    Type
REMARK                         _______ _______ _______ _____ _____    ______ ____
ROOT
ATOM      1  O   UNL     1      -8.609 -11.511  19.148  0.00  0.00    -0.375 OA
ATOM      3  O   UNL     1      -3.794 -11.837  19.027  0.00  0.00    -0.268 OA
ATOM      4  N   UNL     1      -5.710 -10.751  18.229  0.00  0.00    -0.291 N 
ATOM      8  C   UNL     1      -6.459 -10.208  17.089  0.00  0.00    +0.155 C 
ATOM      9  C   UNL     1      -7.980 -10.117  17.247  0.00  0.00    +0.216 C 
ATOM     10  C   UNL     1      -6.331 -10.708  19.554  0.00  0.00    +0.136 C 
ATOM     11  C   UNL     1      -8.614 -11.421  17.727  0.00  0.00    +0.206 C 
ATOM     12  C   UNL     1      -7.345 -11.833  19.720  0.00  0.00    +0.179 C 
ATOM     13  C   UNL     1      -4.442 -11.342  18.106  0.00  0.00    +0.265 C 
ENDROOT
BRANCH  13  14
ATOM      5  N   UNL     1      -3.996 -12.370  15.848  0.00  0.00    -0.259 N 
ATOM      6  N   UNL     1      -3.312 -12.173  14.708  0.00  0.00    -0.176 NA
ATOM     14  C   UNL     1      -3.818 -11.385  16.775  0.00  0.00    +0.124 A 
ATOM     15  C   UNL     1      -2.956 -10.481  16.202  0.00  0.00    +0.057 A 
ATOM     17  C   UNL     1      -2.678 -11.018  14.929  0.00  0.00    +0.061 A 
ATOM     20  C   UNL     1      -1.805 -10.452  13.888  0.00  0.00    +0.067 C 
BRANCH   5  16
ATOM     16  C   UNL     1      -4.820 -13.549  15.983  0.00  0.00    +0.141 C 
ATOM     19  C   UNL     1      -6.156 -13.390  15.275  0.00  0.00    +0.029 C 
ENDBRANCH   5  16
ENDBRANCH  13  14
BRANCH   9   2
ATOM      2  O   UNL     1      -8.508  -9.789  15.961  0.00  0.00    -0.483 OA
BRANCH   2  18
ATOM      7  N   UNL     1     -11.259  -7.743  14.694  0.00  0.00    -0.260 NA
ATOM     18  C   UNL     1      -9.499  -8.847  15.929  0.00  0.00    +0.139 A 
ATOM     21  C   UNL     1      -9.767  -8.050  17.037  0.00  0.00    +0.049 A 
ATOM     22  C   UNL     1     -10.267  -8.656  14.792  0.00  0.00    +0.156 A 
ATOM     23  C   UNL     1     -10.779  -7.101  16.975  0.00  0.00    +0.023 A 
ATOM     24  C   UNL     1     -11.491  -6.986  15.791  0.00  0.00    +0.111 A 
ENDBRANCH   2  18
ENDBRANCH   9   2
TORSDOF 4
ENDMDL
MODEL 5
REMARK VINA RESULT:      -5.7      2.083      3.873
REMARK  Name = 75367699
REMARK  6 active torsions:
REMARK  status: ('A' for Active; 'I' for Inactive)
REMARK    1  A    between atoms: O_2  and  C_9
REMARK    2  A    between atoms: O_2  and  C_18
REMARK    3  A    between atoms: N_5  and  C_16
REMARK    4  A    between atoms: C_13  and  C_14
REMARK    5  A    between atoms: C_16  and  C_19
REMARK    6  A    between atoms: C_17  and  C_20
REMARK                            x       y       z     vdW  Elec       q    Type
REMARK                         _______ _______ _______ _____ _____    ______ ____
ROOT
ATOM      1  O   UNL     1      14.754  12.897  22.155  0.00  0.00    -0.375 OA
ATOM      3  O   UNL     1      15.673   8.728  19.900  0.00  0.00    -0.268 OA
ATOM      4  N   UNL     1      14.138  10.456  20.287  0.00  0.00    -0.291 N 
ATOM      8  C   UNL     1      12.760  10.863  20.589  0.00  0.00    +0.155 C 
ATOM      9  C   UNL     1      12.580  12.221  21.276  0.00  0.00    +0.216 C 
ATOM     10  C   UNL     1      15.165  11.494  20.190  0.00  0.00    +0.136 C 
ATOM     11  C   UNL     1      13.468  12.395  22.506  0.00  0.00    +0.206 C 
ATOM     12  C   UNL     1      15.629  11.937  21.572  0.00  0.00    +0.179 C 
ATOM     13  C   UNL     1      14.527   9.116  20.122  0.00  0.00    +0.265 C 
ENDROOT
BRANCH  13  14
ATOM      5  N   UNL     1      12.831   7.515  19.164  0.00  0.00    -0.259 N 
ATOM      6  N   UNL     1      11.933   6.581  19.521  0.00  0.00    -0.176 NA
ATOM     14  C   UNL     1      13.494   8.073  20.218  0.00  0.00    +0.124 A 
ATOM     15  C   UNL     1      12.994   7.462  21.343  0.00  0.00    +0.057 A 
ATOM     17  C   UNL     1      12.036   6.553  20.852  0.00  0.00    +0.061 A 
ATOM     20  C   UNL     1      11.192   5.632  21.632  0.00  0.00    +0.067 C 
BRANCH   5  16
ATOM     16  C   UNL     1      13.007   7.830  17.765  0.00  0.00    +0.141 C 
ATOM     19  C   UNL     1      11.997   8.861  17.286  0.00  0.00    +0.029 C 
ENDBRANCH   5  16
ENDBRANCH  13  14
BRANCH   9   2
ATOM      2  O   UNL     1      11.211  12.301  21.674  0.00  0.00    -0.483 OA
BRANCH   2  18
ATOM      7  N   UNL     1      10.662  12.035  25.278  0.00  0.00    -0.260 NA
ATOM     18  C   UNL     1      10.971  12.675  22.967  0.00  0.00    +0.139 A 
ATOM     21  C   UNL     1      10.794  14.011  23.306  0.00  0.00    +0.049 A 
ATOM     22  C   UNL     1      10.897  11.734  23.981  0.00  0.00    +0.156 A 
ATOM     23  C   UNL     1      10.551  14.361  24.629  0.00  0.00    +0.023 A 
ATOM     24  C   UNL     1      10.495  13.345  25.569  0.00  0.00    +0.111 A 
ENDBRANCH   2  18
ENDBRANCH   9   2
TORSDOF 4
ENDMDL
MODEL 6
REMARK VINA RESULT:      -5.6      9.760     13.012
REMARK  Name = 75367699
REMARK  6 active torsions:
REMARK  status: ('A' for Active; 'I' for Inactive)
REMARK    1  A    between atoms: O_2  and  C_9
REMARK    2  A    between atoms: O_2  and  C_18
REMARK    3  A    between atoms: N_5  and  C_16
REMARK    4  A    between atoms: C_13  and  C_14
REMARK    5  A    between atoms: C_16  and  C_19
REMARK    6  A    between atoms: C_17  and  C_20
REMARK                            x       y       z     vdW  Elec       q    Type
REMARK                         _______ _______ _______ _____ _____    ______ ____
ROOT
ATOM      1  O   UNL     1      10.871  12.176   6.399  0.00  0.00    -0.375 OA
ATOM      3  O   UNL     1       8.918   7.887   5.352  0.00  0.00    -0.268 OA
ATOM      4  N   UNL     1       9.378   9.487   7.001  0.00  0.00    -0.291 N 
ATOM      8  C   UNL     1       9.860   9.787   8.355  0.00  0.00    +0.155 C 
ATOM      9  C   UNL     1      10.430  11.190   8.587  0.00  0.00    +0.216 C 
ATOM     10  C   UNL     1       9.013  10.603   6.129  0.00  0.00    +0.136 C 
ATOM     11  C   UNL     1      11.476  11.593   7.549  0.00  0.00    +0.206 C 
ATOM     12  C   UNL     1      10.251  11.247   5.516  0.00  0.00    +0.179 C 
ATOM     13  C   UNL     1       9.285   8.181   6.489  0.00  0.00    +0.265 C 
ENDROOT
BRANCH  13  14
ATOM      5  N   UNL     1      10.865   6.435   7.389  0.00  0.00    -0.259 N 
ATOM      6  N   UNL     1      10.945   5.436   8.284  0.00  0.00    -0.176 NA
ATOM     14  C   UNL     1       9.652   7.059   7.366  0.00  0.00    +0.124 A 
ATOM     15  C   UNL     1       8.884   6.423   8.311  0.00  0.00    +0.057 A 
ATOM     17  C   UNL     1       9.732   5.432   8.844  0.00  0.00    +0.061 A 
ATOM     20  C   UNL     1       9.417   4.455   9.899  0.00  0.00    +0.067 C 
BRANCH   5  16
ATOM     16  C   UNL     1      12.015   6.746   6.571  0.00  0.00    +0.141 C 
ATOM     19  C   UNL     1      13.317   6.579   7.339  0.00  0.00    +0.029 C 
ENDBRANCH   5  16
ENDBRANCH  13  14
BRANCH   9   2
ATOM      2  O   UNL     1      11.036  11.179   9.879  0.00  0.00    -0.483 OA
BRANCH   2  18
ATOM      7  N   UNL     1      10.437  13.159  12.893  0.00  0.00    -0.260 NA
ATOM     18  C   UNL     1      10.362  11.828  10.877  0.00  0.00    +0.139 A 
ATOM     21  C   UNL     1       8.972  11.832  10.916  0.00  0.00    +0.049 A 
ATOM     22  C   UNL     1      11.041  12.500  11.879  0.00  0.00    +0.156 A 
ATOM     23  C   UNL     1       8.314  12.499  11.943  0.00  0.00    +0.023 A 
ATOM     24  C   UNL     1       9.084  13.141  12.899  0.00  0.00    +0.111 A 
ENDBRANCH   2  18
ENDBRANCH   9   2
TORSDOF 4
ENDMDL
MODEL 7
REMARK VINA RESULT:      -5.4     27.738     29.980
REMARK  Name = 75367699
REMARK  6 active torsions:
REMARK  status: ('A' for Active; 'I' for Inactive)
REMARK    1  A    between atoms: O_2  and  C_9
REMARK    2  A    between atoms: O_2  and  C_18
REMARK    3  A    between atoms: N_5  and  C_16
REMARK    4  A    between atoms: C_13  and  C_14
REMARK    5  A    between atoms: C_16  and  C_19
REMARK    6  A    between atoms: C_17  and  C_20
REMARK                            x       y       z     vdW  Elec       q    Type
REMARK                         _______ _______ _______ _____ _____    ______ ____
ROOT
ATOM      1  O   UNL     1     -11.610 -11.167  18.437  0.00  0.00    -0.375 OA
ATOM      3  O   UNL     1      -7.280 -12.201  20.304  0.00  0.00    -0.268 OA
ATOM      4  N   UNL     1      -8.531 -10.804  18.899  0.00  0.00    -0.291 N 
ATOM      8  C   UNL     1      -8.652 -10.104  17.614  0.00  0.00    +0.155 C 
ATOM      9  C   UNL     1     -10.072  -9.795  17.131  0.00  0.00    +0.216 C 
ATOM     10  C   UNL     1      -9.650 -10.731  19.839  0.00  0.00    +0.136 C 
ATOM     11  C   UNL     1     -10.996 -11.011  17.162  0.00  0.00    +0.206 C 
ATOM     12  C   UNL     1     -10.759 -11.699  19.447  0.00  0.00    +0.179 C 
ATOM     13  C   UNL     1      -7.409 -11.572  19.255  0.00  0.00    +0.265 C 
ENDROOT
BRANCH  13  14
ATOM      5  N   UNL     1      -6.118 -12.600  17.349  0.00  0.00    -0.259 N 
ATOM      6  N   UNL     1      -5.005 -12.441  16.613  0.00  0.00    -0.176 NA
ATOM     14  C   UNL     1      -6.285 -11.645  18.309  0.00  0.00    +0.124 A 
ATOM     15  C   UNL     1      -5.205 -10.804  18.194  0.00  0.00    +0.057 A 
ATOM     17  C   UNL     1      -4.450 -11.343  17.134  0.00  0.00    +0.061 A 
ATOM     20  C   UNL     1      -3.183 -10.832  16.584  0.00  0.00    +0.067 C 
BRANCH   5  16
ATOM     16  C   UNL     1      -6.997 -13.712  17.071  0.00  0.00    +0.141 C 
ATOM     19  C   UNL     1      -8.012 -13.375  15.991  0.00  0.00    +0.029 C 
ENDBRANCH   5  16
ENDBRANCH  13  14
BRANCH   9   2
ATOM      2  O   UNL     1      -9.957  -9.331  15.785  0.00  0.00    -0.483 OA
BRANCH   2  18
ATOM      7  N   UNL     1     -12.156  -7.026  13.993  0.00  0.00    -0.260 NA
ATOM     18  C   UNL     1     -10.636  -8.187  15.472  0.00  0.00    +0.139 A 
ATOM     21  C   UNL     1     -10.524  -7.048  16.262  0.00  0.00    +0.049 A 
ATOM     22  C   UNL     1     -11.458  -8.125  14.359  0.00  0.00    +0.156 A 
ATOM     23  C   UNL     1     -11.226  -5.899  15.919  0.00  0.00    +0.023 A 
ATOM     24  C   UNL     1     -12.021  -5.938  14.785  0.00  0.00    +0.111 A 
ENDBRANCH   2  18
ENDBRANCH   9   2
TORSDOF 4
ENDMDL
MODEL 8
REMARK VINA RESULT:      -5.4     24.500     26.665
REMARK  Name = 75367699
REMARK  6 active torsions:
REMARK  status: ('A' for Active; 'I' for Inactive)
REMARK    1  A    between atoms: O_2  and  C_9
REMARK    2  A    between atoms: O_2  and  C_18
REMARK    3  A    between atoms: N_5  and  C_16
REMARK    4  A    between atoms: C_13  and  C_14
REMARK    5  A    between atoms: C_16  and  C_19
REMARK    6  A    between atoms: C_17  and  C_20
REMARK                            x       y       z     vdW  Elec       q    Type
REMARK                         _______ _______ _______ _____ _____    ______ ____
ROOT
ATOM      1  O   UNL     1     -11.854  10.892  15.192  0.00  0.00    -0.375 OA
ATOM      3  O   UNL     1      -9.775   9.270  19.236  0.00  0.00    -0.268 OA
ATOM      4  N   UNL     1     -11.269   8.836  17.484  0.00  0.00    -0.291 N 
ATOM      8  C   UNL     1     -12.575   8.325  17.049  0.00  0.00    +0.155 C 
ATOM      9  C   UNL     1     -13.127   8.883  15.733  0.00  0.00    +0.216 C 
ATOM     10  C   UNL     1     -10.380   9.419  16.479  0.00  0.00    +0.136 C 
ATOM     11  C   UNL     1     -13.105  10.409  15.670  0.00  0.00    +0.206 C 
ATOM     12  C   UNL     1     -10.795  10.846  16.143  0.00  0.00    +0.179 C 
ATOM     13  C   UNL     1     -10.845   8.825  18.824  0.00  0.00    +0.265 C 
ENDROOT
BRANCH  13  14
ATOM      5  N   UNL     1     -12.619   8.932  20.612  0.00  0.00    -0.259 N 
ATOM      6  N   UNL     1     -13.321   8.160  21.458  0.00  0.00    -0.176 NA
ATOM     14  C   UNL     1     -11.739   8.238  19.834  0.00  0.00    +0.124 A 
ATOM     15  C   UNL     1     -11.874   6.920  20.197  0.00  0.00    +0.057 A 
ATOM     17  C   UNL     1     -12.862   6.932  21.201  0.00  0.00    +0.061 A 
ATOM     20  C   UNL     1     -13.399   5.780  21.945  0.00  0.00    +0.067 C 
BRANCH   5  16
ATOM     16  C   UNL     1     -12.848  10.358  20.601  0.00  0.00    +0.141 C 
ATOM     19  C   UNL     1     -12.239  11.038  21.817  0.00  0.00    +0.029 C 
ENDBRANCH   5  16
ENDBRANCH  13  14
BRANCH   9   2
ATOM      2  O   UNL     1     -14.478   8.432  15.630  0.00  0.00    -0.483 OA
BRANCH   2  18
ATOM      7  N   UNL     1     -13.992   6.280  12.715  0.00  0.00    -0.260 NA
ATOM     18  C   UNL     1     -14.741   7.502  14.663  0.00  0.00    +0.139 A 
ATOM     21  C   UNL     1     -15.963   6.841  14.616  0.00  0.00    +0.049 A 
ATOM     22  C   UNL     1     -13.797   7.188  13.698  0.00  0.00    +0.156 A 
ATOM     23  C   UNL     1     -16.202   5.901  13.621  0.00  0.00    +0.023 A 
ATOM     24  C   UNL     1     -15.193   5.659  12.702  0.00  0.00    +0.111 A 
ENDBRANCH   2  18
ENDBRANCH   9   2
TORSDOF 4
ENDMDL
MODEL 9
REMARK VINA RESULT:      -5.4     27.298     30.226
REMARK  Name = 75367699
REMARK  6 active torsions:
REMARK  status: ('A' for Active; 'I' for Inactive)
REMARK    1  A    between atoms: O_2  and  C_9
REMARK    2  A    between atoms: O_2  and  C_18
REMARK    3  A    between atoms: N_5  and  C_16
REMARK    4  A    between atoms: C_13  and  C_14
REMARK    5  A    between atoms: C_16  and  C_19
REMARK    6  A    between atoms: C_17  and  C_20
REMARK                            x       y       z     vdW  Elec       q    Type
REMARK                         _______ _______ _______ _____ _____    ______ ____
ROOT
ATOM      1  O   UNL     1     -16.979   5.693  32.976  0.00  0.00    -0.375 OA
ATOM      3  O   UNL     1     -14.825   9.879  34.047  0.00  0.00    -0.268 OA
ATOM      4  N   UNL     1     -14.584   7.702  33.214  0.00  0.00    -0.291 N 
ATOM      8  C   UNL     1     -13.825   6.446  33.194  0.00  0.00    +0.155 C 
ATOM      9  C   UNL     1     -14.599   5.182  32.808  0.00  0.00    +0.216 C 
ATOM     10  C   UNL     1     -15.819   7.782  32.434  0.00  0.00    +0.136 C 
ATOM     11  C   UNL     1     -15.896   5.006  33.595  0.00  0.00    +0.206 C 
ATOM     12  C   UNL     1     -16.973   7.105  33.163  0.00  0.00    +0.179 C 
ATOM     13  C   UNL     1     -14.203   8.820  33.976  0.00  0.00    +0.265 C 
ENDROOT
BRANCH  13  14
ATOM      5  N   UNL     1     -11.748   9.230  34.373  0.00  0.00    -0.259 N 
ATOM      6  N   UNL     1     -10.770   9.028  35.272  0.00  0.00    -0.176 NA
ATOM     14  C   UNL     1     -12.962   8.740  34.760  0.00  0.00    +0.124 A 
ATOM     15  C   UNL     1     -12.763   8.178  35.998  0.00  0.00    +0.057 A 
ATOM     17  C   UNL     1     -11.395   8.385  36.262  0.00  0.00    +0.061 A 
ATOM     20  C   UNL     1     -10.642   7.979  37.461  0.00  0.00    +0.067 C 
BRANCH   5  16
ATOM     16  C   UNL     1     -11.443   9.915  33.138  0.00  0.00    +0.141 C 
ATOM     19  C   UNL     1     -11.133   8.940  32.013  0.00  0.00    +0.029 C 
ENDBRANCH   5  16
ENDBRANCH  13  14
BRANCH   9   2
ATOM      2  O   UNL     1     -13.738   4.074  33.076  0.00  0.00    -0.483 OA
BRANCH   2  18
ATOM      7  N   UNL     1     -14.793   0.691  32.181  0.00  0.00    -0.260 NA
ATOM     18  C   UNL     1     -13.939   2.948  32.327  0.00  0.00    +0.139 A 
ATOM     21  C   UNL     1     -13.522   2.884  31.003  0.00  0.00    +0.049 A 
ATOM     22  C   UNL     1     -14.564   1.835  32.865  0.00  0.00    +0.156 A 
ATOM     23  C   UNL     1     -13.739   1.725  30.267  0.00  0.00    +0.023 A 
ATOM     24  C   UNL     1     -14.373   0.665  30.896  0.00  0.00    +0.111 A 
ENDBRANCH   2  18
ENDBRANCH   9   2
TORSDOF 4
ENDMDL
MODEL 10
REMARK VINA RESULT:      -5.4     27.917     30.020
REMARK  Name = 75367699
REMARK  6 active torsions:
REMARK  status: ('A' for Active; 'I' for Inactive)
REMARK    1  A    between atoms: O_2  and  C_9
REMARK    2  A    between atoms: O_2  and  C_18
REMARK    3  A    between atoms: N_5  and  C_16
REMARK    4  A    between atoms: C_13  and  C_14
REMARK    5  A    between atoms: C_16  and  C_19
REMARK    6  A    between atoms: C_17  and  C_20
REMARK                            x       y       z     vdW  Elec       q    Type
REMARK                         _______ _______ _______ _____ _____    ______ ____
ROOT
ATOM      1  O   UNL     1     -17.767   0.830  27.503  0.00  0.00    -0.375 OA
ATOM      3  O   UNL     1     -16.814   2.326  23.013  0.00  0.00    -0.268 OA
ATOM      4  N   UNL     1     -16.349   2.549  25.298  0.00  0.00    -0.291 N 
ATOM      8  C   UNL     1     -16.127   3.431  26.451  0.00  0.00    +0.155 C 
ATOM      9  C   UNL     1     -16.429   2.844  27.833  0.00  0.00    +0.216 C 
ATOM     10  C   UNL     1     -16.356   1.103  25.520  0.00  0.00    +0.136 C 
ATOM     11  C   UNL     1     -17.807   2.191  27.922  0.00  0.00    +0.206 C 
ATOM     12  C   UNL     1     -17.690   0.643  26.093  0.00  0.00    +0.179 C 
ATOM     13  C   UNL     1     -16.592   3.027  23.999  0.00  0.00    +0.265 C 
ENDROOT
BRANCH  13  14
ATOM      5  N   UNL     1     -15.476   5.239  23.538  0.00  0.00    -0.259 N 
ATOM      6  N   UNL     1     -15.738   6.546  23.369  0.00  0.00    -0.176 NA
ATOM     14  C   UNL     1     -16.584   4.480  23.777  0.00  0.00    +0.124 A 
ATOM     15  C   UNL     1     -17.646   5.353  23.765  0.00  0.00    +0.057 A 
ATOM     17  C   UNL     1     -17.065   6.610  23.509  0.00  0.00    +0.061 A 
ATOM     20  C   UNL     1     -17.752   7.907  23.389  0.00  0.00    +0.067 C 
BRANCH   5  16
ATOM     16  C   UNL     1     -14.110   4.776  23.455  0.00  0.00    +0.141 C 
ATOM     19  C   UNL     1     -13.436   5.228  22.168  0.00  0.00    +0.029 C 
ENDBRANCH   5  16
ENDBRANCH  13  14
BRANCH   9   2
ATOM      2  O   UNL     1     -16.366   3.926  28.763  0.00  0.00    -0.483 OA
BRANCH   2  18
ATOM      7  N   UNL     1     -13.601   2.611  30.759  0.00  0.00    -0.260 NA
ATOM     18  C   UNL     1     -15.458   3.808  29.778  0.00  0.00    +0.139 A 
ATOM     21  C   UNL     1     -15.442   4.712  30.834  0.00  0.00    +0.049 A 
ATOM     22  C   UNL     1     -14.524   2.785  29.787  0.00  0.00    +0.156 A 
ATOM     23  C   UNL     1     -14.508   4.567  31.853  0.00  0.00    +0.023 A 
ATOM     24  C   UNL     1     -13.617   3.510  31.770  0.00  0.00    +0.111 A 
ENDBRANCH   2  18
ENDBRANCH   9   2
TORSDOF 4
ENDMDL
