REMARK  Name = 26744586
REMARK  8 active torsions:
REMARK  status: ('A' for Active; 'I' for Inactive)
REMARK    1  A    between atoms: O_3  and  C_11
REMARK    2  A    between atoms: O_5  and  C_16
REMARK    3  A    between atoms: O_5  and  C_26
REMARK    4  A    between atoms: N_6  and  C_13
REMARK    5  A    between atoms: C_9  and  C_14
REMARK    6  A    between atoms: C_13  and  C_15
REMARK    7  A    between atoms: C_17  and  C_19
REMARK    8  A    between atoms: C_19  and  C_23
REMARK                            x       y       z     vdW  Elec       q    Type
REMARK                         _______ _______ _______ _____ _____    ______ ____
ROOT
ATOM      6  N   UNL     1      -2.854   0.502  -0.356  0.00  0.00    -0.284 NA
ATOM      9  C   UNL     1      -2.940  -0.598   0.626  0.00  0.00    +0.149 C 
ATOM     10  C   UNL     1      -3.854  -1.646  -0.035  0.00  0.00    +0.061 C 
ATOM     11  C   UNL     1      -4.269  -1.026  -1.363  0.00  0.00    +0.130 C 
ATOM     12  C   UNL     1      -4.093   0.463  -1.130  0.00  0.00    +0.116 C 
ENDROOT
BRANCH   9  14
ATOM      4  O   UNL     1      -1.254  -1.128   2.315  0.00  0.00    -0.336 OA
ATOM      7  N   UNL     1      -0.657  -1.669   0.225  0.00  0.00    -0.194 NA
ATOM      8  N   UNL     1       0.028  -1.686   2.408  0.00  0.00    -0.061 NA
ATOM     14  C   UNL     1      -1.582  -1.156   0.997  0.00  0.00    +0.245 A 
ATOM     17  C   UNL     1       0.311  -1.979   1.135  0.00  0.00    +0.176 A 
BRANCH  17  19
ATOM     19  C   UNL     1       1.583  -2.595   0.744  0.00  0.00    +0.116 C 
BRANCH  19  23
ATOM      1 CL   UNL     1       1.559  -2.172  -2.324  0.00  0.00    -0.083 Cl
ATOM      2  F   UNL     1       5.392   0.993  -1.399  0.00  0.00    -0.205 F 
ATOM     23  C   UNL     1       2.599  -1.633   0.136  0.00  0.00    -0.021 A 
ATOM     24  C   UNL     1       2.648  -1.392  -1.237  0.00  0.00    +0.047 A 
ATOM     25  C   UNL     1       3.494  -0.988   0.990  0.00  0.00    +0.008 A 
ATOM     27  C   UNL     1       3.592  -0.505  -1.755  0.00  0.00    +0.058 A 
ATOM     28  C   UNL     1       4.437  -0.102   0.472  0.00  0.00    +0.039 A 
ATOM     29  C   UNL     1       4.486   0.140  -0.901  0.00  0.00    +0.125 A 
ENDBRANCH  19  23
ENDBRANCH  17  19
ENDBRANCH   9  14
BRANCH  11   3
ATOM      3  O   UNL     1      -5.609  -1.355  -1.675  0.00  0.00    -0.390 OA
ATOM     30  H   UNL     1      -5.665  -2.323  -1.735  0.00  0.00    +0.210 HD
ENDBRANCH  11   3
BRANCH   6  13
ATOM     13  C   UNL     1      -2.633   1.805   0.259  0.00  0.00    +0.124 C 
BRANCH  13  15
ATOM     15  C   UNL     1      -1.189   2.010   0.632  0.00  0.00    +0.008 A 
ATOM     16  C   UNL     1      -0.186   1.944  -0.335  0.00  0.00    +0.124 A 
ATOM     18  C   UNL     1      -0.859   2.268   1.963  0.00  0.00    +0.008 A 
ATOM     20  C   UNL     1       1.147   2.136   0.029  0.00  0.00    +0.046 A 
ATOM     21  C   UNL     1       0.474   2.460   2.327  0.00  0.00    +0.001 A 
ATOM     22  C   UNL     1       1.477   2.394   1.359  0.00  0.00    +0.004 A 
BRANCH  16   5
ATOM      5  O   UNL     1      -0.490   1.693  -1.639  0.00  0.00    -0.495 OA
ATOM     26  C   UNL     1      -0.757   2.820  -2.470  0.00  0.00    +0.277 C 
ENDBRANCH  16   5
ENDBRANCH  13  15
ENDBRANCH   6  13
TORSDOF 7
