REMARK  Name = 45783361
REMARK  10 active torsions:
REMARK  status: ('A' for Active; 'I' for Inactive)
REMARK    1  A    between atoms: O_2  and  C_25
REMARK    2  A    between atoms: O_2  and  C_27
REMARK    3  A    between atoms: O_3  and  C_28
REMARK    4  A    between atoms: O_3  and  C_29
REMARK    5  A    between atoms: N_4  and  C_12
REMARK    6  A    between atoms: C_8  and  C_13
REMARK    7  A    between atoms: C_12  and  C_14
REMARK    8  A    between atoms: C_17  and  C_21
REMARK    9  A    between atoms: C_20  and  C_22
REMARK   10  A    between atoms: C_27  and  C_28
REMARK                            x       y       z     vdW  Elec       q    Type
REMARK                         _______ _______ _______ _____ _____    ______ ____
ROOT
ATOM      1  O   UNL     1      -2.553  -0.097   2.356  0.00  0.00    -0.336 OA
ATOM      5  N   UNL     1      -1.118  -0.691   0.742  0.00  0.00    -0.190 NA
ATOM      6  N   UNL     1      -1.291   0.339   2.777  0.00  0.00    -0.056 NA
ATOM     13  C   UNL     1      -2.362  -0.692   1.149  0.00  0.00    +0.245 A 
ATOM     17  C   UNL     1      -0.498  -0.047   1.773  0.00  0.00    +0.202 A 
ENDROOT
BRANCH  17  21
ATOM      7  N   UNL     1       3.672   0.660   1.765  0.00  0.00    -0.221 NA
ATOM     21  C   UNL     1       0.916   0.193   1.770  0.00  0.00    +0.029 A 
ATOM     23  C   UNL     1       1.694  -0.233   0.700  0.00  0.00    +0.079 A 
ATOM     24  C   UNL     1       1.514   0.851   2.839  0.00  0.00    +0.031 A 
ATOM     25  C   UNL     1       3.055   0.023   0.745  0.00  0.00    +0.215 A 
ATOM     26  C   UNL     1       2.883   1.059   2.789  0.00  0.00    +0.115 A 
BRANCH  25   2
ATOM      2  O   UNL     1       3.844  -0.387  -0.298  0.00  0.00    -0.474 OA
BRANCH   2  27
ATOM     27  C   UNL     1       5.234  -0.099  -0.201  0.00  0.00    +0.258 C 
BRANCH  27  28
ATOM     28  C   UNL     1       5.939  -0.645  -1.428  0.00  0.00    +0.200 C 
BRANCH  28   3
ATOM      3  O   UNL     1       5.756  -2.055  -1.479  0.00  0.00    -0.380 OA
ATOM     29  C   UNL     1       6.379  -2.620  -2.624  0.00  0.00    +0.194 C 
ENDBRANCH  28   3
ENDBRANCH  27  28
ENDBRANCH   2  27
ENDBRANCH  25   2
ENDBRANCH  17  21
BRANCH  13   8
ATOM      4  N   UNL     1      -3.469  -1.285  -0.999  0.00  0.00    -0.287 NA
ATOM      8  C   UNL     1      -3.594  -1.255   0.472  0.00  0.00    +0.146 C 
ATOM      9  C   UNL     1      -3.876  -2.715   0.870  0.00  0.00    +0.030 C 
ATOM     10  C   UNL     1      -3.953  -3.478  -0.445  0.00  0.00    +0.017 C 
ATOM     11  C   UNL     1      -4.288  -2.406  -1.461  0.00  0.00    +0.085 C 
BRANCH   4  12
ATOM     12  C   UNL     1      -3.850  -0.030  -1.634  0.00  0.00    +0.120 C 
BRANCH  12  14
ATOM     14  C   UNL     1      -2.751   0.997  -1.551  0.00  0.00    -0.033 A 
ATOM     15  C   UNL     1      -2.986   2.220  -0.924  0.00  0.00    +0.005 A 
ATOM     16  C   UNL     1      -1.499   0.725  -2.103  0.00  0.00    +0.005 A 
ATOM     18  C   UNL     1      -1.969   3.172  -0.849  0.00  0.00    +0.003 A 
ATOM     19  C   UNL     1      -0.482   1.677  -2.028  0.00  0.00    +0.003 A 
ATOM     20  C   UNL     1      -0.717   2.900  -1.401  0.00  0.00    -0.050 A 
ATOM     22  C   UNL     1       0.369   3.919  -1.322  0.00  0.00    +0.044 C 
ENDBRANCH  12  14
ENDBRANCH   4  12
ENDBRANCH  13   8
TORSDOF 8
