MODEL 1
REMARK VINA RESULT:      -6.1      0.000      0.000
REMARK  Name = 75536860
REMARK  4 active torsions:
REMARK  status: ('A' for Active; 'I' for Inactive)
REMARK    1  A    between atoms: O_2  and  C_11
REMARK    2  A    between atoms: O_2  and  C_14
REMARK    3  A    between atoms: N_3  and  C_5
REMARK    4  A    between atoms: C_16  and  C_19
REMARK                            x       y       z     vdW  Elec       q    Type
REMARK                         _______ _______ _______ _____ _____    ______ ____
ROOT
ATOM      1  O   UNL     1      10.709   7.841  21.072  0.00  0.00    -0.375 OA
ATOM      3  N   UNL     1      13.570   7.678  21.919  0.00  0.00    -0.294 NA
ATOM      9  C   UNL     1      13.173   9.091  21.833  0.00  0.00    +0.131 C 
ATOM     10  C   UNL     1      12.968   6.900  20.822  0.00  0.00    +0.113 C 
ATOM     11  C   UNL     1      11.861   9.411  22.558  0.00  0.00    +0.215 C 
ATOM     12  C   UNL     1      11.475   6.642  21.000  0.00  0.00    +0.175 C 
ATOM     13  C   UNL     1      10.719   8.417  22.375  0.00  0.00    +0.205 C 
ENDROOT
BRANCH   3   5
ATOM      5  C   UNL     1      15.039   7.595  21.786  0.00  0.00    +0.057 C 
ATOM      6  C   UNL     1      15.520   8.667  20.783  0.00  0.00    +0.019 C 
ATOM      7  C   UNL     1      15.395   6.541  20.716  0.00  0.00    +0.019 C 
ATOM      8  C   UNL     1      16.415   7.566  20.169  0.00  0.00    +0.003 C 
ENDBRANCH   3   5
BRANCH  11   2
ATOM      2  O   UNL     1      11.404  10.683  22.083  0.00  0.00    -0.469 OA
BRANCH   2  14
ATOM      4  N   UNL     1      10.611  12.797  22.600  0.00  0.00    -0.218 NA
ATOM     14  C   UNL     1      11.087  11.608  23.035  0.00  0.00    +0.215 A 
ATOM     15  C   UNL     1      11.268  11.287  24.371  0.00  0.00    +0.067 A 
ATOM     16  C   UNL     1      10.302  13.706  23.553  0.00  0.00    +0.042 A 
ATOM     17  C   UNL     1      10.939  12.248  25.322  0.00  0.00    +0.007 A 
ATOM     18  C   UNL     1      10.446  13.482  24.913  0.00  0.00    +0.023 A 
ATOM     19  C   UNL     1       9.779  15.020  23.079  0.00  0.00    +0.066 C 
ENDBRANCH   2  14
ENDBRANCH  11   2
TORSDOF 3
ENDMDL
MODEL 2
REMARK VINA RESULT:      -5.9     17.863     20.323
REMARK  Name = 75536860
REMARK  4 active torsions:
REMARK  status: ('A' for Active; 'I' for Inactive)
REMARK    1  A    between atoms: O_2  and  C_11
REMARK    2  A    between atoms: O_2  and  C_14
REMARK    3  A    between atoms: N_3  and  C_5
REMARK    4  A    between atoms: C_16  and  C_19
REMARK                            x       y       z     vdW  Elec       q    Type
REMARK                         _______ _______ _______ _____ _____    ______ ____
ROOT
ATOM      1  O   UNL     1       8.698   7.025   3.579  0.00  0.00    -0.375 OA
ATOM      3  N   UNL     1      10.281   6.295   6.006  0.00  0.00    -0.294 NA
ATOM      9  C   UNL     1      10.257   5.149   5.084  0.00  0.00    +0.131 C 
ATOM     10  C   UNL     1       8.976   6.978   6.023  0.00  0.00    +0.113 C 
ATOM     11  C   UNL     1      10.621   5.508   3.640  0.00  0.00    +0.215 C 
ATOM     12  C   UNL     1       8.701   7.806   4.771  0.00  0.00    +0.175 C 
ATOM     13  C   UNL     1      10.012   6.789   3.079  0.00  0.00    +0.205 C 
ENDROOT
BRANCH   3   5
ATOM      5  C   UNL     1      10.552   5.794   7.370  0.00  0.00    +0.057 C 
ATOM      6  C   UNL     1       9.976   4.368   7.511  0.00  0.00    +0.019 C 
ATOM      7  C   UNL     1       9.428   6.262   8.317  0.00  0.00    +0.019 C 
ATOM      8  C   UNL     1       9.420   4.822   8.880  0.00  0.00    +0.003 C 
ENDBRANCH   3   5
BRANCH  11   2
ATOM      2  O   UNL     1      10.192   4.427   2.805  0.00  0.00    -0.469 OA
BRANCH   2  14
ATOM      4  N   UNL     1      10.523   4.253   0.519  0.00  0.00    -0.218 NA
ATOM     14  C   UNL     1      11.016   4.097   1.767  0.00  0.00    +0.215 A 
ATOM     15  C   UNL     1      12.290   3.627   2.045  0.00  0.00    +0.067 A 
ATOM     16  C   UNL     1      11.349   3.922  -0.500  0.00  0.00    +0.042 A 
ATOM     17  C   UNL     1      13.111   3.297   0.971  0.00  0.00    +0.007 A 
ATOM     18  C   UNL     1      12.638   3.444  -0.329  0.00  0.00    +0.023 A 
ATOM     19  C   UNL     1      10.808   4.090  -1.881  0.00  0.00    +0.066 C 
ENDBRANCH   2  14
ENDBRANCH  11   2
TORSDOF 3
ENDMDL
MODEL 3
REMARK VINA RESULT:      -5.7      1.989      7.017
REMARK  Name = 75536860
REMARK  4 active torsions:
REMARK  status: ('A' for Active; 'I' for Inactive)
REMARK    1  A    between atoms: O_2  and  C_11
REMARK    2  A    between atoms: O_2  and  C_14
REMARK    3  A    between atoms: N_3  and  C_5
REMARK    4  A    between atoms: C_16  and  C_19
REMARK                            x       y       z     vdW  Elec       q    Type
REMARK                         _______ _______ _______ _____ _____    ______ ____
ROOT
ATOM      1  O   UNL     1      11.514   7.262  22.153  0.00  0.00    -0.375 OA
ATOM      3  N   UNL     1      12.263  10.092  21.551  0.00  0.00    -0.294 NA
ATOM      9  C   UNL     1      13.480   9.328  21.861  0.00  0.00    +0.131 C 
ATOM     10  C   UNL     1      11.152   9.681  22.427  0.00  0.00    +0.113 C 
ATOM     11  C   UNL     1      13.594   8.007  21.094  0.00  0.00    +0.215 C 
ATOM     12  C   UNL     1      10.562   8.319  22.071  0.00  0.00    +0.175 C 
ATOM     13  C   UNL     1      12.326   7.166  20.986  0.00  0.00    +0.205 C 
ENDROOT
BRANCH   3   5
ATOM      5  C   UNL     1      12.533  11.524  21.799  0.00  0.00    +0.057 C 
ATOM      6  C   UNL     1      12.689  11.757  23.318  0.00  0.00    +0.019 C 
ATOM      7  C   UNL     1      11.194  12.286  21.895  0.00  0.00    +0.019 C 
ATOM      8  C   UNL     1      11.787  12.998  23.131  0.00  0.00    +0.003 C 
ENDBRANCH   3   5
BRANCH  11   2
ATOM      2  O   UNL     1      14.583   7.208  21.753  0.00  0.00    -0.469 OA
BRANCH   2  14
ATOM      4  N   UNL     1      16.876   6.912  21.608  0.00  0.00    -0.218 NA
ATOM     14  C   UNL     1      15.667   6.845  21.006  0.00  0.00    +0.215 A 
ATOM     15  C   UNL     1      15.474   6.438  19.695  0.00  0.00    +0.067 A 
ATOM     16  C   UNL     1      17.942   6.552  20.857  0.00  0.00    +0.042 A 
ATOM     17  C   UNL     1      16.594   6.075  18.955  0.00  0.00    +0.007 A 
ATOM     18  C   UNL     1      17.855   6.130  19.540  0.00  0.00    +0.023 A 
ATOM     19  C   UNL     1      19.279   6.627  21.515  0.00  0.00    +0.066 C 
ENDBRANCH   2  14
ENDBRANCH  11   2
TORSDOF 3
ENDMDL
MODEL 4
REMARK VINA RESULT:      -5.7      4.122      7.072
REMARK  Name = 75536860
REMARK  4 active torsions:
REMARK  status: ('A' for Active; 'I' for Inactive)
REMARK    1  A    between atoms: O_2  and  C_11
REMARK    2  A    between atoms: O_2  and  C_14
REMARK    3  A    between atoms: N_3  and  C_5
REMARK    4  A    between atoms: C_16  and  C_19
REMARK                            x       y       z     vdW  Elec       q    Type
REMARK                         _______ _______ _______ _____ _____    ______ ____
ROOT
ATOM      1  O   UNL     1      12.350   7.477  21.356  0.00  0.00    -0.375 OA
ATOM      3  N   UNL     1      12.773   8.788  18.703  0.00  0.00    -0.294 NA
ATOM      9  C   UNL     1      14.019   8.862  19.482  0.00  0.00    +0.131 C 
ATOM     10  C   UNL     1      11.602   8.999  19.573  0.00  0.00    +0.113 C 
ATOM     11  C   UNL     1      14.448   7.524  20.092  0.00  0.00    +0.215 C 
ATOM     12  C   UNL     1      11.283   7.808  20.471  0.00  0.00    +0.175 C 
ATOM     13  C   UNL     1      13.350   6.679  20.729  0.00  0.00    +0.205 C 
ENDROOT
BRANCH   3   5
ATOM      5  C   UNL     1      12.789   9.863  17.690  0.00  0.00    +0.057 C 
ATOM      6  C   UNL     1      12.424   9.268  16.312  0.00  0.00    +0.019 C 
ATOM      7  C   UNL     1      14.225  10.036  17.152  0.00  0.00    +0.019 C 
ATOM      8  C   UNL     1      13.597  10.097  15.741  0.00  0.00    +0.003 C 
ENDBRANCH   3   5
BRANCH  11   2
ATOM      2  O   UNL     1      15.418   7.804  21.108  0.00  0.00    -0.469 OA
BRANCH   2  14
ATOM      4  N   UNL     1      17.676   7.898  21.616  0.00  0.00    -0.218 NA
ATOM     14  C   UNL     1      16.684   7.347  20.882  0.00  0.00    +0.215 A 
ATOM     15  C   UNL     1      16.882   6.361  19.928  0.00  0.00    +0.067 A 
ATOM     16  C   UNL     1      18.926   7.437  21.382  0.00  0.00    +0.042 A 
ATOM     17  C   UNL     1      18.181   5.912  19.715  0.00  0.00    +0.007 A 
ATOM     18  C   UNL     1      19.228   6.456  20.451  0.00  0.00    +0.023 A 
ATOM     19  C   UNL     1      20.025   8.045  22.187  0.00  0.00    +0.066 C 
ENDBRANCH   2  14
ENDBRANCH  11   2
TORSDOF 3
ENDMDL
MODEL 5
REMARK VINA RESULT:      -5.6     16.950     19.474
REMARK  Name = 75536860
REMARK  4 active torsions:
REMARK  status: ('A' for Active; 'I' for Inactive)
REMARK    1  A    between atoms: O_2  and  C_11
REMARK    2  A    between atoms: O_2  and  C_14
REMARK    3  A    between atoms: N_3  and  C_5
REMARK    4  A    between atoms: C_16  and  C_19
REMARK                            x       y       z     vdW  Elec       q    Type
REMARK                         _______ _______ _______ _____ _____    ______ ____
ROOT
ATOM      1  O   UNL     1       8.453   7.337   3.769  0.00  0.00    -0.375 OA
ATOM      3  N   UNL     1       9.991   6.889   6.292  0.00  0.00    -0.294 NA
ATOM      9  C   UNL     1      10.314   5.820   5.335  0.00  0.00    +0.131 C 
ATOM     10  C   UNL     1       8.559   7.233   6.225  0.00  0.00    +0.113 C 
ATOM     11  C   UNL     1      10.681   6.331   3.938  0.00  0.00    +0.215 C 
ATOM     12  C   UNL     1       8.179   8.032   4.982  0.00  0.00    +0.175 C 
ATOM     13  C   UNL     1       9.817   7.452   3.371  0.00  0.00    +0.205 C 
ENDROOT
BRANCH   3   5
ATOM      5  C   UNL     1      10.279   6.399   7.657  0.00  0.00    +0.057 C 
ATOM      6  C   UNL     1      10.018   4.878   7.716  0.00  0.00    +0.019 C 
ATOM      7  C   UNL     1       9.023   6.574   8.536  0.00  0.00    +0.019 C 
ATOM      8  C   UNL     1       9.293   5.143   9.055  0.00  0.00    +0.003 C 
ENDBRANCH   3   5
BRANCH  11   2
ATOM      2  O   UNL     1      10.592   5.222   3.036  0.00  0.00    -0.469 OA
BRANCH   2  14
ATOM      4  N   UNL     1      12.741   5.721   2.331  0.00  0.00    -0.218 NA
ATOM     14  C   UNL     1      11.763   4.799   2.476  0.00  0.00    +0.215 A 
ATOM     15  C   UNL     1      11.884   3.473   2.091  0.00  0.00    +0.067 A 
ATOM     16  C   UNL     1      13.896   5.290   1.775  0.00  0.00    +0.042 A 
ATOM     17  C   UNL     1      13.087   3.067   1.523  0.00  0.00    +0.007 A 
ATOM     18  C   UNL     1      14.117   3.987   1.357  0.00  0.00    +0.023 A 
ATOM     19  C   UNL     1      14.978   6.304   1.610  0.00  0.00    +0.066 C 
ENDBRANCH   2  14
ENDBRANCH  11   2
TORSDOF 3
ENDMDL
MODEL 6
REMARK VINA RESULT:      -5.6      2.324      2.934
REMARK  Name = 75536860
REMARK  4 active torsions:
REMARK  status: ('A' for Active; 'I' for Inactive)
REMARK    1  A    between atoms: O_2  and  C_11
REMARK    2  A    between atoms: O_2  and  C_14
REMARK    3  A    between atoms: N_3  and  C_5
REMARK    4  A    between atoms: C_16  and  C_19
REMARK                            x       y       z     vdW  Elec       q    Type
REMARK                         _______ _______ _______ _____ _____    ______ ____
ROOT
ATOM      1  O   UNL     1      14.445   7.727  22.309  0.00  0.00    -0.375 OA
ATOM      3  N   UNL     1      13.709   8.239  19.458  0.00  0.00    -0.294 NA
ATOM      9  C   UNL     1      12.588   8.634  20.323  0.00  0.00    +0.131 C 
ATOM     10  C   UNL     1      14.344   7.007  19.958  0.00  0.00    +0.113 C 
ATOM     11  C   UNL     1      12.998   9.529  21.497  0.00  0.00    +0.215 C 
ATOM     12  C   UNL     1      15.194   7.218  21.208  0.00  0.00    +0.175 C 
ATOM     13  C   UNL     1      14.270   9.139  22.243  0.00  0.00    +0.205 C 
ENDROOT
BRANCH   3   5
ATOM      5  C   UNL     1      13.183   7.964  18.104  0.00  0.00    +0.057 C 
ATOM      6  C   UNL     1      13.600   9.108  17.155  0.00  0.00    +0.019 C 
ATOM      7  C   UNL     1      11.740   8.502  18.000  0.00  0.00    +0.019 C 
ATOM      8  C   UNL     1      12.148   9.080  16.625  0.00  0.00    +0.003 C 
ENDBRANCH   3   5
BRANCH  11   2
ATOM      2  O   UNL     1      11.924   9.517  22.445  0.00  0.00    -0.469 OA
BRANCH   2  14
ATOM      4  N   UNL     1      11.320  11.694  21.933  0.00  0.00    -0.218 NA
ATOM     14  C   UNL     1      11.478  10.735  22.872  0.00  0.00    +0.215 A 
ATOM     15  C   UNL     1      11.217  10.919  24.221  0.00  0.00    +0.067 A 
ATOM     16  C   UNL     1      10.879  12.896  22.369  0.00  0.00    +0.042 A 
ATOM     17  C   UNL     1      10.765  12.169  24.631  0.00  0.00    +0.007 A 
ATOM     18  C   UNL     1      10.590  13.182  23.694  0.00  0.00    +0.023 A 
ATOM     19  C   UNL     1      10.706  13.959  21.337  0.00  0.00    +0.066 C 
ENDBRANCH   2  14
ENDBRANCH  11   2
TORSDOF 3
ENDMDL
MODEL 7
REMARK VINA RESULT:      -5.5     26.244     28.562
REMARK  Name = 75536860
REMARK  4 active torsions:
REMARK  status: ('A' for Active; 'I' for Inactive)
REMARK    1  A    between atoms: O_2  and  C_11
REMARK    2  A    between atoms: O_2  and  C_14
REMARK    3  A    between atoms: N_3  and  C_5
REMARK    4  A    between atoms: C_16  and  C_19
REMARK                            x       y       z     vdW  Elec       q    Type
REMARK                         _______ _______ _______ _____ _____    ______ ____
ROOT
ATOM      1  O   UNL     1      -6.004 -11.844  19.380  0.00  0.00    -0.375 OA
ATOM      3  N   UNL     1      -8.165 -10.944  17.521  0.00  0.00    -0.294 NA
ATOM      9  C   UNL     1      -6.914 -10.253  17.176  0.00  0.00    +0.131 C 
ATOM     10  C   UNL     1      -8.305 -11.069  18.983  0.00  0.00    +0.113 C 
ATOM     11  C   UNL     1      -5.708 -11.187  17.038  0.00  0.00    +0.215 C 
ATOM     12  C   UNL     1      -7.385 -12.118  19.601  0.00  0.00    +0.175 C 
ATOM     13  C   UNL     1      -5.561 -12.276  18.096  0.00  0.00    +0.205 C 
ENDROOT
BRANCH   3   5
ATOM      5  C   UNL     1      -9.299 -10.140  17.021  0.00  0.00    +0.057 C 
ATOM      6  C   UNL     1      -8.820  -8.696  16.755  0.00  0.00    +0.019 C 
ATOM      7  C   UNL     1     -10.093  -9.577  18.219  0.00  0.00    +0.019 C 
ATOM      8  C   UNL     1     -10.113  -8.230  17.461  0.00  0.00    +0.003 C 
ENDBRANCH   3   5
BRANCH  11   2
ATOM      2  O   UNL     1      -4.527 -10.378  17.088  0.00  0.00    -0.469 OA
BRANCH   2  14
ATOM      4  N   UNL     1      -4.159 -10.523  14.806  0.00  0.00    -0.218 NA
ATOM     14  C   UNL     1      -3.645 -10.526  16.056  0.00  0.00    +0.215 A 
ATOM     15  C   UNL     1      -2.296 -10.671  16.341  0.00  0.00    +0.067 A 
ATOM     16  C   UNL     1      -3.276 -10.672  13.793  0.00  0.00    +0.042 A 
ATOM     17  C   UNL     1      -1.419 -10.822  15.272  0.00  0.00    +0.007 A 
ATOM     18  C   UNL     1      -1.910 -10.823  13.971  0.00  0.00    +0.023 A 
ATOM     19  C   UNL     1      -3.837 -10.672  12.410  0.00  0.00    +0.066 C 
ENDBRANCH   2  14
ENDBRANCH  11   2
TORSDOF 3
ENDMDL
MODEL 8
REMARK VINA RESULT:      -5.5     16.850     19.311
REMARK  Name = 75536860
REMARK  4 active torsions:
REMARK  status: ('A' for Active; 'I' for Inactive)
REMARK    1  A    between atoms: O_2  and  C_11
REMARK    2  A    between atoms: O_2  and  C_14
REMARK    3  A    between atoms: N_3  and  C_5
REMARK    4  A    between atoms: C_16  and  C_19
REMARK                            x       y       z     vdW  Elec       q    Type
REMARK                         _______ _______ _______ _____ _____    ______ ____
ROOT
ATOM      1  O   UNL     1      12.048   8.405   5.601  0.00  0.00    -0.375 OA
ATOM      3  N   UNL     1      10.515   6.161   6.843  0.00  0.00    -0.294 NA
ATOM      9  C   UNL     1      10.164   6.252   5.418  0.00  0.00    +0.131 C 
ATOM     10  C   UNL     1      10.670   7.504   7.429  0.00  0.00    +0.113 C 
ATOM     11  C   UNL     1      11.377   6.329   4.486  0.00  0.00    +0.215 C 
ATOM     12  C   UNL     1      11.955   8.211   7.010  0.00  0.00    +0.175 C 
ATOM     13  C   UNL     1      12.517   7.244   4.920  0.00  0.00    +0.205 C 
ENDROOT
BRANCH   3   5
ATOM      5  C   UNL     1       9.414   5.477   7.554  0.00  0.00    +0.057 C 
ATOM      6  C   UNL     1       9.217   6.134   8.938  0.00  0.00    +0.019 C 
ATOM      7  C   UNL     1       9.974   4.248   8.300  0.00  0.00    +0.019 C 
ATOM      8  C   UNL     1       9.123   4.700   9.508  0.00  0.00    +0.003 C 
ENDBRANCH   3   5
BRANCH  11   2
ATOM      2  O   UNL     1      10.915   6.794   3.213  0.00  0.00    -0.469 OA
BRANCH   2  14
ATOM      4  N   UNL     1      11.973   4.979   2.239  0.00  0.00    -0.218 NA
ATOM     14  C   UNL     1      10.993   5.908   2.178  0.00  0.00    +0.215 A 
ATOM     15  C   UNL     1      10.081   6.006   1.138  0.00  0.00    +0.067 A 
ATOM     16  C   UNL     1      12.041   4.107   1.207  0.00  0.00    +0.042 A 
ATOM     17  C   UNL     1      10.183   5.092   0.095  0.00  0.00    +0.007 A 
ATOM     18  C   UNL     1      11.178   4.121   0.122  0.00  0.00    +0.023 A 
ATOM     19  C   UNL     1      13.122   3.081   1.268  0.00  0.00    +0.066 C 
ENDBRANCH   2  14
ENDBRANCH  11   2
TORSDOF 3
ENDMDL
MODEL 9
REMARK VINA RESULT:      -5.5     27.081     28.329
REMARK  Name = 75536860
REMARK  4 active torsions:
REMARK  status: ('A' for Active; 'I' for Inactive)
REMARK    1  A    between atoms: O_2  and  C_11
REMARK    2  A    between atoms: O_2  and  C_14
REMARK    3  A    between atoms: N_3  and  C_5
REMARK    4  A    between atoms: C_16  and  C_19
REMARK                            x       y       z     vdW  Elec       q    Type
REMARK                         _______ _______ _______ _____ _____    ______ ____
ROOT
ATOM      1  O   UNL     1      -7.797 -11.120  14.689  0.00  0.00    -0.375 OA
ATOM      3  N   UNL     1      -5.918 -10.352  16.882  0.00  0.00    -0.294 NA
ATOM      9  C   UNL     1      -5.147 -10.905  15.759  0.00  0.00    +0.131 C 
ATOM     10  C   UNL     1      -7.174 -11.099  17.069  0.00  0.00    +0.113 C 
ATOM     11  C   UNL     1      -5.509 -10.296  14.400  0.00  0.00    +0.215 C 
ATOM     12  C   UNL     1      -8.230 -10.799  16.008  0.00  0.00    +0.175 C 
ATOM     13  C   UNL     1      -6.993 -10.094  14.114  0.00  0.00    +0.205 C 
ENDROOT
BRANCH   3   5
ATOM      5  C   UNL     1      -5.115 -10.492  18.115  0.00  0.00    +0.057 C 
ATOM      6  C   UNL     1      -3.918 -11.427  17.839  0.00  0.00    +0.019 C 
ATOM      7  C   UNL     1      -5.705 -11.625  18.981  0.00  0.00    +0.019 C 
ATOM      8  C   UNL     1      -4.252 -12.108  19.186  0.00  0.00    +0.003 C 
ENDBRANCH   3   5
BRANCH  11   2
ATOM      2  O   UNL     1      -4.990 -11.164  13.385  0.00  0.00    -0.469 OA
BRANCH   2  14
ATOM      4  N   UNL     1      -4.548 -10.033  11.413  0.00  0.00    -0.218 NA
ATOM     14  C   UNL     1      -4.072 -10.621  12.533  0.00  0.00    +0.215 A 
ATOM     15  C   UNL     1      -2.726 -10.701  12.856  0.00  0.00    +0.067 A 
ATOM     16  C   UNL     1      -3.628  -9.500  10.576  0.00  0.00    +0.042 A 
ATOM     17  C   UNL     1      -1.811 -10.142  11.971  0.00  0.00    +0.007 A 
ATOM     18  C   UNL     1      -2.262  -9.528  10.807  0.00  0.00    +0.023 A 
ATOM     19  C   UNL     1      -4.147  -8.853   9.337  0.00  0.00    +0.066 C 
ENDBRANCH   2  14
ENDBRANCH  11   2
TORSDOF 3
ENDMDL
MODEL 10
REMARK VINA RESULT:      -5.2      2.780      7.124
REMARK  Name = 75536860
REMARK  4 active torsions:
REMARK  status: ('A' for Active; 'I' for Inactive)
REMARK    1  A    between atoms: O_2  and  C_11
REMARK    2  A    between atoms: O_2  and  C_14
REMARK    3  A    between atoms: N_3  and  C_5
REMARK    4  A    between atoms: C_16  and  C_19
REMARK                            x       y       z     vdW  Elec       q    Type
REMARK                         _______ _______ _______ _____ _____    ______ ____
ROOT
ATOM      1  O   UNL     1      14.871  12.146  22.270  0.00  0.00    -0.375 OA
ATOM      3  N   UNL     1      12.559  10.253  22.195  0.00  0.00    -0.294 NA
ATOM      9  C   UNL     1      13.571   9.816  21.222  0.00  0.00    +0.131 C 
ATOM     10  C   UNL     1      12.448  11.723  22.206  0.00  0.00    +0.113 C 
ATOM     11  C   UNL     1      14.991   9.746  21.795  0.00  0.00    +0.215 C 
ATOM     12  C   UNL     1      13.619  12.421  22.892  0.00  0.00    +0.175 C 
ATOM     13  C   UNL     1      15.426  10.902  22.689  0.00  0.00    +0.205 C 
ENDROOT
BRANCH   3   5
ATOM      5  C   UNL     1      11.250   9.700  21.790  0.00  0.00    +0.057 C 
ATOM      6  C   UNL     1      10.982   8.399  22.579  0.00  0.00    +0.019 C 
ATOM      7  C   UNL     1      11.435   8.815  20.539  0.00  0.00    +0.019 C 
ATOM      8  C   UNL     1      10.520   7.785  21.238  0.00  0.00    +0.003 C 
ENDBRANCH   3   5
BRANCH  11   2
ATOM      2  O   UNL     1      15.900   9.692  20.690  0.00  0.00    -0.469 OA
BRANCH   2  14
ATOM      4  N   UNL     1      17.708   8.303  21.101  0.00  0.00    -0.218 NA
ATOM     14  C   UNL     1      16.525   8.497  20.476  0.00  0.00    +0.215 A 
ATOM     15  C   UNL     1      15.926   7.565  19.643  0.00  0.00    +0.067 A 
ATOM     16  C   UNL     1      18.318   7.116  20.880  0.00  0.00    +0.042 A 
ATOM     17  C   UNL     1      16.583   6.356  19.441  0.00  0.00    +0.007 A 
ATOM     18  C   UNL     1      17.802   6.120  20.067  0.00  0.00    +0.023 A 
ATOM     19  C   UNL     1      19.625   6.898  21.565  0.00  0.00    +0.066 C 
ENDBRANCH   2  14
ENDBRANCH  11   2
TORSDOF 3
ENDMDL
