REMARK  Name = 11865678
REMARK  8 active torsions:
REMARK  status: ('A' for Active; 'I' for Inactive)
REMARK    1  A    between atoms: O_2  and  C_10
REMARK    2  A    between atoms: O_3  and  C_12
REMARK    3  A    between atoms: N_7  and  C_11
REMARK    4  A    between atoms: N_8  and  C_18
REMARK    5  A    between atoms: C_14  and  C_16
REMARK    6  A    between atoms: C_17  and  C_19
REMARK    7  A    between atoms: C_18  and  C_20
REMARK    8  A    between atoms: C_20  and  C_22
REMARK                            x       y       z     vdW  Elec       q    Type
REMARK                         _______ _______ _______ _____ _____    ______ ____
ROOT
ATOM     10  C   UNL     1      -0.764  -1.830  -0.602  0.00  0.00    +0.167 C 
ATOM     11  C   UNL     1      -1.108  -0.742   0.433  0.00  0.00    +0.128 C 
ATOM     12  C   UNL     1       0.661  -2.363  -0.406  0.00  0.00    +0.149 C 
ATOM     13  C   UNL     1       1.710  -1.238  -0.447  0.00  0.00    +0.074 C 
ATOM     14  C   UNL     1       1.256   0.025   0.229  0.00  0.00    +0.015 C 
ATOM     15  C   UNL     1      -0.001   0.257   0.636  0.00  0.00    +0.006 C 
ENDROOT
BRANCH  14  16
ATOM      4  O   UNL     1       2.152   1.819   1.452  0.00  0.00    -0.271 OA
ATOM      8  N   UNL     1       3.262   1.094  -0.465  0.00  0.00    -0.311 N 
ATOM     16  C   UNL     1       2.253   1.069   0.482  0.00  0.00    +0.240 C 
ATOM     28  H   UNL     1       3.255   0.456  -1.252  0.00  0.00    +0.149 HD
BRANCH   8  18
ATOM     18  C   UNL     1       4.356   2.037  -0.428  0.00  0.00    +0.113 C 
BRANCH  18  20
ATOM     20  C   UNL     1       5.545   1.509   0.363  0.00  0.00    +0.114 C 
BRANCH  20  22
ATOM      6  O   UNL     1       5.657  -0.371  -1.170  0.00  0.00    -0.276 OA
ATOM      9  N   UNL     1       7.183  -0.244   0.544  0.00  0.00    -0.329 N 
ATOM     22  C   UNL     1       6.109   0.213  -0.189  0.00  0.00    +0.212 C 
ATOM     29  H   UNL     1       7.539   0.254   1.354  0.00  0.00    +0.145 HD
ATOM     30  H   UNL     1       7.660  -1.104   0.292  0.00  0.00    +0.145 HD
ENDBRANCH  20  22
ENDBRANCH  18  20
ENDBRANCH   8  18
ENDBRANCH  14  16
BRANCH  11   7
ATOM      5  O   UNL     1      -3.726  -1.478   1.179  0.00  0.00    -0.270 OA
ATOM      7  N   UNL     1      -2.315  -0.035   0.081  0.00  0.00    -0.302 N 
ATOM     17  C   UNL     1      -3.576  -0.466   0.491  0.00  0.00    +0.251 C 
ATOM     25  H   UNL     1      -2.220   0.780  -0.515  0.00  0.00    +0.150 HD
BRANCH  17  19
ATOM      1  S   UNL     1      -6.261  -0.097   0.551  0.00  0.00    -0.092 S 
ATOM     19  C   UNL     1      -4.707   0.378   0.080  0.00  0.00    +0.074 A 
ATOM     21  C   UNL     1      -4.660   1.517  -0.645  0.00  0.00    +0.021 A 
ATOM     23  C   UNL     1      -5.970   2.045  -0.836  0.00  0.00    +0.008 A 
ATOM     24  C   UNL     1      -6.934   1.266  -0.237  0.00  0.00    +0.046 A 
ENDBRANCH  17  19
ENDBRANCH  11   7
BRANCH  10   2
ATOM      2  O   UNL     1      -0.875  -1.290  -1.921  0.00  0.00    -0.387 OA
ATOM     26  H   UNL     1      -0.680  -2.007  -2.548  0.00  0.00    +0.210 HD
ENDBRANCH  10   2
BRANCH  12   3
ATOM      3  O   UNL     1       0.754  -3.074   0.826  0.00  0.00    -0.389 OA
ATOM     27  H   UNL     1       0.091  -3.785   0.804  0.00  0.00    +0.210 HD
ENDBRANCH  12   3
TORSDOF 8
