MODEL 1
REMARK VINA RESULT:      -8.0      0.000      0.000
REMARK  Name = 11865954
REMARK  6 active torsions:
REMARK  status: ('A' for Active; 'I' for Inactive)
REMARK    1  A    between atoms: O_6  and  C_29
REMARK    2  A    between atoms: O_6  and  C_34
REMARK    3  A    between atoms: N_10  and  C_15
REMARK    4  A    between atoms: C_21  and  C_23
REMARK    5  A    between atoms: C_22  and  C_24
REMARK    6  A    between atoms: C_24  and  C_26
REMARK                            x       y       z     vdW  Elec       q    Type
REMARK                         _______ _______ _______ _____ _____    ______ ____
ROOT
ATOM      2  O   UNL     1      15.056   7.785  22.363  0.00  0.00    -0.273 OA
ATOM      3  O   UNL     1      12.091   7.643  17.469  0.00  0.00    -0.274 OA
ATOM      4  O   UNL     1      17.457   9.771  21.004  0.00  0.00    -0.269 OA
ATOM      7  N   UNL     1      13.297   8.103  20.883  0.00  0.00    -0.287 N 
ATOM      8  N   UNL     1      16.938   7.601  20.352  0.00  0.00    -0.284 N 
ATOM      9  N   UNL     1      14.091   6.896  18.209  0.00  0.00    -0.309 N 
ATOM     11  C   UNL     1      15.542   7.856  20.001  0.00  0.00    +0.182 C 
ATOM     12  C   UNL     1      15.111   6.626  19.200  0.00  0.00    +0.104 C 
ATOM     13  C   UNL     1      12.794   8.555  19.581  0.00  0.00    +0.164 C 
ATOM     14  C   UNL     1      11.307   8.864  19.848  0.00  0.00    +0.055 C 
ATOM     15  C   UNL     1      11.245   9.159  21.345  0.00  0.00    +0.092 C 
ATOM     16  C   UNL     1      12.265   8.182  21.910  0.00  0.00    +0.131 C 
ATOM     17  C   UNL     1      16.421   6.128  18.596  0.00  0.00    +0.043 C 
ATOM     18  C   UNL     1      14.635   7.924  21.216  0.00  0.00    +0.239 C 
ATOM     19  C   UNL     1      17.412   6.367  19.727  0.00  0.00    +0.111 C 
ATOM     20  C   UNL     1      12.929   7.613  18.378  0.00  0.00    +0.234 C 
ATOM     21  C   UNL     1      17.730   8.572  20.954  0.00  0.00    +0.254 C 
ATOM     35  H   UNL     1      14.137   6.338  17.362  0.00  0.00    +0.149 HD
ENDROOT
BRANCH  21  23
ATOM      1  S   UNL     1      20.365   9.137  21.473  0.00  0.00    -0.092 S 
ATOM     23  C   UNL     1      18.983   8.138  21.598  0.00  0.00    +0.074 A 
ATOM     25  C   UNL     1      19.225   6.995  22.319  0.00  0.00    +0.021 A 
ATOM     27  C   UNL     1      20.572   6.935  22.781  0.00  0.00    +0.008 A 
ATOM     28  C   UNL     1      21.301   8.036  22.392  0.00  0.00    +0.046 A 
ENDBRANCH  21  23
BRANCH  15  10
ATOM      5  O   UNL     1      10.648  10.636  23.741  0.00  0.00    -0.275 OA
ATOM     10  N   UNL     1      11.606  10.526  21.629  0.00  0.00    -0.311 N 
ATOM     22  C   UNL     1      11.272  11.158  22.821  0.00  0.00    +0.218 C 
ATOM     36  H   UNL     1      12.165  11.026  20.943  0.00  0.00    +0.149 HD
BRANCH  22  24
ATOM     24  C   UNL     1      11.780  12.586  22.857  0.00  0.00    +0.134 C 
BRANCH  24  26
ATOM     26  C   UNL     1      10.700  13.609  22.622  0.00  0.00    +0.003 A 
ATOM     29  C   UNL     1       9.977  14.122  23.690  0.00  0.00    +0.124 A 
ATOM     30  C   UNL     1      10.444  14.025  21.322  0.00  0.00    +0.008 A 
ATOM     31  C   UNL     1       8.980  15.069  23.455  0.00  0.00    +0.046 A 
ATOM     32  C   UNL     1       9.448  14.972  21.086  0.00  0.00    +0.001 A 
ATOM     33  C   UNL     1       8.716  15.494  22.152  0.00  0.00    +0.004 A 
BRANCH  29   6
ATOM      6  O   UNL     1      10.224  13.718  24.967  0.00  0.00    -0.495 OA
ATOM     34  C   UNL     1      10.913  14.636  25.815  0.00  0.00    +0.277 C 
ENDBRANCH  29   6
ENDBRANCH  24  26
ENDBRANCH  22  24
ENDBRANCH  15  10
TORSDOF 5
ENDMDL
MODEL 2
REMARK VINA RESULT:      -7.7     16.020     19.691
REMARK  Name = 11865954
REMARK  6 active torsions:
REMARK  status: ('A' for Active; 'I' for Inactive)
REMARK    1  A    between atoms: O_6  and  C_29
REMARK    2  A    between atoms: O_6  and  C_34
REMARK    3  A    between atoms: N_10  and  C_15
REMARK    4  A    between atoms: C_21  and  C_23
REMARK    5  A    between atoms: C_22  and  C_24
REMARK    6  A    between atoms: C_24  and  C_26
REMARK                            x       y       z     vdW  Elec       q    Type
REMARK                         _______ _______ _______ _____ _____    ______ ____
ROOT
ATOM      2  O   UNL     1      11.603   7.254   0.794  0.00  0.00    -0.273 OA
ATOM      3  O   UNL     1      15.518   7.245   4.969  0.00  0.00    -0.274 OA
ATOM      4  O   UNL     1      11.078   3.908   1.101  0.00  0.00    -0.269 OA
ATOM      7  N   UNL     1      12.610   7.754   2.824  0.00  0.00    -0.287 N 
ATOM      8  N   UNL     1      13.060   4.934   0.450  0.00  0.00    -0.284 N 
ATOM      9  N   UNL     1      15.326   6.393   2.886  0.00  0.00    -0.309 N 
ATOM     11  C   UNL     1      13.252   5.723   1.665  0.00  0.00    +0.182 C 
ATOM     12  C   UNL     1      14.703   6.203   1.593  0.00  0.00    +0.104 C 
ATOM     13  C   UNL     1      13.299   7.321   4.045  0.00  0.00    +0.164 C 
ATOM     14  C   UNL     1      13.008   8.452   5.052  0.00  0.00    +0.055 C 
ATOM     15  C   UNL     1      11.715   9.086   4.546  0.00  0.00    +0.092 C 
ATOM     16  C   UNL     1      11.881   8.999   3.036  0.00  0.00    +0.131 C 
ATOM     17  C   UNL     1      15.382   5.129   0.748  0.00  0.00    +0.043 C 
ATOM     18  C   UNL     1      12.383   6.967   1.700  0.00  0.00    +0.239 C 
ATOM     19  C   UNL     1      14.315   4.808  -0.289  0.00  0.00    +0.111 C 
ATOM     20  C   UNL     1      14.807   7.051   3.976  0.00  0.00    +0.234 C 
ATOM     21  C   UNL     1      11.902   4.196   0.233  0.00  0.00    +0.254 C 
ATOM     35  H   UNL     1      16.322   6.195   2.931  0.00  0.00    +0.149 HD
ENDROOT
BRANCH  21  23
ATOM      1  S   UNL     1      10.661   4.705  -2.161  0.00  0.00    -0.092 S 
ATOM     23  C   UNL     1      11.627   3.733  -1.139  0.00  0.00    +0.074 A 
ATOM     25  C   UNL     1      12.048   2.580  -1.755  0.00  0.00    +0.021 A 
ATOM     27  C   UNL     1      11.570   2.491  -3.095  0.00  0.00    +0.008 A 
ATOM     28  C   UNL     1      10.803   3.580  -3.444  0.00  0.00    +0.046 A 
ENDBRANCH  21  23
BRANCH  15  10
ATOM      5  O   UNL     1      10.015   9.747   6.771  0.00  0.00    -0.275 OA
ATOM     10  N   UNL     1      10.556   8.354   4.995  0.00  0.00    -0.311 N 
ATOM     22  C   UNL     1       9.793   8.753   6.086  0.00  0.00    +0.218 C 
ATOM     36  H   UNL     1      10.268   7.539   4.459  0.00  0.00    +0.149 HD
BRANCH  22  24
ATOM     24  C   UNL     1       8.634   7.806   6.331  0.00  0.00    +0.134 C 
BRANCH  24  26
ATOM     26  C   UNL     1       9.035   6.547   7.053  0.00  0.00    +0.003 A 
ATOM     29  C   UNL     1       9.406   5.417   6.336  0.00  0.00    +0.124 A 
ATOM     30  C   UNL     1       9.027   6.540   8.441  0.00  0.00    +0.008 A 
ATOM     31  C   UNL     1       9.774   4.259   7.020  0.00  0.00    +0.046 A 
ATOM     32  C   UNL     1       9.395   5.381   9.126  0.00  0.00    +0.001 A 
ATOM     33  C   UNL     1       9.768   4.241   8.415  0.00  0.00    +0.004 A 
BRANCH  29   6
ATOM      6  O   UNL     1       9.417   5.418   4.974  0.00  0.00    -0.495 OA
ATOM     34  C   UNL     1      10.519   4.776   4.335  0.00  0.00    +0.277 C 
ENDBRANCH  29   6
ENDBRANCH  24  26
ENDBRANCH  22  24
ENDBRANCH  15  10
TORSDOF 5
ENDMDL
MODEL 3
REMARK VINA RESULT:      -7.7     27.366     30.130
REMARK  Name = 11865954
REMARK  6 active torsions:
REMARK  status: ('A' for Active; 'I' for Inactive)
REMARK    1  A    between atoms: O_6  and  C_29
REMARK    2  A    between atoms: O_6  and  C_34
REMARK    3  A    between atoms: N_10  and  C_15
REMARK    4  A    between atoms: C_21  and  C_23
REMARK    5  A    between atoms: C_22  and  C_24
REMARK    6  A    between atoms: C_24  and  C_26
REMARK                            x       y       z     vdW  Elec       q    Type
REMARK                         _______ _______ _______ _____ _____    ______ ____
ROOT
ATOM      2  O   UNL     1      -6.420 -12.279  15.159  0.00  0.00    -0.273 OA
ATOM      3  O   UNL     1      -1.010 -10.544  15.854  0.00  0.00    -0.274 OA
ATOM      4  O   UNL     1      -7.638  -9.585  16.840  0.00  0.00    -0.269 OA
ATOM      7  N   UNL     1      -4.286 -11.554  14.604  0.00  0.00    -0.287 N 
ATOM      8  N   UNL     1      -6.285 -11.257  17.720  0.00  0.00    -0.284 N 
ATOM      9  N   UNL     1      -2.693 -11.271  17.176  0.00  0.00    -0.309 N 
ATOM     11  C   UNL     1      -5.155 -11.060  16.813  0.00  0.00    +0.182 C 
ATOM     12  C   UNL     1      -3.999 -11.828  17.458  0.00  0.00    +0.104 C 
ATOM     13  C   UNL     1      -3.168 -10.625  14.794  0.00  0.00    +0.164 C 
ATOM     14  C   UNL     1      -2.413 -10.679  13.451  0.00  0.00    +0.055 C 
ATOM     15  C   UNL     1      -3.469 -11.119  12.440  0.00  0.00    +0.092 C 
ATOM     16  C   UNL     1      -4.304 -12.098  13.251  0.00  0.00    +0.131 C 
ATOM     17  C   UNL     1      -4.355 -11.809  18.942  0.00  0.00    +0.043 C 
ATOM     18  C   UNL     1      -5.384 -11.684  15.449  0.00  0.00    +0.239 C 
ATOM     19  C   UNL     1      -5.866 -11.987  18.917  0.00  0.00    +0.111 C 
ATOM     20  C   UNL     1      -2.197 -10.877  15.955  0.00  0.00    +0.234 C 
ATOM     21  C   UNL     1      -7.485 -10.577  17.552  0.00  0.00    +0.254 C 
ATOM     35  H   UNL     1      -2.002 -11.363  17.915  0.00  0.00    +0.149 HD
ENDROOT
BRANCH  21  23
ATOM      1  S   UNL     1      -9.606 -12.318  17.538  0.00  0.00    -0.092 S 
ATOM     23  C   UNL     1      -8.671 -11.085  18.264  0.00  0.00    +0.074 A 
ATOM     25  C   UNL     1      -9.167 -10.701  19.486  0.00  0.00    +0.021 A 
ATOM     27  C   UNL     1     -10.340 -11.432  19.835  0.00  0.00    +0.008 A 
ATOM     28  C   UNL     1     -10.688 -12.344  18.865  0.00  0.00    +0.046 A 
ENDBRANCH  21  23
BRANCH  15  10
ATOM      5  O   UNL     1      -3.263  -9.794   9.894  0.00  0.00    -0.275 OA
ATOM     10  N   UNL     1      -4.259 -10.002  11.981  0.00  0.00    -0.311 N 
ATOM     22  C   UNL     1      -4.086  -9.427  10.728  0.00  0.00    +0.218 C 
ATOM     36  H   UNL     1      -4.999  -9.658  12.587  0.00  0.00    +0.149 HD
BRANCH  22  24
ATOM     24  C   UNL     1      -5.050  -8.278  10.505  0.00  0.00    +0.134 C 
BRANCH  24  26
ATOM     26  C   UNL     1      -6.411  -8.723  10.041  0.00  0.00    +0.003 A 
ATOM     29  C   UNL     1      -7.384  -9.080  10.966  0.00  0.00    +0.124 A 
ATOM     30  C   UNL     1      -6.672  -8.769   8.678  0.00  0.00    +0.008 A 
ATOM     31  C   UNL     1      -8.640  -9.490  10.519  0.00  0.00    +0.046 A 
ATOM     32  C   UNL     1      -7.928  -9.180   8.231  0.00  0.00    +0.001 A 
ATOM     33  C   UNL     1      -8.912  -9.540   9.151  0.00  0.00    +0.004 A 
BRANCH  29   6
ATOM      6  O   UNL     1      -7.135  -9.036  12.304  0.00  0.00    -0.495 OA
ATOM     34  C   UNL     1      -7.982  -9.815  13.146  0.00  0.00    +0.277 C 
ENDBRANCH  29   6
ENDBRANCH  24  26
ENDBRANCH  22  24
ENDBRANCH  15  10
TORSDOF 5
ENDMDL
MODEL 4
REMARK VINA RESULT:      -7.3     27.050     29.927
REMARK  Name = 11865954
REMARK  6 active torsions:
REMARK  status: ('A' for Active; 'I' for Inactive)
REMARK    1  A    between atoms: O_6  and  C_29
REMARK    2  A    between atoms: O_6  and  C_34
REMARK    3  A    between atoms: N_10  and  C_15
REMARK    4  A    between atoms: C_21  and  C_23
REMARK    5  A    between atoms: C_22  and  C_24
REMARK    6  A    between atoms: C_24  and  C_26
REMARK                            x       y       z     vdW  Elec       q    Type
REMARK                         _______ _______ _______ _____ _____    ______ ____
ROOT
ATOM      2  O   UNL     1      -5.382 -12.288  13.934  0.00  0.00    -0.273 OA
ATOM      3  O   UNL     1      -1.007  -9.545  11.464  0.00  0.00    -0.274 OA
ATOM      4  O   UNL     1      -6.246  -9.546  15.750  0.00  0.00    -0.269 OA
ATOM      7  N   UNL     1      -4.081 -11.345  12.260  0.00  0.00    -0.287 N 
ATOM      8  N   UNL     1      -4.255 -10.734  15.919  0.00  0.00    -0.284 N 
ATOM      9  N   UNL     1      -1.552 -10.249  13.541  0.00  0.00    -0.309 N 
ATOM     11  C   UNL     1      -3.825 -10.545  14.535  0.00  0.00    +0.182 C 
ATOM     12  C   UNL     1      -2.348 -10.948  14.528  0.00  0.00    +0.104 C 
ATOM     13  C   UNL     1      -3.300 -10.219  11.735  0.00  0.00    +0.164 C 
ATOM     14  C   UNL     1      -3.333 -10.429  10.209  0.00  0.00    +0.055 C 
ATOM     15  C   UNL     1      -4.597 -11.250   9.966  0.00  0.00    +0.092 C 
ATOM     16  C   UNL     1      -4.630 -12.160  11.183  0.00  0.00    +0.131 C 
ATOM     17  C   UNL     1      -1.907 -10.673  15.963  0.00  0.00    +0.043 C 
ATOM     18  C   UNL     1      -4.534 -11.477  13.569  0.00  0.00    +0.239 C 
ATOM     19  C   UNL     1      -3.124 -11.108  16.767  0.00  0.00    +0.111 C 
ATOM     20  C   UNL     1      -1.853 -10.047  12.214  0.00  0.00    +0.234 C 
ATOM     21  C   UNL     1      -5.508 -10.321  16.358  0.00  0.00    +0.254 C 
ATOM     35  H   UNL     1      -0.588 -10.061  13.801  0.00  0.00    +0.149 HD
ENDROOT
BRANCH  21  23
ATOM      1  S   UNL     1      -6.799 -12.373  17.644  0.00  0.00    -0.092 S 
ATOM     23  C   UNL     1      -6.002 -10.860  17.637  0.00  0.00    +0.074 A 
ATOM     25  C   UNL     1      -5.918 -10.306  18.891  0.00  0.00    +0.021 A 
ATOM     27  C   UNL     1      -6.518 -11.139  19.880  0.00  0.00    +0.008 A 
ATOM     28  C   UNL     1      -7.036 -12.294  19.338  0.00  0.00    +0.046 A 
ENDBRANCH  21  23
BRANCH  15  10
ATOM      5  O   UNL     1      -5.209  -9.302   7.938  0.00  0.00    -0.275 OA
ATOM     10  N   UNL     1      -5.768 -10.409   9.900  0.00  0.00    -0.311 N 
ATOM     22  C   UNL     1      -5.977  -9.493   8.876  0.00  0.00    +0.218 C 
ATOM     36  H   UNL     1      -6.484 -10.530  10.612  0.00  0.00    +0.149 HD
BRANCH  22  24
ATOM     24  C   UNL     1      -7.287  -8.750   9.052  0.00  0.00    +0.134 C 
BRANCH  24  26
ATOM     26  C   UNL     1      -8.036  -8.549   7.762  0.00  0.00    +0.003 A 
ATOM     29  C   UNL     1      -8.374  -7.269   7.340  0.00  0.00    +0.124 A 
ATOM     30  C   UNL     1      -8.380  -9.662   7.007  0.00  0.00    +0.008 A 
ATOM     31  C   UNL     1      -9.068  -7.101   6.142  0.00  0.00    +0.046 A 
ATOM     32  C   UNL     1      -9.074  -9.494   5.808  0.00  0.00    +0.001 A 
ATOM     33  C   UNL     1      -9.418  -8.213   5.377  0.00  0.00    +0.004 A 
BRANCH  29   6
ATOM      6  O   UNL     1      -8.038  -6.173   8.076  0.00  0.00    -0.495 OA
ATOM     34  C   UNL     1      -9.101  -5.304   8.464  0.00  0.00    +0.277 C 
ENDBRANCH  29   6
ENDBRANCH  24  26
ENDBRANCH  22  24
ENDBRANCH  15  10
TORSDOF 5
ENDMDL
MODEL 5
REMARK VINA RESULT:      -7.3     27.960     30.795
REMARK  Name = 11865954
REMARK  6 active torsions:
REMARK  status: ('A' for Active; 'I' for Inactive)
REMARK    1  A    between atoms: O_6  and  C_29
REMARK    2  A    between atoms: O_6  and  C_34
REMARK    3  A    between atoms: N_10  and  C_15
REMARK    4  A    between atoms: C_21  and  C_23
REMARK    5  A    between atoms: C_22  and  C_24
REMARK    6  A    between atoms: C_24  and  C_26
REMARK                            x       y       z     vdW  Elec       q    Type
REMARK                         _______ _______ _______ _____ _____    ______ ____
ROOT
ATOM      2  O   UNL     1      -5.987  -9.613  15.521  0.00  0.00    -0.273 OA
ATOM      3  O   UNL     1      -3.388 -12.269  19.874  0.00  0.00    -0.274 OA
ATOM      4  O   UNL     1      -5.551 -12.282  13.460  0.00  0.00    -0.269 OA
ATOM      7  N   UNL     1      -5.701 -10.585  17.608  0.00  0.00    -0.287 N 
ATOM      8  N   UNL     1      -3.868 -10.986  14.403  0.00  0.00    -0.284 N 
ATOM      9  N   UNL     1      -2.804 -11.471  17.843  0.00  0.00    -0.309 N 
ATOM     11  C   UNL     1      -4.221 -11.234  15.800  0.00  0.00    +0.182 C 
ATOM     12  C   UNL     1      -3.007 -10.757  16.600  0.00  0.00    +0.104 C 
ATOM     13  C   UNL     1      -5.234 -11.699  18.441  0.00  0.00    +0.164 C 
ATOM     14  C   UNL     1      -6.084 -11.582  19.722  0.00  0.00    +0.055 C 
ATOM     15  C   UNL     1      -7.343 -10.843  19.274  0.00  0.00    +0.092 C 
ATOM     16  C   UNL     1      -6.796  -9.865  18.247  0.00  0.00    +0.131 C 
ATOM     17  C   UNL     1      -1.855 -10.924  15.613  0.00  0.00    +0.043 C 
ATOM     18  C   UNL     1      -5.402 -10.399  16.263  0.00  0.00    +0.239 C 
ATOM     19  C   UNL     1      -2.491 -10.504  14.296  0.00  0.00    +0.111 C 
ATOM     20  C   UNL     1      -3.745 -11.767  18.801  0.00  0.00    +0.234 C 
ATOM     21  C   UNL     1      -4.664 -11.435  13.356  0.00  0.00    +0.254 C 
ATOM     35  H   UNL     1      -1.837 -11.594  18.130  0.00  0.00    +0.149 HD
ENDROOT
BRANCH  21  23
ATOM      1  S   UNL     1      -3.683 -11.791  10.818  0.00  0.00    -0.092 S 
ATOM     23  C   UNL     1      -4.446 -10.847  12.023  0.00  0.00    +0.074 A 
ATOM     25  C   UNL     1      -4.778  -9.593  11.574  0.00  0.00    +0.021 A 
ATOM     27  C   UNL     1      -4.399  -9.398  10.214  0.00  0.00    +0.008 A 
ATOM     28  C   UNL     1      -3.794 -10.514   9.681  0.00  0.00    +0.046 A 
ENDBRANCH  21  23
BRANCH  15  10
ATOM      5  O   UNL     1      -9.821 -11.720  20.445  0.00  0.00    -0.275 OA
ATOM     10  N   UNL     1      -8.305 -11.745  18.688  0.00  0.00    -0.311 N 
ATOM     22  C   UNL     1      -9.479 -12.112  19.333  0.00  0.00    +0.218 C 
ATOM     36  H   UNL     1      -8.129 -12.086  17.747  0.00  0.00    +0.149 HD
BRANCH  22  24
ATOM     24  C   UNL     1     -10.305 -13.062  18.489  0.00  0.00    +0.134 C 
BRANCH  24  26
ATOM     26  C   UNL     1      -9.805 -14.482  18.526  0.00  0.00    +0.003 A 
ATOM     29  C   UNL     1      -8.953 -14.950  17.534  0.00  0.00    +0.124 A 
ATOM     30  C   UNL     1     -10.210 -15.307  19.566  0.00  0.00    +0.008 A 
ATOM     31  C   UNL     1      -8.499 -16.268  17.584  0.00  0.00    +0.046 A 
ATOM     32  C   UNL     1      -9.756 -16.626  19.616  0.00  0.00    +0.001 A 
ATOM     33  C   UNL     1      -8.901 -17.106  18.625  0.00  0.00    +0.004 A 
BRANCH  29   6
ATOM      6  O   UNL     1      -8.551 -14.145  16.512  0.00  0.00    -0.495 OA
ATOM     34  C   UNL     1      -7.154 -14.109  16.228  0.00  0.00    +0.277 C 
ENDBRANCH  29   6
ENDBRANCH  24  26
ENDBRANCH  22  24
ENDBRANCH  15  10
TORSDOF 5
ENDMDL
MODEL 6
REMARK VINA RESULT:      -7.3     27.309     30.174
REMARK  Name = 11865954
REMARK  6 active torsions:
REMARK  status: ('A' for Active; 'I' for Inactive)
REMARK    1  A    between atoms: O_6  and  C_29
REMARK    2  A    between atoms: O_6  and  C_34
REMARK    3  A    between atoms: N_10  and  C_15
REMARK    4  A    between atoms: C_21  and  C_23
REMARK    5  A    between atoms: C_22  and  C_24
REMARK    6  A    between atoms: C_24  and  C_26
REMARK                            x       y       z     vdW  Elec       q    Type
REMARK                         _______ _______ _______ _____ _____    ______ ____
ROOT
ATOM      2  O   UNL     1      -4.305  -8.638  10.266  0.00  0.00    -0.273 OA
ATOM      3  O   UNL     1      -3.340 -14.243  10.914  0.00  0.00    -0.274 OA
ATOM      4  O   UNL     1      -7.568  -8.963  11.165  0.00  0.00    -0.269 OA
ATOM      7  N   UNL     1      -3.393 -10.599  11.109  0.00  0.00    -0.287 N 
ATOM      8  N   UNL     1      -6.559  -9.904   9.295  0.00  0.00    -0.284 N 
ATOM      9  N   UNL     1      -4.558 -12.927   9.540  0.00  0.00    -0.309 N 
ATOM     11  C   UNL     1      -5.556 -10.687  10.016  0.00  0.00    +0.182 C 
ATOM     12  C   UNL     1      -5.011 -11.671   8.979  0.00  0.00    +0.104 C 
ATOM     13  C   UNL     1      -3.561 -11.959  11.634  0.00  0.00    +0.164 C 
ATOM     14  C   UNL     1      -2.289 -12.187  12.475  0.00  0.00    +0.055 C 
ATOM     15  C   UNL     1      -1.832 -10.782  12.861  0.00  0.00    +0.092 C 
ATOM     16  C   UNL     1      -2.176  -9.977  11.617  0.00  0.00    +0.131 C 
ATOM     17  C   UNL     1      -6.176 -11.831   8.007  0.00  0.00    +0.043 C 
ATOM     18  C   UNL     1      -4.379  -9.847  10.479  0.00  0.00    +0.239 C 
ATOM     19  C   UNL     1      -6.739 -10.419   7.938  0.00  0.00    +0.111 C 
ATOM     20  C   UNL     1      -3.749 -13.109  10.637  0.00  0.00    +0.234 C 
ATOM     21  C   UNL     1      -7.391  -9.003   9.948  0.00  0.00    +0.254 C 
ATOM     35  H   UNL     1      -4.686 -13.746   8.954  0.00  0.00    +0.149 HD
ENDROOT
BRANCH  21  23
ATOM      1  S   UNL     1      -9.801  -8.144   8.956  0.00  0.00    -0.092 S 
ATOM     23  C   UNL     1      -8.106  -8.007   9.130  0.00  0.00    +0.074 A 
ATOM     25  C   UNL     1      -7.594  -6.930   8.450  0.00  0.00    +0.021 A 
ATOM     27  C   UNL     1      -8.612  -6.199   7.770  0.00  0.00    +0.008 A 
ATOM     28  C   UNL     1      -9.859  -6.751   7.961  0.00  0.00    +0.046 A 
ENDBRANCH  21  23
BRANCH  15  10
ATOM      5  O   UNL     1      -1.280 -11.422  15.612  0.00  0.00    -0.275 OA
ATOM     10  N   UNL     1      -2.541 -10.297  14.020  0.00  0.00    -0.311 N 
ATOM     22  C   UNL     1      -2.199 -10.663  15.316  0.00  0.00    +0.218 C 
ATOM     36  H   UNL     1      -3.291  -9.626  13.876  0.00  0.00    +0.149 HD
BRANCH  22  24
ATOM     24  C   UNL     1      -3.103 -10.003  16.339  0.00  0.00    +0.134 C 
BRANCH  24  26
ATOM     26  C   UNL     1      -4.258 -10.870  16.761  0.00  0.00    +0.003 A 
ATOM     29  C   UNL     1      -5.476 -10.786  16.099  0.00  0.00    +0.124 A 
ATOM     30  C   UNL     1      -4.082 -11.751  17.821  0.00  0.00    +0.008 A 
ATOM     31  C   UNL     1      -6.537 -11.597  16.504  0.00  0.00    +0.046 A 
ATOM     32  C   UNL     1      -5.142 -12.561  18.226  0.00  0.00    +0.001 A 
ATOM     33  C   UNL     1      -6.369 -12.484  17.568  0.00  0.00    +0.004 A 
BRANCH  29   6
ATOM      6  O   UNL     1      -5.655  -9.925  15.059  0.00  0.00    -0.495 OA
ATOM     34  C   UNL     1      -6.099 -10.485  13.825  0.00  0.00    +0.277 C 
ENDBRANCH  29   6
ENDBRANCH  24  26
ENDBRANCH  22  24
ENDBRANCH  15  10
TORSDOF 5
ENDMDL
MODEL 7
REMARK VINA RESULT:      -7.2     27.746     30.443
REMARK  Name = 11865954
REMARK  6 active torsions:
REMARK  status: ('A' for Active; 'I' for Inactive)
REMARK    1  A    between atoms: O_6  and  C_29
REMARK    2  A    between atoms: O_6  and  C_34
REMARK    3  A    between atoms: N_10  and  C_15
REMARK    4  A    between atoms: C_21  and  C_23
REMARK    5  A    between atoms: C_22  and  C_24
REMARK    6  A    between atoms: C_24  and  C_26
REMARK                            x       y       z     vdW  Elec       q    Type
REMARK                         _______ _______ _______ _____ _____    ______ ____
ROOT
ATOM      2  O   UNL     1      -5.980  -9.592  15.554  0.00  0.00    -0.273 OA
ATOM      3  O   UNL     1      -3.311 -12.243  19.868  0.00  0.00    -0.274 OA
ATOM      4  O   UNL     1      -5.600 -12.273  13.498  0.00  0.00    -0.269 OA
ATOM      7  N   UNL     1      -5.659 -10.557  17.640  0.00  0.00    -0.287 N 
ATOM      8  N   UNL     1      -3.891 -10.982  14.401  0.00  0.00    -0.284 N 
ATOM      9  N   UNL     1      -2.762 -11.458  17.821  0.00  0.00    -0.309 N 
ATOM     11  C   UNL     1      -4.219 -11.222  15.806  0.00  0.00    +0.182 C 
ATOM     12  C   UNL     1      -2.987 -10.749  16.580  0.00  0.00    +0.104 C 
ATOM     13  C   UNL     1      -5.182 -11.669  18.469  0.00  0.00    +0.164 C 
ATOM     14  C   UNL     1      -6.006 -11.542  19.765  0.00  0.00    +0.055 C 
ATOM     15  C   UNL     1      -7.270 -10.798  19.339  0.00  0.00    +0.092 C 
ATOM     16  C   UNL     1      -6.737  -9.827  18.297  0.00  0.00    +0.131 C 
ATOM     17  C   UNL     1      -1.855 -10.926  15.571  0.00  0.00    +0.043 C 
ATOM     18  C   UNL     1      -5.385 -10.378  16.288  0.00  0.00    +0.239 C 
ATOM     19  C   UNL     1      -2.515 -10.508  14.265  0.00  0.00    +0.111 C 
ATOM     20  C   UNL     1      -3.686 -11.744  18.799  0.00  0.00    +0.234 C 
ATOM     21  C   UNL     1      -4.711 -11.431  13.372  0.00  0.00    +0.254 C 
ATOM     35  H   UNL     1      -1.791 -11.585  18.091  0.00  0.00    +0.149 HD
ENDROOT
BRANCH  21  23
ATOM      1  S   UNL     1      -3.742 -11.788  10.830  0.00  0.00    -0.092 S 
ATOM     23  C   UNL     1      -4.516 -10.850  12.032  0.00  0.00    +0.074 A 
ATOM     25  C   UNL     1      -4.878  -9.607  11.576  0.00  0.00    +0.021 A 
ATOM     27  C   UNL     1      -4.514  -9.417  10.211  0.00  0.00    +0.008 A 
ATOM     28  C   UNL     1      -3.889 -10.524   9.683  0.00  0.00    +0.046 A 
ENDBRANCH  21  23
BRANCH  15  10
ATOM      5  O   UNL     1      -9.920 -11.307  20.337  0.00  0.00    -0.275 OA
ATOM     10  N   UNL     1      -8.248 -11.698  18.776  0.00  0.00    -0.311 N 
ATOM     22  C   UNL     1      -9.508 -11.878  19.331  0.00  0.00    +0.218 C 
ATOM     36  H   UNL     1      -8.012 -12.181  17.914  0.00  0.00    +0.149 HD
BRANCH  22  24
ATOM     24  C   UNL     1     -10.331 -12.872  18.536  0.00  0.00    +0.134 C 
BRANCH  24  26
ATOM     26  C   UNL     1     -11.268 -12.220  17.554  0.00  0.00    +0.003 A 
ATOM     29  C   UNL     1     -10.798 -11.779  16.324  0.00  0.00    +0.124 A 
ATOM     30  C   UNL     1     -12.604 -12.070  17.902  0.00  0.00    +0.008 A 
ATOM     31  C   UNL     1     -11.680 -11.177  15.426  0.00  0.00    +0.046 A 
ATOM     32  C   UNL     1     -13.486 -11.468  17.004  0.00  0.00    +0.001 A 
ATOM     33  C   UNL     1     -13.024 -11.022  15.767  0.00  0.00    +0.004 A 
BRANCH  29   6
ATOM      6  O   UNL     1      -9.489 -11.925  15.976  0.00  0.00    -0.495 OA
ATOM     34  C   UNL     1      -9.219 -12.526  14.711  0.00  0.00    +0.277 C 
ENDBRANCH  29   6
ENDBRANCH  24  26
ENDBRANCH  22  24
ENDBRANCH  15  10
TORSDOF 5
ENDMDL
MODEL 8
REMARK VINA RESULT:      -7.2     27.231     30.317
REMARK  Name = 11865954
REMARK  6 active torsions:
REMARK  status: ('A' for Active; 'I' for Inactive)
REMARK    1  A    between atoms: O_6  and  C_29
REMARK    2  A    between atoms: O_6  and  C_34
REMARK    3  A    between atoms: N_10  and  C_15
REMARK    4  A    between atoms: C_21  and  C_23
REMARK    5  A    between atoms: C_22  and  C_24
REMARK    6  A    between atoms: C_24  and  C_26
REMARK                            x       y       z     vdW  Elec       q    Type
REMARK                         _______ _______ _______ _____ _____    ______ ____
ROOT
ATOM      2  O   UNL     1      -6.197 -12.179  14.744  0.00  0.00    -0.273 OA
ATOM      3  O   UNL     1      -0.861 -10.481  15.930  0.00  0.00    -0.274 OA
ATOM      4  O   UNL     1      -7.537  -9.382  16.138  0.00  0.00    -0.269 OA
ATOM      7  N   UNL     1      -4.003 -11.514  14.386  0.00  0.00    -0.287 N 
ATOM      8  N   UNL     1      -6.319 -11.021  17.248  0.00  0.00    -0.284 N 
ATOM      9  N   UNL     1      -2.690 -11.112  17.097  0.00  0.00    -0.309 N 
ATOM     11  C   UNL     1      -5.095 -10.889  16.459  0.00  0.00    +0.182 C 
ATOM     12  C   UNL     1      -4.029 -11.635  17.265  0.00  0.00    +0.104 C 
ATOM     13  C   UNL     1      -2.893 -10.590  14.647  0.00  0.00    +0.164 C 
ATOM     14  C   UNL     1      -2.000 -10.727  13.398  0.00  0.00    +0.055 C 
ATOM     15  C   UNL     1      -2.949 -11.208  12.304  0.00  0.00    +0.092 C 
ATOM     16  C   UNL     1      -3.885 -12.130  13.070  0.00  0.00    +0.131 C 
ATOM     17  C   UNL     1      -4.542 -11.530  18.699  0.00  0.00    +0.043 C 
ATOM     18  C   UNL     1      -5.187 -11.583  15.112  0.00  0.00    +0.239 C 
ATOM     19  C   UNL     1      -6.045 -11.690  18.519  0.00  0.00    +0.111 C 
ATOM     20  C   UNL     1      -2.059 -10.792  15.918  0.00  0.00    +0.234 C 
ATOM     21  C   UNL     1      -7.481 -10.335  16.914  0.00  0.00    +0.254 C 
ATOM     35  H   UNL     1      -2.085 -11.173  17.911  0.00  0.00    +0.149 HD
ENDROOT
BRANCH  21  23
ATOM      1  S   UNL     1      -9.508 -12.184  16.894  0.00  0.00    -0.092 S 
ATOM     23  C   UNL     1      -8.746 -10.788  17.520  0.00  0.00    +0.074 A 
ATOM     25  C   UNL     1      -9.444 -10.233  18.564  0.00  0.00    +0.021 A 
ATOM     27  C   UNL     1     -10.630 -10.966  18.858  0.00  0.00    +0.008 A 
ATOM     28  C   UNL     1     -10.787 -12.052  18.026  0.00  0.00    +0.046 A 
ENDBRANCH  21  23
BRANCH  15  10
ATOM      5  O   UNL     1      -3.776 -10.985   9.557  0.00  0.00    -0.275 OA
ATOM     10  N   UNL     1      -3.664 -10.108  11.703  0.00  0.00    -0.311 N 
ATOM     22  C   UNL     1      -4.022 -10.090  10.361  0.00  0.00    +0.218 C 
ATOM     36  H   UNL     1      -3.951  -9.339  12.303  0.00  0.00    +0.149 HD
BRANCH  22  24
ATOM     24  C   UNL     1      -4.767  -8.820  10.000  0.00  0.00    +0.134 C 
BRANCH  24  26
ATOM     26  C   UNL     1      -6.213  -9.055   9.653  0.00  0.00    +0.003 A 
ATOM     29  C   UNL     1      -6.583  -9.330   8.343  0.00  0.00    +0.124 A 
ATOM     30  C   UNL     1      -7.162  -8.992  10.664  0.00  0.00    +0.008 A 
ATOM     31  C   UNL     1      -7.928  -9.546   8.039  0.00  0.00    +0.046 A 
ATOM     32  C   UNL     1      -8.507  -9.207  10.360  0.00  0.00    +0.001 A 
ATOM     33  C   UNL     1      -8.889  -9.484   9.048  0.00  0.00    +0.004 A 
BRANCH  29   6
ATOM      6  O   UNL     1      -5.657  -9.395   7.347  0.00  0.00    -0.495 OA
ATOM     34  C   UNL     1      -5.730 -10.515   6.466  0.00  0.00    +0.277 C 
ENDBRANCH  29   6
ENDBRANCH  24  26
ENDBRANCH  22  24
ENDBRANCH  15  10
TORSDOF 5
ENDMDL
MODEL 9
REMARK VINA RESULT:      -7.2     27.641     30.380
REMARK  Name = 11865954
REMARK  6 active torsions:
REMARK  status: ('A' for Active; 'I' for Inactive)
REMARK    1  A    between atoms: O_6  and  C_29
REMARK    2  A    between atoms: O_6  and  C_34
REMARK    3  A    between atoms: N_10  and  C_15
REMARK    4  A    between atoms: C_21  and  C_23
REMARK    5  A    between atoms: C_22  and  C_24
REMARK    6  A    between atoms: C_24  and  C_26
REMARK                            x       y       z     vdW  Elec       q    Type
REMARK                         _______ _______ _______ _____ _____    ______ ____
ROOT
ATOM      2  O   UNL     1      -5.957  -9.530  15.609  0.00  0.00    -0.273 OA
ATOM      3  O   UNL     1      -3.411 -12.328  19.904  0.00  0.00    -0.274 OA
ATOM      4  O   UNL     1      -5.518 -12.139  13.474  0.00  0.00    -0.269 OA
ATOM      7  N   UNL     1      -5.695 -10.566  17.669  0.00  0.00    -0.287 N 
ATOM      8  N   UNL     1      -3.836 -10.880  14.469  0.00  0.00    -0.284 N 
ATOM      9  N   UNL     1      -2.804 -11.474  17.902  0.00  0.00    -0.309 N 
ATOM     11  C   UNL     1      -4.203 -11.168  15.855  0.00  0.00    +0.182 C 
ATOM     12  C   UNL     1      -2.994 -10.722  16.679  0.00  0.00    +0.104 C 
ATOM     13  C   UNL     1      -5.241 -11.706  18.473  0.00  0.00    +0.164 C 
ATOM     14  C   UNL     1      -6.102 -11.623  19.749  0.00  0.00    +0.055 C 
ATOM     15  C   UNL     1      -7.353 -10.864  19.313  0.00  0.00    +0.092 C 
ATOM     16  C   UNL     1      -6.792  -9.858  18.319  0.00  0.00    +0.131 C 
ATOM     17  C   UNL     1      -1.833 -10.865  15.698  0.00  0.00    +0.043 C 
ATOM     18  C   UNL     1      -5.383 -10.341  16.332  0.00  0.00    +0.239 C 
ATOM     19  C   UNL     1      -2.456 -10.403  14.388  0.00  0.00    +0.111 C 
ATOM     20  C   UNL     1      -3.755 -11.793  18.843  0.00  0.00    +0.234 C 
ATOM     21  C   UNL     1      -4.626 -11.295  13.403  0.00  0.00    +0.254 C 
ATOM     35  H   UNL     1      -1.841 -11.610  18.194  0.00  0.00    +0.149 HD
ENDROOT
BRANCH  21  23
ATOM      1  S   UNL     1      -5.386  -9.363  11.609  0.00  0.00    -0.092 S 
ATOM     23  C   UNL     1      -4.393 -10.668  12.089  0.00  0.00    +0.074 A 
ATOM     25  C   UNL     1      -3.452 -10.988  11.142  0.00  0.00    +0.021 A 
ATOM     27  C   UNL     1      -3.546 -10.146   9.996  0.00  0.00    +0.008 A 
ATOM     28  C   UNL     1      -4.556  -9.218  10.118  0.00  0.00    +0.046 A 
ENDBRANCH  21  23
BRANCH  15  10
ATOM      5  O   UNL     1     -10.034 -11.398  20.212  0.00  0.00    -0.275 OA
ATOM     10  N   UNL     1      -8.314 -11.743  18.692  0.00  0.00    -0.311 N 
ATOM     22  C   UNL     1      -9.591 -11.937  19.202  0.00  0.00    +0.218 C 
ATOM     36  H   UNL     1      -8.052 -12.200  17.822  0.00  0.00    +0.149 HD
BRANCH  22  24
ATOM     24  C   UNL     1     -10.391 -12.904  18.350  0.00  0.00    +0.134 C 
BRANCH  24  26
ATOM     26  C   UNL     1     -10.733 -12.359  16.990  0.00  0.00    +0.003 A 
ATOM     29  C   UNL     1     -10.148 -12.897  15.851  0.00  0.00    +0.124 A 
ATOM     30  C   UNL     1     -11.640 -11.312  16.898  0.00  0.00    +0.008 A 
ATOM     31  C   UNL     1     -10.477 -12.380  14.598  0.00  0.00    +0.046 A 
ATOM     32  C   UNL     1     -11.969 -10.794  15.645  0.00  0.00    +0.001 A 
ATOM     33  C   UNL     1     -11.387 -11.327  14.496  0.00  0.00    +0.004 A 
BRANCH  29   6
ATOM      6  O   UNL     1      -9.258 -13.925  15.935  0.00  0.00    -0.495 OA
ATOM     34  C   UNL     1      -7.896 -13.627  15.638  0.00  0.00    +0.277 C 
ENDBRANCH  29   6
ENDBRANCH  24  26
ENDBRANCH  22  24
ENDBRANCH  15  10
TORSDOF 5
ENDMDL
MODEL 10
REMARK VINA RESULT:      -7.1     27.661     30.533
REMARK  Name = 11865954
REMARK  6 active torsions:
REMARK  status: ('A' for Active; 'I' for Inactive)
REMARK    1  A    between atoms: O_6  and  C_29
REMARK    2  A    between atoms: O_6  and  C_34
REMARK    3  A    between atoms: N_10  and  C_15
REMARK    4  A    between atoms: C_21  and  C_23
REMARK    5  A    between atoms: C_22  and  C_24
REMARK    6  A    between atoms: C_24  and  C_26
REMARK                            x       y       z     vdW  Elec       q    Type
REMARK                         _______ _______ _______ _____ _____    ______ ____
ROOT
ATOM      2  O   UNL     1      -5.880  -9.547  15.606  0.00  0.00    -0.273 OA
ATOM      3  O   UNL     1      -3.333 -12.339  19.905  0.00  0.00    -0.274 OA
ATOM      4  O   UNL     1      -5.322 -12.107  13.440  0.00  0.00    -0.269 OA
ATOM      7  N   UNL     1      -5.626 -10.608  17.655  0.00  0.00    -0.287 N 
ATOM      8  N   UNL     1      -3.698 -10.816  14.487  0.00  0.00    -0.284 N 
ATOM      9  N   UNL     1      -2.714 -11.434  17.929  0.00  0.00    -0.309 N 
ATOM     11  C   UNL     1      -4.082 -11.137  15.860  0.00  0.00    +0.182 C 
ATOM     12  C   UNL     1      -2.903 -10.669  16.715  0.00  0.00    +0.104 C 
ATOM     13  C   UNL     1      -5.153 -11.748  18.449  0.00  0.00    +0.164 C 
ATOM     14  C   UNL     1      -6.040 -11.711  19.709  0.00  0.00    +0.055 C 
ATOM     15  C   UNL     1      -7.305 -10.982  19.261  0.00  0.00    +0.092 C 
ATOM     16  C   UNL     1      -6.755  -9.944  18.294  0.00  0.00    +0.131 C 
ATOM     17  C   UNL     1      -1.720 -10.761  15.754  0.00  0.00    +0.043 C 
ATOM     18  C   UNL     1      -5.295 -10.353  16.328  0.00  0.00    +0.239 C 
ATOM     19  C   UNL     1      -2.332 -10.297  14.440  0.00  0.00    +0.111 C 
ATOM     20  C   UNL     1      -3.673 -11.797  18.846  0.00  0.00    +0.234 C 
ATOM     21  C   UNL     1      -4.454 -11.235  13.399  0.00  0.00    +0.254 C 
ATOM     35  H   UNL     1      -1.753 -11.547  18.238  0.00  0.00    +0.149 HD
ENDROOT
BRANCH  21  23
ATOM      1  S   UNL     1      -5.265  -9.327  11.601  0.00  0.00    -0.092 S 
ATOM     23  C   UNL     1      -4.215 -10.581  12.100  0.00  0.00    +0.074 A 
ATOM     25  C   UNL     1      -3.228 -10.836  11.180  0.00  0.00    +0.021 A 
ATOM     27  C   UNL     1      -3.333  -9.986  10.041  0.00  0.00    +0.008 A 
ATOM     28  C   UNL     1      -4.396  -9.118  10.140  0.00  0.00    +0.046 A 
ENDBRANCH  21  23
BRANCH  15  10
ATOM      5  O   UNL     1      -8.608 -13.266  20.429  0.00  0.00    -0.275 OA
ATOM     10  N   UNL     1      -8.228 -11.879  18.607  0.00  0.00    -0.311 N 
ATOM     22  C   UNL     1      -8.809 -12.960  19.257  0.00  0.00    +0.218 C 
ATOM     36  H   UNL     1      -8.490 -11.678  17.646  0.00  0.00    +0.149 HD
BRANCH  22  24
ATOM     24  C   UNL     1      -9.740 -13.728  18.338  0.00  0.00    +0.134 C 
BRANCH  24  26
ATOM     26  C   UNL     1      -9.015 -14.533  17.293  0.00  0.00    +0.003 A 
ATOM     29  C   UNL     1      -8.873 -14.039  16.002  0.00  0.00    +0.124 A 
ATOM     30  C   UNL     1      -8.495 -15.772  17.643  0.00  0.00    +0.008 A 
ATOM     31  C   UNL     1      -8.199 -14.799  15.046  0.00  0.00    +0.046 A 
ATOM     32  C   UNL     1      -7.821 -16.531  16.687  0.00  0.00    +0.001 A 
ATOM     33  C   UNL     1      -7.673 -16.045  15.388  0.00  0.00    +0.004 A 
BRANCH  29   6
ATOM      6  O   UNL     1      -9.380 -12.825  15.653  0.00  0.00    -0.495 OA
ATOM     34  C   UNL     1      -8.477 -11.894  15.058  0.00  0.00    +0.277 C 
ENDBRANCH  29   6
ENDBRANCH  24  26
ENDBRANCH  22  24
ENDBRANCH  15  10
TORSDOF 5
ENDMDL
