MODEL 1
REMARK VINA RESULT:      -8.1      0.000      0.000
REMARK  Name = 11885876
REMARK  4 active torsions:
REMARK  status: ('A' for Active; 'I' for Inactive)
REMARK    1  A    between atoms: N_7  and  C_19
REMARK    2  A    between atoms: C_18  and  C_21
REMARK    3  A    between atoms: C_24  and  C_28
REMARK    4  A    between atoms: C_33  and  C_34
REMARK                            x       y       z     vdW  Elec       q    Type
REMARK                         _______ _______ _______ _____ _____    ______ ____
ROOT
ATOM      2  O   UNL     1      15.519   6.238  21.303  0.00  0.00    -0.266 OA
ATOM      3  O   UNL     1      11.823   7.158  17.802  0.00  0.00    -0.270 OA
ATOM      5  N   UNL     1      11.714   8.852  19.412  0.00  0.00    -0.297 N 
ATOM      6  N   UNL     1      14.165   8.141  21.296  0.00  0.00    -0.310 N 
ATOM      9  C   UNL     1      11.650   8.053  21.769  0.00  0.00    +0.027 C 
ATOM     10  C   UNL     1      12.720  10.205  21.235  0.00  0.00    +0.054 C 
ATOM     11  C   UNL     1      11.833   9.487  22.252  0.00  0.00    +0.018 C 
ATOM     12  C   UNL     1      10.982   8.036  20.380  0.00  0.00    +0.113 C 
ATOM     13  C   UNL     1      13.015   7.355  21.761  0.00  0.00    +0.130 C 
ATOM     14  C   UNL     1      12.023  10.219  19.860  0.00  0.00    +0.117 C 
ATOM     15  C   UNL     1      14.072   9.526  21.115  0.00  0.00    +0.027 A 
ATOM     16  C   UNL     1      15.163  10.242  20.801  0.00  0.00    +0.024 A 
ATOM     17  C   UNL     1      15.384   7.451  21.140  0.00  0.00    +0.273 A 
ATOM     18  C   UNL     1      12.078   8.299  18.182  0.00  0.00    +0.247 C 
ATOM     19  C   UNL     1      16.571   8.282  20.762  0.00  0.00    +0.099 A 
ATOM     20  C   UNL     1      16.438   9.605  20.621  0.00  0.00    +0.030 A 
ENDROOT
BRANCH  18  21
ATOM      1  F   UNL     1      15.021  11.479  14.648  0.00  0.00    -0.205 F 
ATOM     21  C   UNL     1      12.850   9.133  17.256  0.00  0.00    +0.037 A 
ATOM     22  C   UNL     1      14.145   9.523  17.589  0.00  0.00    +0.016 A 
ATOM     23  C   UNL     1      12.285   9.530  16.046  0.00  0.00    +0.016 A 
ATOM     25  C   UNL     1      14.878  10.316  16.707  0.00  0.00    +0.039 A 
ATOM     26  C   UNL     1      13.018  10.323  15.165  0.00  0.00    +0.039 A 
ATOM     27  C   UNL     1      14.315  10.717  15.494  0.00  0.00    +0.123 A 
ENDBRANCH  18  21
BRANCH  19   7
ATOM      4  O   UNL     1      18.927   8.655  22.329  0.00  0.00    -0.270 OA
ATOM      7  N   UNL     1      17.766   7.647  20.584  0.00  0.00    -0.277 N 
ATOM     24  C   UNL     1      18.879   7.874  21.383  0.00  0.00    +0.248 C 
ATOM     35  H   UNL     1      17.841   7.102  19.732  0.00  0.00    +0.155 HD
BRANCH  24  28
ATOM     28  C   UNL     1      20.084   7.071  21.049  0.00  0.00    +0.037 A 
ATOM     29  C   UNL     1      21.307   7.706  20.979  0.00  0.00    +0.014 A 
ATOM     30  C   UNL     1      19.942   5.719  20.819  0.00  0.00    +0.014 A 
ATOM     31  C   UNL     1      22.438   6.954  20.665  0.00  0.00    +0.019 A 
ATOM     32  C   UNL     1      21.074   4.967  20.505  0.00  0.00    +0.019 A 
ATOM     33  C   UNL     1      22.323   5.585  20.428  0.00  0.00    +0.052 A 
BRANCH  33  34
ATOM      8  N   UNL     1      24.424   4.187  19.845  0.00  0.00    -0.191 NA
ATOM     34  C   UNL     1      23.481   4.813  20.107  0.00  0.00    +0.099 C 
ENDBRANCH  33  34
ENDBRANCH  24  28
ENDBRANCH  19   7
TORSDOF 4
ENDMDL
MODEL 2
REMARK VINA RESULT:      -7.9      2.425      3.332
REMARK  Name = 11885876
REMARK  4 active torsions:
REMARK  status: ('A' for Active; 'I' for Inactive)
REMARK    1  A    between atoms: N_7  and  C_19
REMARK    2  A    between atoms: C_18  and  C_21
REMARK    3  A    between atoms: C_24  and  C_28
REMARK    4  A    between atoms: C_33  and  C_34
REMARK                            x       y       z     vdW  Elec       q    Type
REMARK                         _______ _______ _______ _____ _____    ______ ____
ROOT
ATOM      2  O   UNL     1      15.794   6.179  19.007  0.00  0.00    -0.266 OA
ATOM      3  O   UNL     1      14.981  10.748  16.721  0.00  0.00    -0.270 OA
ATOM      5  N   UNL     1      13.249  10.404  18.257  0.00  0.00    -0.297 N 
ATOM      6  N   UNL     1      14.093   7.662  19.610  0.00  0.00    -0.310 N 
ATOM      9  C   UNL     1      12.114   8.197  18.076  0.00  0.00    +0.027 C 
ATOM     10  C   UNL     1      12.296   9.302  20.268  0.00  0.00    +0.054 C 
ATOM     11  C   UNL     1      11.367   8.482  19.374  0.00  0.00    +0.018 C 
ATOM     12  C   UNL     1      12.496   9.514  17.375  0.00  0.00    +0.113 C 
ATOM     13  C   UNL     1      13.341   7.334  18.391  0.00  0.00    +0.130 C 
ATOM     14  C   UNL     1      12.637  10.636  19.575  0.00  0.00    +0.117 C 
ATOM     15  C   UNL     1      13.575   8.541  20.567  0.00  0.00    +0.027 A 
ATOM     16  C   UNL     1      14.223   8.738  21.727  0.00  0.00    +0.024 A 
ATOM     17  C   UNL     1      15.306   6.974  19.812  0.00  0.00    +0.273 A 
ATOM     18  C   UNL     1      14.464  10.939  17.821  0.00  0.00    +0.247 C 
ATOM     19  C   UNL     1      16.013   7.242  21.105  0.00  0.00    +0.099 A 
ATOM     20  C   UNL     1      15.468   8.074  21.998  0.00  0.00    +0.030 A 
ENDROOT
BRANCH  18  21
ATOM      1  F   UNL     1      17.321  14.187  21.363  0.00  0.00    -0.205 F 
ATOM     21  C   UNL     1      15.213  11.790  18.750  0.00  0.00    +0.037 A 
ATOM     22  C   UNL     1      16.094  11.214  19.662  0.00  0.00    +0.016 A 
ATOM     23  C   UNL     1      15.041  13.172  18.715  0.00  0.00    +0.016 A 
ATOM     25  C   UNL     1      16.806  12.024  20.546  0.00  0.00    +0.039 A 
ATOM     26  C   UNL     1      15.753  13.982  19.599  0.00  0.00    +0.039 A 
ATOM     27  C   UNL     1      16.636  13.409  20.515  0.00  0.00    +0.123 A 
ENDBRANCH  18  21
BRANCH  19   7
ATOM      4  O   UNL     1      18.606   8.425  20.964  0.00  0.00    -0.270 OA
ATOM      7  N   UNL     1      17.200   6.608  21.329  0.00  0.00    -0.277 N 
ATOM     24  C   UNL     1      18.433   7.242  21.244  0.00  0.00    +0.248 C 
ATOM     35  H   UNL     1      17.140   5.600  21.418  0.00  0.00    +0.155 HD
BRANCH  24  28
ATOM     28  C   UNL     1      19.614   6.393  21.545  0.00  0.00    +0.037 A 
ATOM     29  C   UNL     1      20.016   5.458  20.613  0.00  0.00    +0.014 A 
ATOM     30  C   UNL     1      20.271   6.566  22.745  0.00  0.00    +0.014 A 
ATOM     31  C   UNL     1      21.124   4.660  20.895  0.00  0.00    +0.019 A 
ATOM     32  C   UNL     1      21.380   5.768  23.026  0.00  0.00    +0.019 A 
ATOM     33  C   UNL     1      21.807   4.815  22.101  0.00  0.00    +0.052 A 
BRANCH  33  34
ATOM      8  N   UNL     1      23.866   3.334  22.627  0.00  0.00    -0.191 NA
ATOM     34  C   UNL     1      22.943   3.998  22.390  0.00  0.00    +0.099 C 
ENDBRANCH  33  34
ENDBRANCH  24  28
ENDBRANCH  19   7
TORSDOF 4
ENDMDL
MODEL 3
REMARK VINA RESULT:      -7.7      3.800      7.764
REMARK  Name = 11885876
REMARK  4 active torsions:
REMARK  status: ('A' for Active; 'I' for Inactive)
REMARK    1  A    between atoms: N_7  and  C_19
REMARK    2  A    between atoms: C_18  and  C_21
REMARK    3  A    between atoms: C_24  and  C_28
REMARK    4  A    between atoms: C_33  and  C_34
REMARK                            x       y       z     vdW  Elec       q    Type
REMARK                         _______ _______ _______ _____ _____    ______ ____
ROOT
ATOM      2  O   UNL     1      13.749  11.886  18.144  0.00  0.00    -0.266 OA
ATOM      3  O   UNL     1      15.550   9.295  22.244  0.00  0.00    -0.270 OA
ATOM      5  N   UNL     1      13.678   8.143  21.442  0.00  0.00    -0.297 N 
ATOM      6  N   UNL     1      12.908   9.831  18.869  0.00  0.00    -0.310 N 
ATOM      9  C   UNL     1      11.657   9.551  21.086  0.00  0.00    +0.027 C 
ATOM     10  C   UNL     1      12.052   7.592  19.648  0.00  0.00    +0.054 C 
ATOM     11  C   UNL     1      10.972   8.380  20.389  0.00  0.00    +0.018 C 
ATOM     12  C   UNL     1      12.716   9.040  22.081  0.00  0.00    +0.113 C 
ATOM     13  C   UNL     1      12.263  10.474  20.021  0.00  0.00    +0.130 C 
ATOM     14  C   UNL     1      13.082   7.050  20.658  0.00  0.00    +0.117 C 
ATOM     15  C   UNL     1      12.753   8.462  18.621  0.00  0.00    +0.027 A 
ATOM     16  C   UNL     1      13.254   7.917  17.501  0.00  0.00    +0.024 A 
ATOM     17  C   UNL     1      13.601  10.674  17.978  0.00  0.00    +0.273 A 
ATOM     18  C   UNL     1      15.046   8.383  21.591  0.00  0.00    +0.247 C 
ATOM     19  C   UNL     1      14.168  10.022  16.755  0.00  0.00    +0.099 A 
ATOM     20  C   UNL     1      13.976   8.715  16.550  0.00  0.00    +0.030 A 
ENDROOT
BRANCH  18  21
ATOM      1  F   UNL     1      18.607   4.976  18.951  0.00  0.00    -0.205 F 
ATOM     21  C   UNL     1      15.980   7.489  20.898  0.00  0.00    +0.037 A 
ATOM     22  C   UNL     1      15.628   6.938  19.668  0.00  0.00    +0.016 A 
ATOM     23  C   UNL     1      17.214   7.197  21.473  0.00  0.00    +0.016 A 
ATOM     25  C   UNL     1      16.517   6.088  19.010  0.00  0.00    +0.039 A 
ATOM     26  C   UNL     1      18.102   6.347  20.815  0.00  0.00    +0.039 A 
ATOM     27  C   UNL     1      17.755   5.792  19.583  0.00  0.00    +0.123 A 
ENDBRANCH  18  21
BRANCH  19   7
ATOM      4  O   UNL     1      13.172  11.094  14.304  0.00  0.00    -0.270 OA
ATOM      7  N   UNL     1      14.862  10.803  15.876  0.00  0.00    -0.277 N 
ATOM     24  C   UNL     1      14.319  11.295  14.697  0.00  0.00    +0.248 C 
ATOM     35  H   UNL     1      15.855  10.883  16.063  0.00  0.00    +0.155 HD
BRANCH  24  28
ATOM     28  C   UNL     1      15.221  12.146  13.880  0.00  0.00    +0.037 A 
ATOM     29  C   UNL     1      15.495  11.770  12.581  0.00  0.00    +0.014 A 
ATOM     30  C   UNL     1      15.756  13.284  14.445  0.00  0.00    +0.014 A 
ATOM     31  C   UNL     1      16.342  12.568  11.813  0.00  0.00    +0.019 A 
ATOM     32  C   UNL     1      16.604  14.083  13.677  0.00  0.00    +0.019 A 
ATOM     33  C   UNL     1      16.896  13.725  12.360  0.00  0.00    +0.052 A 
BRANCH  33  34
ATOM      8  N   UNL     1      18.471  15.210  10.937  0.00  0.00    -0.191 NA
ATOM     34  C   UNL     1      17.764  14.544  11.575  0.00  0.00    +0.099 C 
ENDBRANCH  33  34
ENDBRANCH  24  28
ENDBRANCH  19   7
TORSDOF 4
ENDMDL
MODEL 4
REMARK VINA RESULT:      -7.6     31.753     33.421
REMARK  Name = 11885876
REMARK  4 active torsions:
REMARK  status: ('A' for Active; 'I' for Inactive)
REMARK    1  A    between atoms: N_7  and  C_19
REMARK    2  A    between atoms: C_18  and  C_21
REMARK    3  A    between atoms: C_24  and  C_28
REMARK    4  A    between atoms: C_33  and  C_34
REMARK                            x       y       z     vdW  Elec       q    Type
REMARK                         _______ _______ _______ _____ _____    ______ ____
ROOT
ATOM      2  O   UNL     1     -12.131  -7.454   9.374  0.00  0.00    -0.266 OA
ATOM      3  O   UNL     1     -16.621  -5.072  10.341  0.00  0.00    -0.270 OA
ATOM      5  N   UNL     1     -15.022  -4.199  11.810  0.00  0.00    -0.297 N 
ATOM      6  N   UNL     1     -12.380  -5.688  10.882  0.00  0.00    -0.310 N 
ATOM      9  C   UNL     1     -13.709  -5.903  13.060  0.00  0.00    +0.027 C 
ATOM     10  C   UNL     1     -12.670  -3.751  12.468  0.00  0.00    +0.054 C 
ATOM     11  C   UNL     1     -12.782  -4.805  13.569  0.00  0.00    +0.018 C 
ATOM     12  C   UNL     1     -15.100  -5.325  12.739  0.00  0.00    +0.113 C 
ATOM     13  C   UNL     1     -13.064  -6.568  11.838  0.00  0.00    +0.130 C 
ATOM     14  C   UNL     1     -14.061  -3.150  12.185  0.00  0.00    +0.117 C 
ATOM     15  C   UNL     1     -12.105  -4.352  11.195  0.00  0.00    +0.027 A 
ATOM     16  C   UNL     1     -11.377  -3.597  10.355  0.00  0.00    +0.024 A 
ATOM     17  C   UNL     1     -11.929  -6.280   9.685  0.00  0.00    +0.273 A 
ATOM     18  C   UNL     1     -15.816  -4.198  10.661  0.00  0.00    +0.247 C 
ATOM     19  C   UNL     1     -11.145  -5.396   8.764  0.00  0.00    +0.099 A 
ATOM     20  C   UNL     1     -10.890  -4.132   9.115  0.00  0.00    +0.030 A 
ENDROOT
BRANCH  18  21
ATOM      1  F   UNL     1     -15.286   0.090   7.112  0.00  0.00    -0.205 F 
ATOM     21  C   UNL     1     -15.677  -3.073   9.730  0.00  0.00    +0.037 A 
ATOM     22  C   UNL     1     -16.471  -1.940   9.889  0.00  0.00    +0.016 A 
ATOM     23  C   UNL     1     -14.752  -3.144   8.692  0.00  0.00    +0.016 A 
ATOM     25  C   UNL     1     -16.338  -0.871   9.004  0.00  0.00    +0.039 A 
ATOM     26  C   UNL     1     -14.619  -2.075   7.806  0.00  0.00    +0.039 A 
ATOM     27  C   UNL     1     -15.412  -0.938   7.961  0.00  0.00    +0.123 A 
ENDBRANCH  18  21
BRANCH  19   7
ATOM      4  O   UNL     1      -8.649  -6.711   8.336  0.00  0.00    -0.270 OA
ATOM      7  N   UNL     1     -10.707  -5.928   7.586  0.00  0.00    -0.277 N 
ATOM     24  C   UNL     1      -9.477  -6.558   7.443  0.00  0.00    +0.248 C 
ATOM     35  H   UNL     1     -11.273  -5.706   6.775  0.00  0.00    +0.155 HD
BRANCH  24  28
ATOM     28  C   UNL     1      -9.184  -7.094   6.089  0.00  0.00    +0.037 A 
ATOM     29  C   UNL     1      -7.965  -7.699   5.862  0.00  0.00    +0.014 A 
ATOM     30  C   UNL     1     -10.139  -6.971   5.102  0.00  0.00    +0.014 A 
ATOM     31  C   UNL     1      -7.689  -8.202   4.591  0.00  0.00    +0.019 A 
ATOM     32  C   UNL     1      -9.863  -7.475   3.830  0.00  0.00    +0.019 A 
ATOM     33  C   UNL     1      -8.637  -8.091   3.575  0.00  0.00    +0.052 A 
BRANCH  33  34
ATOM      8  N   UNL     1      -8.126  -9.025   1.214  0.00  0.00    -0.191 NA
ATOM     34  C   UNL     1      -8.356  -8.606   2.273  0.00  0.00    +0.099 C 
ENDBRANCH  33  34
ENDBRANCH  24  28
ENDBRANCH  19   7
TORSDOF 4
ENDMDL
MODEL 5
REMARK VINA RESULT:      -7.5      4.123      8.741
REMARK  Name = 11885876
REMARK  4 active torsions:
REMARK  status: ('A' for Active; 'I' for Inactive)
REMARK    1  A    between atoms: N_7  and  C_19
REMARK    2  A    between atoms: C_18  and  C_21
REMARK    3  A    between atoms: C_24  and  C_28
REMARK    4  A    between atoms: C_33  and  C_34
REMARK                            x       y       z     vdW  Elec       q    Type
REMARK                         _______ _______ _______ _____ _____    ______ ____
ROOT
ATOM      2  O   UNL     1      13.560   8.645  16.392  0.00  0.00    -0.266 OA
ATOM      3  O   UNL     1      11.342   7.484  20.920  0.00  0.00    -0.270 OA
ATOM      5  N   UNL     1      13.607   7.902  21.326  0.00  0.00    -0.297 N 
ATOM      6  N   UNL     1      14.655   8.747  18.453  0.00  0.00    -0.310 N 
ATOM      9  C   UNL     1      15.181   6.664  19.847  0.00  0.00    +0.027 C 
ATOM     10  C   UNL     1      15.796   8.891  20.695  0.00  0.00    +0.054 C 
ATOM     11  C   UNL     1      16.337   7.494  20.393  0.00  0.00    +0.018 C 
ATOM     12  C   UNL     1      14.044   6.578  20.883  0.00  0.00    +0.113 C 
ATOM     13  C   UNL     1      14.711   7.281  18.524  0.00  0.00    +0.130 C 
ATOM     14  C   UNL     1      14.689   8.798  21.764  0.00  0.00    +0.117 C 
ATOM     15  C   UNL     1      15.242   9.544  19.443  0.00  0.00    +0.027 A 
ATOM     16  C   UNL     1      15.281  10.879  19.301  0.00  0.00    +0.024 A 
ATOM     17  C   UNL     1      14.073   9.305  17.297  0.00  0.00    +0.273 A 
ATOM     18  C   UNL     1      12.250   8.227  21.286  0.00  0.00    +0.247 C 
ATOM     19  C   UNL     1      14.113  10.798  17.191  0.00  0.00    +0.099 A 
ATOM     20  C   UNL     1      14.703  11.516  18.151  0.00  0.00    +0.030 A 
ENDROOT
BRANCH  18  21
ATOM      1  F   UNL     1      10.744  13.381  22.847  0.00  0.00    -0.205 F 
ATOM     21  C   UNL     1      11.855   9.580  21.695  0.00  0.00    +0.037 A 
ATOM     22  C   UNL     1      12.043  10.650  20.824  0.00  0.00    +0.016 A 
ATOM     23  C   UNL     1      11.293   9.786  22.952  0.00  0.00    +0.016 A 
ATOM     25  C   UNL     1      11.668  11.935  21.214  0.00  0.00    +0.039 A 
ATOM     26  C   UNL     1      10.918  11.071  23.342  0.00  0.00    +0.039 A 
ATOM     27  C   UNL     1      11.105  12.146  22.473  0.00  0.00    +0.123 A 
ENDBRANCH  18  21
BRANCH  19   7
ATOM      4  O   UNL     1      15.448  11.482  14.763  0.00  0.00    -0.270 OA
ATOM      7  N   UNL     1      13.543  11.377  16.094  0.00  0.00    -0.277 N 
ATOM     24  C   UNL     1      14.250  11.686  14.939  0.00  0.00    +0.248 C 
ATOM     35  H   UNL     1      12.594  11.708  16.225  0.00  0.00    +0.155 HD
BRANCH  24  28
ATOM     28  C   UNL     1      13.453  12.292  13.841  0.00  0.00    +0.037 A 
ATOM     29  C   UNL     1      12.174  11.828  13.613  0.00  0.00    +0.014 A 
ATOM     30  C   UNL     1      14.017  13.298  13.085  0.00  0.00    +0.014 A 
ATOM     31  C   UNL     1      11.426  12.396  12.582  0.00  0.00    +0.019 A 
ATOM     32  C   UNL     1      13.269  13.866  12.054  0.00  0.00    +0.019 A 
ATOM     33  C   UNL     1      11.973  13.415  11.803  0.00  0.00    +0.052 A 
BRANCH  33  34
ATOM      8  N   UNL     1      10.584  14.473   9.888  0.00  0.00    -0.191 NA
ATOM     34  C   UNL     1      11.207  13.998  10.747  0.00  0.00    +0.099 C 
ENDBRANCH  33  34
ENDBRANCH  24  28
ENDBRANCH  19   7
TORSDOF 4
ENDMDL
MODEL 6
REMARK VINA RESULT:      -7.5     26.815     29.100
REMARK  Name = 11885876
REMARK  4 active torsions:
REMARK  status: ('A' for Active; 'I' for Inactive)
REMARK    1  A    between atoms: N_7  and  C_19
REMARK    2  A    between atoms: C_18  and  C_21
REMARK    3  A    between atoms: C_24  and  C_28
REMARK    4  A    between atoms: C_33  and  C_34
REMARK                            x       y       z     vdW  Elec       q    Type
REMARK                         _______ _______ _______ _____ _____    ______ ____
ROOT
ATOM      2  O   UNL     1     -12.833  11.238  20.368  0.00  0.00    -0.266 OA
ATOM      3  O   UNL     1     -14.004  12.383  15.460  0.00  0.00    -0.270 OA
ATOM      5  N   UNL     1     -11.702  12.700  15.734  0.00  0.00    -0.297 N 
ATOM      6  N   UNL     1     -11.252  11.767  18.732  0.00  0.00    -0.310 N 
ATOM      9  C   UNL     1     -11.064  14.099  17.690  0.00  0.00    +0.027 C 
ATOM     10  C   UNL     1      -9.567  12.297  16.935  0.00  0.00    +0.054 C 
ATOM     11  C   UNL     1      -9.602  13.729  17.470  0.00  0.00    +0.018 C 
ATOM     12  C   UNL     1     -11.847  14.010  16.366  0.00  0.00    +0.113 C 
ATOM     13  C   UNL     1     -11.650  13.181  18.770  0.00  0.00    +0.130 C 
ATOM     14  C   UNL     1     -10.315  12.229  15.590  0.00  0.00    +0.117 C 
ATOM     15  C   UNL     1     -10.199  11.332  17.921  0.00  0.00    +0.027 A 
ATOM     16  C   UNL     1      -9.775  10.059  17.987  0.00  0.00    +0.024 A 
ATOM     17  C   UNL     1     -11.913  10.898  19.623  0.00  0.00    +0.273 A 
ATOM     18  C   UNL     1     -12.843  11.995  15.342  0.00  0.00    +0.247 C 
ATOM     19  C   UNL     1     -11.430   9.481  19.646  0.00  0.00    +0.099 A 
ATOM     20  C   UNL     1     -10.406   9.117  18.868  0.00  0.00    +0.030 A 
ENDROOT
BRANCH  18  21
ATOM      1  F   UNL     1     -12.148   6.924  13.093  0.00  0.00    -0.205 F 
ATOM     21  C   UNL     1     -12.660  10.665  14.752  0.00  0.00    +0.037 A 
ATOM     22  C   UNL     1     -12.635   9.540  15.574  0.00  0.00    +0.016 A 
ATOM     23  C   UNL     1     -12.515  10.533  13.374  0.00  0.00    +0.016 A 
ATOM     25  C   UNL     1     -12.462   8.276  15.012  0.00  0.00    +0.039 A 
ATOM     26  C   UNL     1     -12.341   9.268  12.812  0.00  0.00    +0.039 A 
ATOM     27  C   UNL     1     -12.314   8.139  13.631  0.00  0.00    +0.123 A 
ENDBRANCH  18  21
BRANCH  19   7
ATOM      4  O   UNL     1     -13.586   7.744  18.955  0.00  0.00    -0.270 OA
ATOM      7  N   UNL     1     -12.057   8.605  20.483  0.00  0.00    -0.277 N 
ATOM     24  C   UNL     1     -13.104   7.784  20.085  0.00  0.00    +0.248 C 
ATOM     35  H   UNL     1     -11.811   8.693  21.463  0.00  0.00    +0.155 HD
BRANCH  24  28
ATOM     28  C   UNL     1     -13.645   6.879  21.131  0.00  0.00    +0.037 A 
ATOM     29  C   UNL     1     -14.931   7.084  21.588  0.00  0.00    +0.014 A 
ATOM     30  C   UNL     1     -12.847   5.863  21.612  0.00  0.00    +0.014 A 
ATOM     31  C   UNL     1     -15.439   6.236  22.571  0.00  0.00    +0.019 A 
ATOM     32  C   UNL     1     -13.356   5.014  22.595  0.00  0.00    +0.019 A 
ATOM     33  C   UNL     1     -14.653   5.200  23.074  0.00  0.00    +0.052 A 
BRANCH  33  34
ATOM      8  N   UNL     1     -15.597   3.622  24.898  0.00  0.00    -0.191 NA
ATOM     34  C   UNL     1     -15.173   4.330  24.081  0.00  0.00    +0.099 C 
ENDBRANCH  33  34
ENDBRANCH  24  28
ENDBRANCH  19   7
TORSDOF 4
ENDMDL
MODEL 7
REMARK VINA RESULT:      -7.4     27.613     31.193
REMARK  Name = 11885876
REMARK  4 active torsions:
REMARK  status: ('A' for Active; 'I' for Inactive)
REMARK    1  A    between atoms: N_7  and  C_19
REMARK    2  A    between atoms: C_18  and  C_21
REMARK    3  A    between atoms: C_24  and  C_28
REMARK    4  A    between atoms: C_33  and  C_34
REMARK                            x       y       z     vdW  Elec       q    Type
REMARK                         _______ _______ _______ _____ _____    ______ ____
ROOT
ATOM      2  O   UNL     1      -6.717  -9.931  14.531  0.00  0.00    -0.266 OA
ATOM      3  O   UNL     1      -4.803 -14.317  12.565  0.00  0.00    -0.270 OA
ATOM      5  N   UNL     1      -2.997 -13.007  13.270  0.00  0.00    -0.297 N 
ATOM      6  N   UNL     1      -4.454 -10.508  14.571  0.00  0.00    -0.310 N 
ATOM      9  C   UNL     1      -3.026 -10.658  12.450  0.00  0.00    +0.027 C 
ATOM     10  C   UNL     1      -2.025 -11.177  14.638  0.00  0.00    +0.054 C 
ATOM     11  C   UNL     1      -1.863 -10.327  13.379  0.00  0.00    +0.018 C 
ATOM     12  C   UNL     1      -3.011 -12.153  12.083  0.00  0.00    +0.113 C 
ATOM     13  C   UNL     1      -4.336 -10.243  13.130  0.00  0.00    +0.130 C 
ATOM     14  C   UNL     1      -1.966 -12.671  14.264  0.00  0.00    +0.117 C 
ATOM     15  C   UNL     1      -3.340 -10.877  15.333  0.00  0.00    +0.027 A 
ATOM     16  C   UNL     1      -3.444 -11.001  16.666  0.00  0.00    +0.024 A 
ATOM     17  C   UNL     1      -5.713 -10.273  15.158  0.00  0.00    +0.273 A 
ATOM     18  C   UNL     1      -3.938 -14.032  13.392  0.00  0.00    +0.247 C 
ATOM     19  C   UNL     1      -5.794 -10.449  16.642  0.00  0.00    +0.099 A 
ATOM     20  C   UNL     1      -4.698 -10.783  17.332  0.00  0.00    +0.030 A 
ENDROOT
BRANCH  18  21
ATOM      1  F   UNL     1      -3.877 -17.106  18.061  0.00  0.00    -0.205 F 
ATOM     21  C   UNL     1      -3.922 -14.838  14.617  0.00  0.00    +0.037 A 
ATOM     22  C   UNL     1      -4.722 -14.473  15.697  0.00  0.00    +0.016 A 
ATOM     23  C   UNL     1      -3.109 -15.965  14.693  0.00  0.00    +0.016 A 
ATOM     25  C   UNL     1      -4.706 -15.240  16.861  0.00  0.00    +0.039 A 
ATOM     26  C   UNL     1      -3.093 -16.732  15.857  0.00  0.00    +0.039 A 
ATOM     27  C   UNL     1      -3.891 -16.370  16.942  0.00  0.00    +0.123 A 
ENDBRANCH  18  21
BRANCH  19   7
ATOM      4  O   UNL     1      -7.579 -12.482  17.551  0.00  0.00    -0.270 OA
ATOM      7  N   UNL     1      -7.002 -10.249  17.246  0.00  0.00    -0.277 N 
ATOM     24  C   UNL     1      -7.826 -11.284  17.667  0.00  0.00    +0.248 C 
ATOM     35  H   UNL     1      -7.335  -9.292  17.237  0.00  0.00    +0.155 HD
BRANCH  24  28
ATOM     28  C   UNL     1      -9.093 -10.870  18.324  0.00  0.00    +0.037 A 
ATOM     29  C   UNL     1      -9.477 -11.504  19.487  0.00  0.00    +0.014 A 
ATOM     30  C   UNL     1      -9.844  -9.866  17.750  0.00  0.00    +0.014 A 
ATOM     31  C   UNL     1     -10.666 -11.117  20.104  0.00  0.00    +0.019 A 
ATOM     32  C   UNL     1     -11.033  -9.478  18.368  0.00  0.00    +0.019 A 
ATOM     33  C   UNL     1     -11.444 -10.104  19.545  0.00  0.00    +0.052 A 
BRANCH  33  34
ATOM      8  N   UNL     1     -13.654  -9.382  20.689  0.00  0.00    -0.191 NA
ATOM     34  C   UNL     1     -12.662  -9.706  20.177  0.00  0.00    +0.099 C 
ENDBRANCH  33  34
ENDBRANCH  24  28
ENDBRANCH  19   7
TORSDOF 4
ENDMDL
MODEL 8
REMARK VINA RESULT:      -7.4     12.650     14.631
REMARK  Name = 11885876
REMARK  4 active torsions:
REMARK  status: ('A' for Active; 'I' for Inactive)
REMARK    1  A    between atoms: N_7  and  C_19
REMARK    2  A    between atoms: C_18  and  C_21
REMARK    3  A    between atoms: C_24  and  C_28
REMARK    4  A    between atoms: C_33  and  C_34
REMARK                            x       y       z     vdW  Elec       q    Type
REMARK                         _______ _______ _______ _____ _____    ______ ____
ROOT
ATOM      2  O   UNL     1      12.699   7.560   3.563  0.00  0.00    -0.266 OA
ATOM      3  O   UNL     1       9.291  11.073   5.238  0.00  0.00    -0.270 OA
ATOM      5  N   UNL     1       8.656   8.997   6.109  0.00  0.00    -0.297 N 
ATOM      6  N   UNL     1      10.985   7.103   5.083  0.00  0.00    -0.310 N 
ATOM      9  C   UNL     1       8.508   7.161   4.435  0.00  0.00    +0.027 C 
ATOM     10  C   UNL     1       9.154   6.651   6.755  0.00  0.00    +0.054 C 
ATOM     11  C   UNL     1       8.334   6.154   5.565  0.00  0.00    +0.018 C 
ATOM     12  C   UNL     1       8.012   8.552   4.874  0.00  0.00    +0.113 C 
ATOM     13  C   UNL     1       9.982   7.181   4.012  0.00  0.00    +0.130 C 
ATOM     14  C   UNL     1       8.622   8.024   7.212  0.00  0.00    +0.117 C 
ATOM     15  C   UNL     1      10.623   6.768   6.392  0.00  0.00    +0.027 A 
ATOM     16  C   UNL     1      11.567   6.589   7.330  0.00  0.00    +0.024 A 
ATOM     17  C   UNL     1      12.331   7.281   4.705  0.00  0.00    +0.273 A 
ATOM     18  C   UNL     1       9.258  10.256   6.157  0.00  0.00    +0.247 C 
ATOM     19  C   UNL     1      13.351   7.100   5.786  0.00  0.00    +0.099 A 
ATOM     20  C   UNL     1      12.959   6.760   7.018  0.00  0.00    +0.030 A 
ENDROOT
BRANCH  18  21
ATOM      1  F   UNL     1      11.835  11.752  10.888  0.00  0.00    -0.205 F 
ATOM     21  C   UNL     1       9.934  10.649   7.398  0.00  0.00    +0.037 A 
ATOM     22  C   UNL     1       9.192  11.166   8.457  0.00  0.00    +0.016 A 
ATOM     23  C   UNL     1      11.314  10.501   7.512  0.00  0.00    +0.016 A 
ATOM     25  C   UNL     1       9.835  11.539   9.637  0.00  0.00    +0.039 A 
ATOM     26  C   UNL     1      11.957  10.874   8.692  0.00  0.00    +0.039 A 
ATOM     27  C   UNL     1      11.218  11.393   9.755  0.00  0.00    +0.123 A 
ENDBRANCH  18  21
BRANCH  19   7
ATOM      4  O   UNL     1      14.916   9.419   6.347  0.00  0.00    -0.270 OA
ATOM      7  N   UNL     1      14.664   7.282   5.464  0.00  0.00    -0.277 N 
ATOM     24  C   UNL     1      15.372   8.438   5.766  0.00  0.00    +0.248 C 
ATOM     35  H   UNL     1      15.060   6.577   4.853  0.00  0.00    +0.155 HD
BRANCH  24  28
ATOM     28  C   UNL     1      16.800   8.444   5.355  0.00  0.00    +0.037 A 
ATOM     29  C   UNL     1      17.118   8.125   4.051  0.00  0.00    +0.014 A 
ATOM     30  C   UNL     1      17.761   8.768   6.289  0.00  0.00    +0.014 A 
ATOM     31  C   UNL     1      18.458   8.129   3.665  0.00  0.00    +0.019 A 
ATOM     32  C   UNL     1      19.101   8.772   5.903  0.00  0.00    +0.019 A 
ATOM     33  C   UNL     1      19.450   8.453   4.590  0.00  0.00    +0.052 A 
BRANCH  33  34
ATOM      8  N   UNL     1      21.939   8.463   3.873  0.00  0.00    -0.191 NA
ATOM     34  C   UNL     1      20.823   8.458   4.195  0.00  0.00    +0.099 C 
ENDBRANCH  33  34
ENDBRANCH  24  28
ENDBRANCH  19   7
TORSDOF 4
ENDMDL
MODEL 9
REMARK VINA RESULT:      -7.4     14.030     17.430
REMARK  Name = 11885876
REMARK  4 active torsions:
REMARK  status: ('A' for Active; 'I' for Inactive)
REMARK    1  A    between atoms: N_7  and  C_19
REMARK    2  A    between atoms: C_18  and  C_21
REMARK    3  A    between atoms: C_24  and  C_28
REMARK    4  A    between atoms: C_33  and  C_34
REMARK                            x       y       z     vdW  Elec       q    Type
REMARK                         _______ _______ _______ _____ _____    ______ ____
ROOT
ATOM      2  O   UNL     1      17.822  -6.151  29.200  0.00  0.00    -0.266 OA
ATOM      3  O   UNL     1      20.055  -3.020  25.738  0.00  0.00    -0.270 OA
ATOM      5  N   UNL     1      19.930  -5.155  24.789  0.00  0.00    -0.297 N 
ATOM      6  N   UNL     1      18.384  -6.790  27.025  0.00  0.00    -0.310 N 
ATOM      9  C   UNL     1      20.808  -6.990  26.222  0.00  0.00    +0.027 C 
ATOM     10  C   UNL     1      18.961  -7.437  24.658  0.00  0.00    +0.054 C 
ATOM     11  C   UNL     1      20.250  -8.014  25.241  0.00  0.00    +0.018 C 
ATOM     12  C   UNL     1      21.102  -5.661  25.502  0.00  0.00    +0.113 C 
ATOM     13  C   UNL     1      19.811  -6.815  27.374  0.00  0.00    +0.130 C 
ATOM     14  C   UNL     1      19.273  -6.130  23.904  0.00  0.00    +0.117 C 
ATOM     15  C   UNL     1      17.943  -7.165  25.751  0.00  0.00    +0.027 A 
ATOM     16  C   UNL     1      16.629  -7.247  25.487  0.00  0.00    +0.024 A 
ATOM     17  C   UNL     1      17.483  -6.470  28.060  0.00  0.00    +0.273 A 
ATOM     18  C   UNL     1      19.511  -3.839  25.000  0.00  0.00    +0.247 C 
ATOM     19  C   UNL     1      16.028  -6.547  27.717  0.00  0.00    +0.099 A 
ATOM     20  C   UNL     1      15.653  -6.930  26.492  0.00  0.00    +0.030 A 
ENDROOT
BRANCH  18  21
ATOM      1  F   UNL     1      14.912  -2.097  22.339  0.00  0.00    -0.205 F 
ATOM     21  C   UNL     1      18.305  -3.382  24.301  0.00  0.00    +0.037 A 
ATOM     22  C   UNL     1      18.418  -2.743  23.069  0.00  0.00    +0.016 A 
ATOM     23  C   UNL     1      17.053  -3.591  24.874  0.00  0.00    +0.016 A 
ATOM     25  C   UNL     1      17.271  -2.309  22.406  0.00  0.00    +0.039 A 
ATOM     26  C   UNL     1      15.905  -3.156  24.210  0.00  0.00    +0.039 A 
ATOM     27  C   UNL     1      16.013  -2.515  22.976  0.00  0.00    +0.123 A 
ENDBRANCH  18  21
BRANCH  19   7
ATOM      4  O   UNL     1      14.718  -8.379  29.470  0.00  0.00    -0.270 OA
ATOM      7  N   UNL     1      15.124  -6.226  28.688  0.00  0.00    -0.277 N 
ATOM     24  C   UNL     1      14.520  -7.167  29.511  0.00  0.00    +0.248 C 
ATOM     35  H   UNL     1      14.802  -5.264  28.677  0.00  0.00    +0.155 HD
BRANCH  24  28
ATOM     28  C   UNL     1      13.579  -6.625  30.525  0.00  0.00    +0.037 A 
ATOM     29  C   UNL     1      13.886  -5.433  31.148  0.00  0.00    +0.014 A 
ATOM     30  C   UNL     1      12.429  -7.331  30.812  0.00  0.00    +0.014 A 
ATOM     31  C   UNL     1      13.004  -4.924  32.100  0.00  0.00    +0.019 A 
ATOM     32  C   UNL     1      11.547  -6.821  31.765  0.00  0.00    +0.019 A 
ATOM     33  C   UNL     1      11.834  -5.617  32.409  0.00  0.00    +0.052 A 
BRANCH  33  34
ATOM      8  N   UNL     1      10.194  -4.672  34.177  0.00  0.00    -0.191 NA
ATOM     34  C   UNL     1      10.929  -5.096  33.384  0.00  0.00    +0.099 C 
ENDBRANCH  33  34
ENDBRANCH  24  28
ENDBRANCH  19   7
TORSDOF 4
ENDMDL
MODEL 10
REMARK VINA RESULT:      -7.3     22.117     24.861
REMARK  Name = 11885876
REMARK  4 active torsions:
REMARK  status: ('A' for Active; 'I' for Inactive)
REMARK    1  A    between atoms: N_7  and  C_19
REMARK    2  A    between atoms: C_18  and  C_21
REMARK    3  A    between atoms: C_24  and  C_28
REMARK    4  A    between atoms: C_33  and  C_34
REMARK                            x       y       z     vdW  Elec       q    Type
REMARK                         _______ _______ _______ _____ _____    ______ ____
ROOT
ATOM      2  O   UNL     1       9.586  -9.420  32.071  0.00  0.00    -0.266 OA
ATOM      3  O   UNL     1       8.377  -9.123  37.092  0.00  0.00    -0.270 OA
ATOM      5  N   UNL     1       8.002  -7.017  36.146  0.00  0.00    -0.297 N 
ATOM      6  N   UNL     1       8.644  -7.537  33.084  0.00  0.00    -0.310 N 
ATOM      9  C   UNL     1       9.898  -6.119  34.808  0.00  0.00    +0.027 C 
ATOM     10  C   UNL     1       7.586  -5.538  34.195  0.00  0.00    +0.054 C 
ATOM     11  C   UNL     1       9.006  -4.985  34.316  0.00  0.00    +0.018 C 
ATOM     12  C   UNL     1       9.412  -6.631  36.177  0.00  0.00    +0.113 C 
ATOM     13  C   UNL     1       9.917  -7.229  33.750  0.00  0.00    +0.130 C 
ATOM     14  C   UNL     1       7.094  -6.008  35.578  0.00  0.00    +0.117 C 
ATOM     15  C   UNL     1       7.534  -6.696  33.215  0.00  0.00    +0.027 A 
ATOM     16  C   UNL     1       6.418  -6.933  32.507  0.00  0.00    +0.024 A 
ATOM     17  C   UNL     1       8.630  -8.660  32.232  0.00  0.00    +0.273 A 
ATOM     18  C   UNL     1       7.623  -8.276  36.618  0.00  0.00    +0.247 C 
ATOM     19  C   UNL     1       7.358  -8.905  31.481  0.00  0.00    +0.099 A 
ATOM     20  C   UNL     1       6.331  -8.062  31.623  0.00  0.00    +0.030 A 
ENDROOT
BRANCH  18  21
ATOM      1  F   UNL     1       2.222  -9.684  36.280  0.00  0.00    -0.205 F 
ATOM     21  C   UNL     1       6.206  -8.645  36.529  0.00  0.00    +0.037 A 
ATOM     22  C   UNL     1       5.706  -9.195  35.351  0.00  0.00    +0.016 A 
ATOM     23  C   UNL     1       5.369  -8.445  37.623  0.00  0.00    +0.016 A 
ATOM     25  C   UNL     1       4.359  -9.546  35.267  0.00  0.00    +0.039 A 
ATOM     26  C   UNL     1       4.022  -8.796  37.539  0.00  0.00    +0.039 A 
ATOM     27  C   UNL     1       3.516  -9.347  36.361  0.00  0.00    +0.123 A 
ENDBRANCH  18  21
BRANCH  19   7
ATOM      4  O   UNL     1       6.418 -11.504  32.194  0.00  0.00    -0.270 OA
ATOM      7  N   UNL     1       7.299  -9.994  30.660  0.00  0.00    -0.277 N 
ATOM     24  C   UNL     1       6.829 -11.235  31.069  0.00  0.00    +0.248 C 
ATOM     35  H   UNL     1       7.761  -9.883  29.764  0.00  0.00    +0.155 HD
BRANCH  24  28
ATOM     28  C   UNL     1       6.820 -12.294  30.027  0.00  0.00    +0.037 A 
ATOM     29  C   UNL     1       5.812 -13.236  30.045  0.00  0.00    +0.014 A 
ATOM     30  C   UNL     1       7.817 -12.301  29.075  0.00  0.00    +0.014 A 
ATOM     31  C   UNL     1       5.803 -14.231  29.067  0.00  0.00    +0.019 A 
ATOM     32  C   UNL     1       7.808 -13.296  28.097  0.00  0.00    +0.019 A 
ATOM     33  C   UNL     1       6.800 -14.261  28.093  0.00  0.00    +0.052 A 
BRANCH  33  34
ATOM      8  N   UNL     1       6.784 -16.106  26.275  0.00  0.00    -0.191 NA
ATOM     34  C   UNL     1       6.791 -15.279  27.091  0.00  0.00    +0.099 C 
ENDBRANCH  33  34
ENDBRANCH  24  28
ENDBRANCH  19   7
TORSDOF 4
ENDMDL
