MODEL 1
REMARK VINA RESULT:      -6.7      0.000      0.000
REMARK  Name = 38027325
REMARK  12 active torsions:
REMARK  status: ('A' for Active; 'I' for Inactive)
REMARK    1  A    between atoms: O_3  and  C_26
REMARK    2  A    between atoms: O_3  and  C_31
REMARK    3  A    between atoms: N_4  and  C_15
REMARK    4  A    between atoms: N_5  and  C_14
REMARK    5  A    between atoms: C_6  and  C_10
REMARK    6  A    between atoms: C_7  and  C_14
REMARK    7  A    between atoms: C_9  and  C_13
REMARK    8  A    between atoms: C_10  and  C_16
REMARK    9  A    between atoms: C_10  and  C_17
REMARK   10  A    between atoms: C_11  and  C_20
REMARK   11  A    between atoms: C_13  and  C_21
REMARK   12  A    between atoms: C_24  and  C_25
REMARK                            x       y       z     vdW  Elec       q    Type
REMARK                         _______ _______ _______ _____ _____    ______ ____
ROOT
ATOM      6  C   UNL     1      -6.190 -10.371  15.467  0.00  0.00    +0.000 C 
ATOM      7  C   UNL     1      -6.928 -10.431  16.827  0.00  0.00    +0.032 C 
ATOM      8  C   UNL     1      -5.222 -11.556  15.330  0.00  0.00    +0.012 C 
ATOM      9  C   UNL     1      -4.170 -11.580  16.455  0.00  0.00    +0.023 C 
ATOM     11  C   UNL     1      -4.798 -11.373  17.818  0.00  0.00    -0.073 C 
ATOM     12  C   UNL     1      -6.036 -10.871  17.965  0.00  0.00    -0.022 C 
ATOM     20  C   UNL     1      -3.987 -11.801  19.010  0.00  0.00    +0.039 C 
ENDROOT
BRANCH   6  10
ATOM     10  C   UNL     1      -7.169 -10.364  14.289  0.00  0.00    -0.013 C 
ATOM     16  C   UNL     1      -6.517  -9.739  13.059  0.00  0.00    +0.007 C 
ATOM     17  C   UNL     1      -7.648 -11.780  13.986  0.00  0.00    +0.007 C 
ENDBRANCH   6  10
BRANCH   9  13
ATOM     13  C   UNL     1      -3.062 -10.551  16.199  0.00  0.00    +0.103 C 
BRANCH  13  21
ATOM      1  O   UNL     1      -0.995 -11.484  15.357  0.00  0.00    -0.276 OA
ATOM      4  N   UNL     1      -2.638 -10.804  13.860  0.00  0.00    -0.312 N 
ATOM     21  C   UNL     1      -2.101 -11.005  15.124  0.00  0.00    +0.214 C 
ATOM     32  H   UNL     1      -3.581 -10.437  13.776  0.00  0.00    +0.149 HD
BRANCH   4  15
ATOM     15  C   UNL     1      -1.939 -11.143  12.646  0.00  0.00    +0.073 C 
ATOM     18  C   UNL     1      -1.825  -9.947  11.710  0.00  0.00    +0.022 C 
ATOM     19  C   UNL     1      -2.713 -12.155  11.808  0.00  0.00    +0.022 C 
ATOM     22  C   UNL     1      -3.169  -9.897  10.987  0.00  0.00    +0.002 C 
ATOM     23  C   UNL     1      -3.718 -11.323  11.014  0.00  0.00    +0.002 C 
ENDBRANCH   4  15
ENDBRANCH  13  21
ENDBRANCH   9  13
BRANCH   7  14
ATOM     14  C   UNL     1      -7.563  -9.079  17.171  0.00  0.00    +0.112 C 
BRANCH  14   5
ATOM      2  O   UNL     1     -10.113 -10.061  16.289  0.00  0.00    -0.270 OA
ATOM      5  N   UNL     1      -8.734  -9.256  17.972  0.00  0.00    -0.311 N 
ATOM     24  C   UNL     1      -9.937  -9.740  17.462  0.00  0.00    +0.248 C 
ATOM     33  H   UNL     1      -8.667  -9.027  18.959  0.00  0.00    +0.149 HD
BRANCH  24  25
ATOM     25  C   UNL     1     -11.069  -9.840  18.419  0.00  0.00    +0.078 A 
ATOM     26  C   UNL     1     -10.884 -10.379  19.692  0.00  0.00    +0.132 A 
ATOM     27  C   UNL     1     -12.330  -9.386  18.030  0.00  0.00    +0.017 A 
ATOM     28  C   UNL     1     -11.960 -10.465  20.576  0.00  0.00    +0.046 A 
ATOM     29  C   UNL     1     -13.405  -9.471  18.914  0.00  0.00    +0.001 A 
ATOM     30  C   UNL     1     -13.220 -10.011  20.187  0.00  0.00    +0.004 A 
BRANCH  26   3
ATOM      3  O   UNL     1      -9.661 -10.828  20.091  0.00  0.00    -0.494 OA
ATOM     31  C   UNL     1      -9.449 -12.238  20.064  0.00  0.00    +0.277 C 
ENDBRANCH  26   3
ENDBRANCH  24  25
ENDBRANCH  14   5
ENDBRANCH   7  14
TORSDOF 8
ENDMDL
MODEL 2
REMARK VINA RESULT:      -6.5     24.979     28.336
REMARK  Name = 38027325
REMARK  12 active torsions:
REMARK  status: ('A' for Active; 'I' for Inactive)
REMARK    1  A    between atoms: O_3  and  C_26
REMARK    2  A    between atoms: O_3  and  C_31
REMARK    3  A    between atoms: N_4  and  C_15
REMARK    4  A    between atoms: N_5  and  C_14
REMARK    5  A    between atoms: C_6  and  C_10
REMARK    6  A    between atoms: C_7  and  C_14
REMARK    7  A    between atoms: C_9  and  C_13
REMARK    8  A    between atoms: C_10  and  C_16
REMARK    9  A    between atoms: C_10  and  C_17
REMARK   10  A    between atoms: C_11  and  C_20
REMARK   11  A    between atoms: C_13  and  C_21
REMARK   12  A    between atoms: C_24  and  C_25
REMARK                            x       y       z     vdW  Elec       q    Type
REMARK                         _______ _______ _______ _____ _____    ______ ____
ROOT
ATOM      6  C   UNL     1       8.975   8.547   5.073  0.00  0.00    +0.000 C 
ATOM      7  C   UNL     1       8.749   9.167   6.475  0.00  0.00    +0.032 C 
ATOM      8  C   UNL     1       8.433   7.110   5.029  0.00  0.00    +0.012 C 
ATOM      9  C   UNL     1       9.104   6.202   6.077  0.00  0.00    +0.023 C 
ATOM     11  C   UNL     1       9.160   6.863   7.440  0.00  0.00    -0.073 C 
ATOM     12  C   UNL     1       8.987   8.186   7.599  0.00  0.00    -0.022 C 
ATOM     20  C   UNL     1       9.377   5.959   8.621  0.00  0.00    +0.039 C 
ENDROOT
BRANCH   6  10
ATOM     10  C   UNL     1       8.319   9.383   3.970  0.00  0.00    -0.013 C 
ATOM     16  C   UNL     1       8.294   8.605   2.657  0.00  0.00    +0.007 C 
ATOM     17  C   UNL     1       6.909   9.794   4.381  0.00  0.00    +0.007 C 
ENDBRANCH   6  10
BRANCH   9  13
ATOM     13  C   UNL     1      10.501   5.767   5.619  0.00  0.00    +0.103 C 
BRANCH  13  21
ATOM      1  O   UNL     1       9.886   3.502   5.036  0.00  0.00    -0.276 OA
ATOM      4  N   UNL     1      11.131   4.771   3.539  0.00  0.00    -0.312 N 
ATOM     21  C   UNL     1      10.453   4.546   4.728  0.00  0.00    +0.214 C 
ATOM     32  H   UNL     1      11.532   5.688   3.364  0.00  0.00    +0.149 HD
BRANCH   4  15
ATOM     15  C   UNL     1      11.249   3.777   2.501  0.00  0.00    +0.073 C 
ATOM     18  C   UNL     1      12.632   3.793   1.863  0.00  0.00    +0.022 C 
ATOM     19  C   UNL     1      10.330   4.075   1.321  0.00  0.00    +0.022 C 
ATOM     22  C   UNL     1      12.571   4.929   0.844  0.00  0.00    +0.002 C 
ATOM     23  C   UNL     1      11.098   5.080   0.466  0.00  0.00    +0.002 C 
ENDBRANCH   4  15
ENDBRANCH  13  21
ENDBRANCH   9  13
BRANCH   7  14
ATOM     14  C   UNL     1       9.631  10.403   6.681  0.00  0.00    +0.112 C 
BRANCH  14   5
ATOM      2  O   UNL     1      11.854  10.783   8.458  0.00  0.00    -0.270 OA
ATOM      5  N   UNL     1      11.002  10.100   6.411  0.00  0.00    -0.311 N 
ATOM     24  C   UNL     1      12.024  10.317   7.334  0.00  0.00    +0.248 C 
ATOM     33  H   UNL     1      11.226   9.696   5.507  0.00  0.00    +0.149 HD
BRANCH  24  25
ATOM     25  C   UNL     1      13.400   9.976   6.891  0.00  0.00    +0.078 A 
ATOM     26  C   UNL     1      13.768   8.651   6.655  0.00  0.00    +0.132 A 
ATOM     27  C   UNL     1      14.330  11.000   6.710  0.00  0.00    +0.017 A 
ATOM     28  C   UNL     1      15.065   8.350   6.239  0.00  0.00    +0.046 A 
ATOM     29  C   UNL     1      15.626  10.700   6.294  0.00  0.00    +0.001 A 
ATOM     30  C   UNL     1      15.994   9.375   6.059  0.00  0.00    +0.004 A 
BRANCH  26   3
ATOM      3  O   UNL     1      12.874   7.636   6.826  0.00  0.00    -0.494 OA
ATOM     31  C   UNL     1      13.352   6.454   7.464  0.00  0.00    +0.277 C 
ENDBRANCH  26   3
ENDBRANCH  24  25
ENDBRANCH  14   5
ENDBRANCH   7  14
TORSDOF 8
ENDMDL
MODEL 3
REMARK VINA RESULT:      -6.3     26.963     30.349
REMARK  Name = 38027325
REMARK  12 active torsions:
REMARK  status: ('A' for Active; 'I' for Inactive)
REMARK    1  A    between atoms: O_3  and  C_26
REMARK    2  A    between atoms: O_3  and  C_31
REMARK    3  A    between atoms: N_4  and  C_15
REMARK    4  A    between atoms: N_5  and  C_14
REMARK    5  A    between atoms: C_6  and  C_10
REMARK    6  A    between atoms: C_7  and  C_14
REMARK    7  A    between atoms: C_9  and  C_13
REMARK    8  A    between atoms: C_10  and  C_16
REMARK    9  A    between atoms: C_10  and  C_17
REMARK   10  A    between atoms: C_11  and  C_20
REMARK   11  A    between atoms: C_13  and  C_21
REMARK   12  A    between atoms: C_24  and  C_25
REMARK                            x       y       z     vdW  Elec       q    Type
REMARK                         _______ _______ _______ _____ _____    ______ ____
ROOT
ATOM      6  C   UNL     1      15.058   8.051  20.504  0.00  0.00    +0.000 C 
ATOM      7  C   UNL     1      14.249   6.971  19.743  0.00  0.00    +0.032 C 
ATOM      8  C   UNL     1      14.499   8.237  21.923  0.00  0.00    +0.012 C 
ATOM      9  C   UNL     1      13.016   8.654  21.916  0.00  0.00    +0.023 C 
ATOM     11  C   UNL     1      12.196   7.796  20.973  0.00  0.00    -0.073 C 
ATOM     12  C   UNL     1      12.765   7.042  20.017  0.00  0.00    -0.022 C 
ATOM     20  C   UNL     1      10.708   7.793  21.184  0.00  0.00    +0.039 C 
ENDROOT
BRANCH   6  10
ATOM     10  C   UNL     1      16.547   7.701  20.576  0.00  0.00    -0.013 C 
ATOM     16  C   UNL     1      17.309   8.773  21.349  0.00  0.00    +0.007 C 
ATOM     17  C   UNL     1      16.742   6.331  21.216  0.00  0.00    +0.007 C 
ENDBRANCH   6  10
BRANCH   9  13
ATOM     13  C   UNL     1      12.861  10.142  21.581  0.00  0.00    +0.103 C 
BRANCH  13  21
ATOM      1  O   UNL     1      14.433  11.356  22.962  0.00  0.00    -0.276 OA
ATOM      4  N   UNL     1      12.168  11.413  23.483  0.00  0.00    -0.312 N 
ATOM     21  C   UNL     1      13.271  11.030  22.734  0.00  0.00    +0.214 C 
ATOM     32  H   UNL     1      11.243  11.121  23.185  0.00  0.00    +0.149 HD
BRANCH   4  15
ATOM     15  C   UNL     1      12.264  12.261  24.645  0.00  0.00    +0.073 C 
ATOM     18  C   UNL     1      10.923  12.390  25.357  0.00  0.00    +0.022 C 
ATOM     19  C   UNL     1      12.589  13.703  24.273  0.00  0.00    +0.022 C 
ATOM     22  C   UNL     1      10.173  13.462  24.570  0.00  0.00    +0.002 C 
ATOM     23  C   UNL     1      11.244  14.329  23.908  0.00  0.00    +0.002 C 
ENDBRANCH   4  15
ENDBRANCH  13  21
ENDBRANCH   9  13
BRANCH   7  14
ATOM     14  C   UNL     1      14.494   7.060  18.233  0.00  0.00    +0.112 C 
BRANCH  14   5
ATOM      2  O   UNL     1      12.679   8.504  16.541  0.00  0.00    -0.270 OA
ATOM      5  N   UNL     1      14.615   8.422  17.816  0.00  0.00    -0.311 N 
ATOM     24  C   UNL     1      13.684   9.049  16.990  0.00  0.00    +0.248 C 
ATOM     33  H   UNL     1      15.413   8.949  18.157  0.00  0.00    +0.149 HD
BRANCH  24  25
ATOM     25  C   UNL     1      13.968  10.461  16.625  0.00  0.00    +0.078 A 
ATOM     26  C   UNL     1      14.385  11.379  17.589  0.00  0.00    +0.132 A 
ATOM     27  C   UNL     1      13.811  10.865  15.300  0.00  0.00    +0.017 A 
ATOM     28  C   UNL     1      14.646  12.700  17.228  0.00  0.00    +0.046 A 
ATOM     29  C   UNL     1      14.072  12.186  14.937  0.00  0.00    +0.001 A 
ATOM     30  C   UNL     1      14.490  13.104  15.902  0.00  0.00    +0.004 A 
BRANCH  26   3
ATOM      3  O   UNL     1      14.544  11.003  18.890  0.00  0.00    -0.494 OA
ATOM     31  C   UNL     1      15.606  11.619  19.616  0.00  0.00    +0.277 C 
ENDBRANCH  26   3
ENDBRANCH  24  25
ENDBRANCH  14   5
ENDBRANCH   7  14
TORSDOF 8
ENDMDL
MODEL 4
REMARK VINA RESULT:      -6.3     21.585     25.327
REMARK  Name = 38027325
REMARK  12 active torsions:
REMARK  status: ('A' for Active; 'I' for Inactive)
REMARK    1  A    between atoms: O_3  and  C_26
REMARK    2  A    between atoms: O_3  and  C_31
REMARK    3  A    between atoms: N_4  and  C_15
REMARK    4  A    between atoms: N_5  and  C_14
REMARK    5  A    between atoms: C_6  and  C_10
REMARK    6  A    between atoms: C_7  and  C_14
REMARK    7  A    between atoms: C_9  and  C_13
REMARK    8  A    between atoms: C_10  and  C_16
REMARK    9  A    between atoms: C_10  and  C_17
REMARK   10  A    between atoms: C_11  and  C_20
REMARK   11  A    between atoms: C_13  and  C_21
REMARK   12  A    between atoms: C_24  and  C_25
REMARK                            x       y       z     vdW  Elec       q    Type
REMARK                         _______ _______ _______ _____ _____    ______ ____
ROOT
ATOM      6  C   UNL     1     -12.462   8.460  34.421  0.00  0.00    +0.000 C 
ATOM      7  C   UNL     1     -13.869   7.810  34.454  0.00  0.00    +0.032 C 
ATOM      8  C   UNL     1     -12.525   9.839  33.746  0.00  0.00    +0.012 C 
ATOM      9  C   UNL     1     -13.059   9.757  32.303  0.00  0.00    +0.023 C 
ATOM     11  C   UNL     1     -14.306   8.902  32.212  0.00  0.00    -0.073 C 
ATOM     12  C   UNL     1     -14.659   8.047  33.188  0.00  0.00    -0.022 C 
ATOM     20  C   UNL     1     -15.165   9.085  30.991  0.00  0.00    +0.039 C 
ENDROOT
BRANCH   6  10
ATOM     10  C   UNL     1     -11.867   8.597  35.825  0.00  0.00    -0.013 C 
ATOM     16  C   UNL     1     -10.490   9.252  35.757  0.00  0.00    +0.007 C 
ATOM     17  C   UNL     1     -12.803   9.397  36.725  0.00  0.00    +0.007 C 
ENDBRANCH   6  10
BRANCH   9  13
ATOM     13  C   UNL     1     -11.977   9.255  31.341  0.00  0.00    +0.103 C 
BRANCH  13  21
ATOM      1  O   UNL     1     -10.850  11.372  31.025  0.00  0.00    -0.276 OA
ATOM      4  N   UNL     1     -11.491  10.128  29.169  0.00  0.00    -0.312 N 
ATOM     21  C   UNL     1     -11.372  10.378  30.529  0.00  0.00    +0.214 C 
ATOM     32  H   UNL     1     -11.904   9.254  28.861  0.00  0.00    +0.149 HD
BRANCH   4  15
ATOM     15  C   UNL     1     -11.003  11.033  28.158  0.00  0.00    +0.073 C 
ATOM     18  C   UNL     1     -12.035  12.100  27.814  0.00  0.00    +0.022 C 
ATOM     19  C   UNL     1     -10.786  10.331  26.823  0.00  0.00    +0.022 C 
ATOM     22  C   UNL     1     -12.977  11.418  26.825  0.00  0.00    +0.002 C 
ATOM     23  C   UNL     1     -12.162  10.309  26.160  0.00  0.00    +0.002 C 
ENDBRANCH   4  15
ENDBRANCH  13  21
ENDBRANCH   9  13
BRANCH   7  14
ATOM     14  C   UNL     1     -13.775   6.304  34.722  0.00  0.00    +0.112 C 
BRANCH  14   5
ATOM      2  O   UNL     1     -14.552   3.552  34.473  0.00  0.00    -0.270 OA
ATOM      5  N   UNL     1     -13.912   5.562  33.508  0.00  0.00    -0.311 N 
ATOM     24  C   UNL     1     -14.295   4.222  33.477  0.00  0.00    +0.248 C 
ATOM     33  H   UNL     1     -13.731   6.049  32.636  0.00  0.00    +0.149 HD
BRANCH  24  25
ATOM     25  C   UNL     1     -14.365   3.585  32.136  0.00  0.00    +0.078 A 
ATOM     26  C   UNL     1     -15.009   4.221  31.074  0.00  0.00    +0.132 A 
ATOM     27  C   UNL     1     -13.776   2.335  31.946  0.00  0.00    +0.017 A 
ATOM     28  C   UNL     1     -15.063   3.607  29.823  0.00  0.00    +0.046 A 
ATOM     29  C   UNL     1     -13.829   1.721  30.696  0.00  0.00    +0.001 A 
ATOM     30  C   UNL     1     -14.474   2.356  29.634  0.00  0.00    +0.004 A 
BRANCH  26   3
ATOM      3  O   UNL     1     -15.591   5.442  31.239  0.00  0.00    -0.494 OA
ATOM     31  C   UNL     1     -17.016   5.484  31.249  0.00  0.00    +0.277 C 
ENDBRANCH  26   3
ENDBRANCH  24  25
ENDBRANCH  14   5
ENDBRANCH   7  14
TORSDOF 8
ENDMDL
MODEL 5
REMARK VINA RESULT:      -6.3     28.466     32.315
REMARK  Name = 38027325
REMARK  12 active torsions:
REMARK  status: ('A' for Active; 'I' for Inactive)
REMARK    1  A    between atoms: O_3  and  C_26
REMARK    2  A    between atoms: O_3  and  C_31
REMARK    3  A    between atoms: N_4  and  C_15
REMARK    4  A    between atoms: N_5  and  C_14
REMARK    5  A    between atoms: C_6  and  C_10
REMARK    6  A    between atoms: C_7  and  C_14
REMARK    7  A    between atoms: C_9  and  C_13
REMARK    8  A    between atoms: C_10  and  C_16
REMARK    9  A    between atoms: C_10  and  C_17
REMARK   10  A    between atoms: C_11  and  C_20
REMARK   11  A    between atoms: C_13  and  C_21
REMARK   12  A    between atoms: C_24  and  C_25
REMARK                            x       y       z     vdW  Elec       q    Type
REMARK                         _______ _______ _______ _____ _____    ______ ____
ROOT
ATOM      6  C   UNL     1      16.987   7.922  21.198  0.00  0.00    +0.000 C 
ATOM      7  C   UNL     1      18.500   8.255  21.171  0.00  0.00    +0.032 C 
ATOM      8  C   UNL     1      16.202   8.926  20.340  0.00  0.00    +0.012 C 
ATOM      9  C   UNL     1      16.390  10.376  20.823  0.00  0.00    +0.023 C 
ATOM     11  C   UNL     1      17.848  10.700  21.079  0.00  0.00    -0.073 C 
ATOM     12  C   UNL     1      18.778   9.739  21.218  0.00  0.00    -0.022 C 
ATOM     20  C   UNL     1      18.221  12.156  21.125  0.00  0.00    +0.039 C 
ENDROOT
BRANCH   6  10
ATOM     10  C   UNL     1      16.710   6.497  20.710  0.00  0.00    -0.013 C 
ATOM     16  C   UNL     1      15.221   6.308  20.435  0.00  0.00    +0.007 C 
ATOM     17  C   UNL     1      17.533   6.191  19.463  0.00  0.00    +0.007 C 
ENDBRANCH   6  10
BRANCH   9  13
ATOM     13  C   UNL     1      15.538  10.661  22.066  0.00  0.00    +0.103 C 
BRANCH  13  21
ATOM      1  O   UNL     1      13.866  12.287  21.428  0.00  0.00    -0.276 OA
ATOM      4  N   UNL     1      13.245  10.069  21.742  0.00  0.00    -0.312 N 
ATOM     21  C   UNL     1      14.145  11.125  21.707  0.00  0.00    +0.214 C 
ATOM     32  H   UNL     1      13.586   9.135  21.946  0.00  0.00    +0.149 HD
BRANCH   4  15
ATOM     15  C   UNL     1      11.842  10.222  21.444  0.00  0.00    +0.073 C 
ATOM     18  C   UNL     1      10.970   9.817  22.626  0.00  0.00    +0.022 C 
ATOM     19  C   UNL     1      11.386   9.268  20.346  0.00  0.00    +0.022 C 
ATOM     22  C   UNL     1      10.880   8.296  22.532  0.00  0.00    +0.002 C 
ATOM     23  C   UNL     1      11.106   7.948  21.061  0.00  0.00    +0.002 C 
ENDBRANCH   4  15
ENDBRANCH  13  21
ENDBRANCH   9  13
BRANCH   7  14
ATOM     14  C   UNL     1      19.239   7.560  22.319  0.00  0.00    +0.112 C 
BRANCH  14   5
ATOM      2  O   UNL     1      21.078   5.987  23.864  0.00  0.00    -0.270 OA
ATOM      5  N   UNL     1      20.199   6.629  21.815  0.00  0.00    -0.311 N 
ATOM     24  C   UNL     1      21.058   5.903  22.639  0.00  0.00    +0.248 C 
ATOM     33  H   UNL     1      20.237   6.489  20.810  0.00  0.00    +0.149 HD
BRANCH  24  25
ATOM     25  C   UNL     1      22.018   4.996  21.958  0.00  0.00    +0.078 A 
ATOM     26  C   UNL     1      22.863   5.470  20.954  0.00  0.00    +0.132 A 
ATOM     27  C   UNL     1      22.067   3.653  22.334  0.00  0.00    +0.017 A 
ATOM     28  C   UNL     1      23.756   4.602  20.327  0.00  0.00    +0.046 A 
ATOM     29  C   UNL     1      22.960   2.786  21.708  0.00  0.00    +0.001 A 
ATOM     30  C   UNL     1      23.805   3.259  20.704  0.00  0.00    +0.004 A 
BRANCH  26   3
ATOM      3  O   UNL     1      22.830   6.778  20.572  0.00  0.00    -0.494 OA
ATOM     31  C   UNL     1      23.945   7.587  20.939  0.00  0.00    +0.277 C 
ENDBRANCH  26   3
ENDBRANCH  24  25
ENDBRANCH  14   5
ENDBRANCH   7  14
TORSDOF 8
ENDMDL
MODEL 6
REMARK VINA RESULT:      -6.3      3.570      6.980
REMARK  Name = 38027325
REMARK  12 active torsions:
REMARK  status: ('A' for Active; 'I' for Inactive)
REMARK    1  A    between atoms: O_3  and  C_26
REMARK    2  A    between atoms: O_3  and  C_31
REMARK    3  A    between atoms: N_4  and  C_15
REMARK    4  A    between atoms: N_5  and  C_14
REMARK    5  A    between atoms: C_6  and  C_10
REMARK    6  A    between atoms: C_7  and  C_14
REMARK    7  A    between atoms: C_9  and  C_13
REMARK    8  A    between atoms: C_10  and  C_16
REMARK    9  A    between atoms: C_10  and  C_17
REMARK   10  A    between atoms: C_11  and  C_20
REMARK   11  A    between atoms: C_13  and  C_21
REMARK   12  A    between atoms: C_24  and  C_25
REMARK                            x       y       z     vdW  Elec       q    Type
REMARK                         _______ _______ _______ _____ _____    ______ ____
ROOT
ATOM      6  C   UNL     1      -3.138 -12.174  12.628  0.00  0.00    +0.000 C 
ATOM      7  C   UNL     1      -2.065 -11.068  12.467  0.00  0.00    +0.032 C 
ATOM      8  C   UNL     1      -3.682 -12.596  11.255  0.00  0.00    +0.012 C 
ATOM      9  C   UNL     1      -4.310 -11.415  10.489  0.00  0.00    +0.023 C 
ATOM     11  C   UNL     1      -3.419 -10.190  10.517  0.00  0.00    -0.073 C 
ATOM     12  C   UNL     1      -2.413 -10.058  11.399  0.00  0.00    -0.022 C 
ATOM     20  C   UNL     1      -3.683  -9.138   9.476  0.00  0.00    +0.039 C 
ENDROOT
BRANCH   6  10
ATOM     10  C   UNL     1      -2.586 -13.399  13.364  0.00  0.00    -0.013 C 
ATOM     16  C   UNL     1      -3.594 -13.898  14.395  0.00  0.00    +0.007 C 
ATOM     17  C   UNL     1      -2.235 -14.503  12.373  0.00  0.00    +0.007 C 
ENDBRANCH   6  10
BRANCH   9  13
ATOM     13  C   UNL     1      -5.709 -11.089  11.026  0.00  0.00    +0.103 C 
BRANCH  13  21
ATOM      1  O   UNL     1      -7.632 -12.322  10.229  0.00  0.00    -0.276 OA
ATOM      4  N   UNL     1      -6.708 -10.656   8.897  0.00  0.00    -0.312 N 
ATOM     21  C   UNL     1      -6.794 -11.445  10.035  0.00  0.00    +0.214 C 
ATOM     32  H   UNL     1      -6.001  -9.929   8.852  0.00  0.00    +0.149 HD
BRANCH   4  15
ATOM     15  C   UNL     1      -7.616 -10.779   7.784  0.00  0.00    +0.073 C 
ATOM     18  C   UNL     1      -7.086 -11.746   6.732  0.00  0.00    +0.022 C 
ATOM     19  C   UNL     1      -7.745  -9.473   7.008  0.00  0.00    +0.022 C 
ATOM     22  C   UNL     1      -6.104 -10.916   5.909  0.00  0.00    +0.002 C 
ATOM     23  C   UNL     1      -6.553  -9.462   6.053  0.00  0.00    +0.002 C 
ENDBRANCH   4  15
ENDBRANCH  13  21
ENDBRANCH   9  13
BRANCH   7  14
ATOM     14  C   UNL     1      -1.816 -10.343  13.794  0.00  0.00    +0.112 C 
BRANCH  14   5
ATOM      2  O   UNL     1      -1.685 -10.773  16.630  0.00  0.00    -0.270 OA
ATOM      5  N   UNL     1      -2.922 -10.517  14.684  0.00  0.00    -0.311 N 
ATOM     24  C   UNL     1      -2.768 -10.723  16.054  0.00  0.00    +0.248 C 
ATOM     33  H   UNL     1      -3.856 -10.474  14.288  0.00  0.00    +0.149 HD
BRANCH  24  25
ATOM     25  C   UNL     1      -4.016 -10.914  16.837  0.00  0.00    +0.078 A 
ATOM     26  C   UNL     1      -5.248 -10.490  16.337  0.00  0.00    +0.132 A 
ATOM     27  C   UNL     1      -3.945 -11.525  18.089  0.00  0.00    +0.017 A 
ATOM     28  C   UNL     1      -6.408 -10.678  17.088  0.00  0.00    +0.046 A 
ATOM     29  C   UNL     1      -5.105 -11.714  18.840  0.00  0.00    +0.001 A 
ATOM     30  C   UNL     1      -6.336 -11.290  18.340  0.00  0.00    +0.004 A 
BRANCH  26   3
ATOM      3  O   UNL     1      -5.338  -9.890  15.116  0.00  0.00    -0.494 OA
ATOM     31  C   UNL     1      -6.581 -10.008  14.428  0.00  0.00    +0.277 C 
ENDBRANCH  26   3
ENDBRANCH  24  25
ENDBRANCH  14   5
ENDBRANCH   7  14
TORSDOF 8
ENDMDL
MODEL 7
REMARK VINA RESULT:      -6.3     28.146     32.026
REMARK  Name = 38027325
REMARK  12 active torsions:
REMARK  status: ('A' for Active; 'I' for Inactive)
REMARK    1  A    between atoms: O_3  and  C_26
REMARK    2  A    between atoms: O_3  and  C_31
REMARK    3  A    between atoms: N_4  and  C_15
REMARK    4  A    between atoms: N_5  and  C_14
REMARK    5  A    between atoms: C_6  and  C_10
REMARK    6  A    between atoms: C_7  and  C_14
REMARK    7  A    between atoms: C_9  and  C_13
REMARK    8  A    between atoms: C_10  and  C_16
REMARK    9  A    between atoms: C_10  and  C_17
REMARK   10  A    between atoms: C_11  and  C_20
REMARK   11  A    between atoms: C_13  and  C_21
REMARK   12  A    between atoms: C_24  and  C_25
REMARK                            x       y       z     vdW  Elec       q    Type
REMARK                         _______ _______ _______ _____ _____    ______ ____
ROOT
ATOM      6  C   UNL     1      18.594   8.409  21.106  0.00  0.00    +0.000 C 
ATOM      7  C   UNL     1      18.505   6.869  21.250  0.00  0.00    +0.032 C 
ATOM      8  C   UNL     1      17.405   9.083  21.808  0.00  0.00    +0.012 C 
ATOM      9  C   UNL     1      16.052   8.618  21.237  0.00  0.00    +0.023 C 
ATOM     11  C   UNL     1      15.989   7.110  21.096  0.00  0.00    -0.073 C 
ATOM     12  C   UNL     1      17.094   6.345  21.117  0.00  0.00    -0.022 C 
ATOM     20  C   UNL     1      14.622   6.498  20.975  0.00  0.00    +0.039 C 
ENDROOT
BRANCH   6  10
ATOM     10  C   UNL     1      19.908   8.958  21.672  0.00  0.00    -0.013 C 
ATOM     16  C   UNL     1      19.921  10.482  21.605  0.00  0.00    +0.007 C 
ATOM     17  C   UNL     1      20.112   8.478  23.105  0.00  0.00    +0.007 C 
ENDBRANCH   6  10
BRANCH   9  13
ATOM     13  C   UNL     1      15.749   9.307  19.902  0.00  0.00    +0.103 C 
BRANCH  13  21
ATOM      1  O   UNL     1      14.404  11.318  19.870  0.00  0.00    -0.276 OA
ATOM      4  N   UNL     1      13.367   9.250  20.093  0.00  0.00    -0.312 N 
ATOM     21  C   UNL     1      14.458  10.094  19.948  0.00  0.00    +0.214 C 
ATOM     32  H   UNL     1      13.516   8.246  20.107  0.00  0.00    +0.149 HD
BRANCH   4  15
ATOM     15  C   UNL     1      12.008   9.728  20.168  0.00  0.00    +0.073 C 
ATOM     18  C   UNL     1      11.627  10.114  21.592  0.00  0.00    +0.022 C 
ATOM     19  C   UNL     1      11.000   8.633  19.835  0.00  0.00    +0.022 C 
ATOM     22  C   UNL     1      11.257   8.793  22.262  0.00  0.00    +0.002 C 
ATOM     23  C   UNL     1      10.815   7.857  21.137  0.00  0.00    +0.002 C 
ENDBRANCH   4  15
ENDBRANCH  13  21
ENDBRANCH   9  13
BRANCH   7  14
ATOM     14  C   UNL     1      19.409   6.166  20.232  0.00  0.00    +0.112 C 
BRANCH  14   5
ATOM      2  O   UNL     1      22.279   6.109  20.271  0.00  0.00    -0.270 OA
ATOM      5  N   UNL     1      20.235   5.192  20.874  0.00  0.00    -0.311 N 
ATOM     24  C   UNL     1      21.628   5.239  20.843  0.00  0.00    +0.248 C 
ATOM     33  H   UNL     1      19.773   4.445  21.383  0.00  0.00    +0.149 HD
BRANCH  24  25
ATOM     25  C   UNL     1      22.342   4.136  21.536  0.00  0.00    +0.078 A 
ATOM     26  C   UNL     1      22.328   4.037  22.928  0.00  0.00    +0.132 A 
ATOM     27  C   UNL     1      23.034   3.192  20.777  0.00  0.00    +0.017 A 
ATOM     28  C   UNL     1      23.006   2.994  23.559  0.00  0.00    +0.046 A 
ATOM     29  C   UNL     1      23.711   2.149  21.408  0.00  0.00    +0.001 A 
ATOM     30  C   UNL     1      23.697   2.050  22.800  0.00  0.00    +0.004 A 
BRANCH  26   3
ATOM      3  O   UNL     1      21.659   4.949  23.687  0.00  0.00    -0.494 OA
ATOM     31  C   UNL     1      22.448   5.840  24.473  0.00  0.00    +0.277 C 
ENDBRANCH  26   3
ENDBRANCH  24  25
ENDBRANCH  14   5
ENDBRANCH   7  14
TORSDOF 8
ENDMDL
MODEL 8
REMARK VINA RESULT:      -6.3     25.035     27.769
REMARK  Name = 38027325
REMARK  12 active torsions:
REMARK  status: ('A' for Active; 'I' for Inactive)
REMARK    1  A    between atoms: O_3  and  C_26
REMARK    2  A    between atoms: O_3  and  C_31
REMARK    3  A    between atoms: N_4  and  C_15
REMARK    4  A    between atoms: N_5  and  C_14
REMARK    5  A    between atoms: C_6  and  C_10
REMARK    6  A    between atoms: C_7  and  C_14
REMARK    7  A    between atoms: C_9  and  C_13
REMARK    8  A    between atoms: C_10  and  C_16
REMARK    9  A    between atoms: C_10  and  C_17
REMARK   10  A    between atoms: C_11  and  C_20
REMARK   11  A    between atoms: C_13  and  C_21
REMARK   12  A    between atoms: C_24  and  C_25
REMARK                            x       y       z     vdW  Elec       q    Type
REMARK                         _______ _______ _______ _____ _____    ______ ____
ROOT
ATOM      6  C   UNL     1      10.216   6.603   6.190  0.00  0.00    +0.000 C 
ATOM      7  C   UNL     1       9.900   7.582   7.348  0.00  0.00    +0.032 C 
ATOM      8  C   UNL     1      11.734   6.425   6.038  0.00  0.00    +0.012 C 
ATOM      9  C   UNL     1      12.452   7.759   5.758  0.00  0.00    +0.023 C 
ATOM     11  C   UNL     1      11.989   8.855   6.698  0.00  0.00    -0.073 C 
ATOM     12  C   UNL     1      10.853   8.752   7.409  0.00  0.00    -0.022 C 
ATOM     20  C   UNL     1      12.887  10.053   6.834  0.00  0.00    +0.039 C 
ENDROOT
BRANCH   6  10
ATOM     10  C   UNL     1       9.553   5.238   6.403  0.00  0.00    -0.013 C 
ATOM     16  C   UNL     1       9.979   4.264   5.308  0.00  0.00    +0.007 C 
ATOM     17  C   UNL     1       9.899   4.687   7.782  0.00  0.00    +0.007 C 
ENDBRANCH   6  10
BRANCH   9  13
ATOM     13  C   UNL     1      12.281   8.182   4.295  0.00  0.00    +0.103 C 
BRANCH  13  21
ATOM      1  O   UNL     1      14.055   6.822   3.372  0.00  0.00    -0.276 OA
ATOM      4  N   UNL     1      11.931   6.724   2.433  0.00  0.00    -0.312 N 
ATOM     21  C   UNL     1      12.880   7.176   3.338  0.00  0.00    +0.214 C 
ATOM     32  H   UNL     1      10.973   7.050   2.516  0.00  0.00    +0.149 HD
BRANCH   4  15
ATOM     15  C   UNL     1      12.225   5.759   1.403  0.00  0.00    +0.073 C 
ATOM     18  C   UNL     1      11.246   5.864   0.240  0.00  0.00    +0.022 C 
ATOM     19  C   UNL     1      12.020   4.328   1.888  0.00  0.00    +0.022 C 
ATOM     22  C   UNL     1      10.019   5.080   0.700  0.00  0.00    +0.002 C 
ATOM     23  C   UNL     1      10.523   4.067   1.727  0.00  0.00    +0.002 C 
ENDBRANCH   4  15
ENDBRANCH  13  21
ENDBRANCH   9  13
BRANCH   7  14
ATOM     14  C   UNL     1       8.461   8.101   7.256  0.00  0.00    +0.112 C 
BRANCH  14   5
ATOM      2  O   UNL     1       8.490  10.540   5.742  0.00  0.00    -0.270 OA
ATOM      5  N   UNL     1       8.065   8.264   5.892  0.00  0.00    -0.311 N 
ATOM     24  C   UNL     1       8.111   9.490   5.230  0.00  0.00    +0.248 C 
ATOM     33  H   UNL     1       7.752   7.438   5.391  0.00  0.00    +0.149 HD
BRANCH  24  25
ATOM     25  C   UNL     1       7.640   9.498   3.821  0.00  0.00    +0.078 A 
ATOM     26  C   UNL     1       6.379   9.996   3.491  0.00  0.00    +0.132 A 
ATOM     27  C   UNL     1       8.476   8.999   2.822  0.00  0.00    +0.017 A 
ATOM     28  C   UNL     1       5.954   9.995   2.163  0.00  0.00    +0.046 A 
ATOM     29  C   UNL     1       8.052   8.999   1.494  0.00  0.00    +0.001 A 
ATOM     30  C   UNL     1       6.791   9.497   1.164  0.00  0.00    +0.004 A 
BRANCH  26   3
ATOM      3  O   UNL     1       5.547  10.487   4.453  0.00  0.00    -0.494 OA
ATOM     31  C   UNL     1       4.683  11.557   4.076  0.00  0.00    +0.277 C 
ENDBRANCH  26   3
ENDBRANCH  24  25
ENDBRANCH  14   5
ENDBRANCH   7  14
TORSDOF 8
ENDMDL
MODEL 9
REMARK VINA RESULT:      -6.3     25.607     30.077
REMARK  Name = 38027325
REMARK  12 active torsions:
REMARK  status: ('A' for Active; 'I' for Inactive)
REMARK    1  A    between atoms: O_3  and  C_26
REMARK    2  A    between atoms: O_3  and  C_31
REMARK    3  A    between atoms: N_4  and  C_15
REMARK    4  A    between atoms: N_5  and  C_14
REMARK    5  A    between atoms: C_6  and  C_10
REMARK    6  A    between atoms: C_7  and  C_14
REMARK    7  A    between atoms: C_9  and  C_13
REMARK    8  A    between atoms: C_10  and  C_16
REMARK    9  A    between atoms: C_10  and  C_17
REMARK   10  A    between atoms: C_11  and  C_20
REMARK   11  A    between atoms: C_13  and  C_21
REMARK   12  A    between atoms: C_24  and  C_25
REMARK                            x       y       z     vdW  Elec       q    Type
REMARK                         _______ _______ _______ _____ _____    ______ ____
ROOT
ATOM      6  C   UNL     1      15.392   9.684   5.049  0.00  0.00    +0.000 C 
ATOM      7  C   UNL     1      15.948   8.244   5.181  0.00  0.00    +0.032 C 
ATOM      8  C   UNL     1      14.681  10.105   6.344  0.00  0.00    +0.012 C 
ATOM      9  C   UNL     1      13.516   9.163   6.701  0.00  0.00    +0.023 C 
ATOM     11  C   UNL     1      13.916   7.706   6.592  0.00  0.00    -0.073 C 
ATOM     12  C   UNL     1      15.013   7.315   5.920  0.00  0.00    -0.022 C 
ATOM     20  C   UNL     1      13.050   6.710   7.312  0.00  0.00    +0.039 C 
ENDROOT
BRANCH   6  10
ATOM     10  C   UNL     1      16.497  10.691   4.714  0.00  0.00    -0.013 C 
ATOM     16  C   UNL     1      15.924  12.103   4.636  0.00  0.00    +0.007 C 
ATOM     17  C   UNL     1      17.616  10.618   5.747  0.00  0.00    +0.007 C 
ENDBRANCH   6  10
BRANCH   9  13
ATOM     13  C   UNL     1      12.282   9.460   5.841  0.00  0.00    +0.103 C 
BRANCH  13  21
ATOM      1  O   UNL     1      10.682   9.706   7.639  0.00  0.00    -0.276 OA
ATOM      4  N   UNL     1      10.230   8.235   5.897  0.00  0.00    -0.312 N 
ATOM     21  C   UNL     1      10.993   9.172   6.578  0.00  0.00    +0.214 C 
ATOM     32  H   UNL     1      10.559   7.883   5.003  0.00  0.00    +0.149 HD
BRANCH   4  15
ATOM     15  C   UNL     1       8.950   7.769   6.371  0.00  0.00    +0.073 C 
ATOM     18  C   UNL     1       9.101   6.804   7.540  0.00  0.00    +0.022 C 
ATOM     19  C   UNL     1       8.229   6.923   5.326  0.00  0.00    +0.022 C 
ATOM     22  C   UNL     1       9.411   5.458   6.888  0.00  0.00    +0.002 C 
ATOM     23  C   UNL     1       8.814   5.521   5.482  0.00  0.00    +0.002 C 
ENDBRANCH   4  15
ENDBRANCH  13  21
ENDBRANCH   9  13
BRANCH   7  14
ATOM     14  C   UNL     1      16.277   7.651   3.807  0.00  0.00    +0.112 C 
BRANCH  14   5
ATOM      2  O   UNL     1      13.915   7.950   2.202  0.00  0.00    -0.270 OA
ATOM      5  N   UNL     1      15.345   6.624   3.460  0.00  0.00    -0.311 N 
ATOM     24  C   UNL     1      14.218   6.856   2.673  0.00  0.00    +0.248 C 
ATOM     33  H   UNL     1      15.531   5.685   3.798  0.00  0.00    +0.149 HD
BRANCH  24  25
ATOM     25  C   UNL     1      13.333   5.689   2.425  0.00  0.00    +0.078 A 
ATOM     26  C   UNL     1      13.817   4.544   1.793  0.00  0.00    +0.132 A 
ATOM     27  C   UNL     1      12.000   5.749   2.834  0.00  0.00    +0.017 A 
ATOM     28  C   UNL     1      12.970   3.459   1.569  0.00  0.00    +0.046 A 
ATOM     29  C   UNL     1      11.153   4.664   2.611  0.00  0.00    +0.001 A 
ATOM     30  C   UNL     1      11.638   3.519   1.978  0.00  0.00    +0.004 A 
BRANCH  26   3
ATOM      3  O   UNL     1      15.116   4.466   1.386  0.00  0.00    -0.494 OA
ATOM     31  C   UNL     1      15.356   4.496  -0.020  0.00  0.00    +0.277 C 
ENDBRANCH  26   3
ENDBRANCH  24  25
ENDBRANCH  14   5
ENDBRANCH   7  14
TORSDOF 8
ENDMDL
MODEL 10
REMARK VINA RESULT:      -6.2      3.510      6.853
REMARK  Name = 38027325
REMARK  12 active torsions:
REMARK  status: ('A' for Active; 'I' for Inactive)
REMARK    1  A    between atoms: O_3  and  C_26
REMARK    2  A    between atoms: O_3  and  C_31
REMARK    3  A    between atoms: N_4  and  C_15
REMARK    4  A    between atoms: N_5  and  C_14
REMARK    5  A    between atoms: C_6  and  C_10
REMARK    6  A    between atoms: C_7  and  C_14
REMARK    7  A    between atoms: C_9  and  C_13
REMARK    8  A    between atoms: C_10  and  C_16
REMARK    9  A    between atoms: C_10  and  C_17
REMARK   10  A    between atoms: C_11  and  C_20
REMARK   11  A    between atoms: C_13  and  C_21
REMARK   12  A    between atoms: C_24  and  C_25
REMARK                            x       y       z     vdW  Elec       q    Type
REMARK                         _______ _______ _______ _____ _____    ______ ____
ROOT
ATOM      6  C   UNL     1      -3.244 -12.199  12.454  0.00  0.00    +0.000 C 
ATOM      7  C   UNL     1      -2.154 -11.102  12.361  0.00  0.00    +0.032 C 
ATOM      8  C   UNL     1      -3.776 -12.544  11.054  0.00  0.00    +0.012 C 
ATOM      9  C   UNL     1      -4.376 -11.318  10.341  0.00  0.00    +0.023 C 
ATOM     11  C   UNL     1      -3.469 -10.109  10.440  0.00  0.00    -0.073 C 
ATOM     12  C   UNL     1      -2.473 -10.035  11.340  0.00  0.00    -0.022 C 
ATOM     20  C   UNL     1      -3.704  -9.002   9.450  0.00  0.00    +0.039 C 
ENDROOT
BRANCH   6  10
ATOM     10  C   UNL     1      -2.720 -13.466  13.135  0.00  0.00    -0.013 C 
ATOM     16  C   UNL     1      -3.680 -13.916  14.232  0.00  0.00    +0.007 C 
ATOM     17  C   UNL     1      -2.512 -14.576  12.110  0.00  0.00    +0.007 C 
ENDBRANCH   6  10
BRANCH   9  13
ATOM     13  C   UNL     1      -5.778 -10.999  10.874  0.00  0.00    +0.103 C 
BRANCH  13  21
ATOM      1  O   UNL     1      -7.352 -12.102   9.407  0.00  0.00    -0.276 OA
ATOM      4  N   UNL     1      -7.104  -9.794   9.292  0.00  0.00    -0.312 N 
ATOM     21  C   UNL     1      -6.828 -11.060   9.788  0.00  0.00    +0.214 C 
ATOM     32  H   UNL     1      -6.643  -8.989   9.705  0.00  0.00    +0.149 HD
BRANCH   4  15
ATOM     15  C   UNL     1      -8.066  -9.553   8.245  0.00  0.00    +0.073 C 
ATOM     18  C   UNL     1      -7.691  -8.337   7.407  0.00  0.00    +0.022 C 
ATOM     19  C   UNL     1      -9.432  -9.169   8.804  0.00  0.00    +0.022 C 
ATOM     22  C   UNL     1      -8.193  -7.144   8.218  0.00  0.00    +0.002 C 
ATOM     23  C   UNL     1      -9.337  -7.671   9.083  0.00  0.00    +0.002 C 
ENDBRANCH   4  15
ENDBRANCH  13  21
ENDBRANCH   9  13
BRANCH   7  14
ATOM     14  C   UNL     1      -1.913 -10.447  13.726  0.00  0.00    +0.112 C 
BRANCH  14   5
ATOM      2  O   UNL     1      -2.182 -10.812  16.561  0.00  0.00    -0.270 OA
ATOM      5  N   UNL     1      -3.124 -10.389  14.483  0.00  0.00    -0.311 N 
ATOM     24  C   UNL     1      -3.166 -10.580  15.863  0.00  0.00    +0.248 C 
ATOM     33  H   UNL     1      -3.983 -10.187  13.982  0.00  0.00    +0.149 HD
BRANCH  24  25
ATOM     25  C   UNL     1      -4.507 -10.516  16.499  0.00  0.00    +0.078 A 
ATOM     26  C   UNL     1      -4.816 -11.313  17.602  0.00  0.00    +0.132 A 
ATOM     27  C   UNL     1      -5.465  -9.644  15.979  0.00  0.00    +0.017 A 
ATOM     28  C   UNL     1      -6.081 -11.239  18.184  0.00  0.00    +0.046 A 
ATOM     29  C   UNL     1      -6.729  -9.569  16.562  0.00  0.00    +0.001 A 
ATOM     30  C   UNL     1      -7.038 -10.367  17.664  0.00  0.00    +0.004 A 
BRANCH  26   3
ATOM      3  O   UNL     1      -3.894 -12.171  18.124  0.00  0.00    -0.494 OA
ATOM     31  C   UNL     1      -3.763 -12.193  19.544  0.00  0.00    +0.277 C 
ENDBRANCH  26   3
ENDBRANCH  24  25
ENDBRANCH  14   5
ENDBRANCH   7  14
TORSDOF 8
ENDMDL
