MODEL 1
REMARK VINA RESULT:      -7.6      0.000      0.000
REMARK  Name = 45783519
REMARK  4 active torsions:
REMARK  status: ('A' for Active; 'I' for Inactive)
REMARK    1  A    between atoms: N_3  and  C_13
REMARK    2  A    between atoms: C_9  and  C_14
REMARK    3  A    between atoms: C_13  and  C_15
REMARK    4  A    between atoms: C_16  and  C_21
REMARK                            x       y       z     vdW  Elec       q    Type
REMARK                         _______ _______ _______ _____ _____    ______ ____
ROOT
ATOM      1  O   UNL     1      14.481   6.951  19.359  0.00  0.00    -0.336 OA
ATOM      4  N   UNL     1      15.643   7.452  21.208  0.00  0.00    -0.190 NA
ATOM      6  N   UNL     1      15.755   6.399  19.179  0.00  0.00    -0.056 NA
ATOM     14  C   UNL     1      14.501   7.553  20.578  0.00  0.00    +0.245 A 
ATOM     16  C   UNL     1      16.382   6.736  20.310  0.00  0.00    +0.204 A 
ENDROOT
BRANCH  16  21
ATOM      2  O   UNL     1      24.378   4.976  22.021  0.00  0.00    -0.377 OA
ATOM      5  N   UNL     1      21.668   5.398  21.403  0.00  0.00    -0.311 N 
ATOM      7  N   UNL     1      19.726   6.642  21.935  0.00  0.00    -0.240 NA
ATOM     19  C   UNL     1      22.704   5.637  20.393  0.00  0.00    +0.134 C 
ATOM     20  C   UNL     1      22.130   5.452  22.798  0.00  0.00    +0.134 C 
ATOM     21  C   UNL     1      17.745   6.376  20.574  0.00  0.00    +0.041 A 
ATOM     22  C   UNL     1      23.920   4.765  20.685  0.00  0.00    +0.178 C 
ATOM     23  C   UNL     1      23.376   4.590  22.961  0.00  0.00    +0.178 C 
ATOM     24  C   UNL     1      20.338   5.740  21.135  0.00  0.00    +0.121 A 
ATOM     25  C   UNL     1      18.409   5.453  19.774  0.00  0.00    +0.016 A 
ATOM     26  C   UNL     1      19.731   5.123  20.053  0.00  0.00    +0.044 A 
ATOM     29  C   UNL     1      18.441   6.937  21.632  0.00  0.00    +0.124 A 
ENDBRANCH  16  21
BRANCH  14   9
ATOM      3  N   UNL     1      12.390   8.669  19.874  0.00  0.00    -0.287 NA
ATOM      9  C   UNL     1      13.220   8.234  21.015  0.00  0.00    +0.146 C 
ATOM     10  C   UNL     1      12.304   7.307  21.835  0.00  0.00    +0.030 C 
ATOM     11  C   UNL     1      10.965   7.332  21.111  0.00  0.00    +0.017 C 
ATOM     12  C   UNL     1      11.002   8.632  20.334  0.00  0.00    +0.085 C 
BRANCH   3  13
ATOM     13  C   UNL     1      12.763   9.980  19.360  0.00  0.00    +0.120 C 
BRANCH  13  15
ATOM      8  N   UNL     1      13.851   9.824  15.202  0.00  0.00    -0.263 NA
ATOM     15  C   UNL     1      13.144   9.926  17.905  0.00  0.00    -0.030 A 
ATOM     17  C   UNL     1      14.374  10.421  17.486  0.00  0.00    +0.024 A 
ATOM     18  C   UNL     1      12.267   9.378  16.974  0.00  0.00    +0.024 A 
ATOM     27  C   UNL     1      14.677  10.348  16.136  0.00  0.00    +0.111 A 
ATOM     28  C   UNL     1      12.665   9.351  15.647  0.00  0.00    +0.111 A 
ENDBRANCH  13  15
ENDBRANCH   3  13
ENDBRANCH  14   9
TORSDOF 4
ENDMDL
MODEL 2
REMARK VINA RESULT:      -7.2      1.458      3.366
REMARK  Name = 45783519
REMARK  4 active torsions:
REMARK  status: ('A' for Active; 'I' for Inactive)
REMARK    1  A    between atoms: N_3  and  C_13
REMARK    2  A    between atoms: C_9  and  C_14
REMARK    3  A    between atoms: C_13  and  C_15
REMARK    4  A    between atoms: C_16  and  C_21
REMARK                            x       y       z     vdW  Elec       q    Type
REMARK                         _______ _______ _______ _____ _____    ______ ____
ROOT
ATOM      1  O   UNL     1      14.142   6.962  20.631  0.00  0.00    -0.336 OA
ATOM      4  N   UNL     1      15.816   6.950  19.143  0.00  0.00    -0.190 NA
ATOM      6  N   UNL     1      15.305   6.675  21.356  0.00  0.00    -0.056 NA
ATOM     14  C   UNL     1      14.532   7.109  19.337  0.00  0.00    +0.245 A 
ATOM     16  C   UNL     1      16.248   6.685  20.410  0.00  0.00    +0.204 A 
ENDROOT
BRANCH  16  21
ATOM      2  O   UNL     1      24.325   5.554  22.268  0.00  0.00    -0.377 OA
ATOM      5  N   UNL     1      21.604   5.765  21.595  0.00  0.00    -0.311 N 
ATOM      7  N   UNL     1      19.551   6.821  22.115  0.00  0.00    -0.240 NA
ATOM     19  C   UNL     1      22.638   6.124  20.619  0.00  0.00    +0.134 C 
ATOM     20  C   UNL     1      22.028   5.812  23.003  0.00  0.00    +0.134 C 
ATOM     21  C   UNL     1      17.631   6.433  20.697  0.00  0.00    +0.041 A 
ATOM     22  C   UNL     1      23.918   5.349  20.916  0.00  0.00    +0.178 C 
ATOM     23  C   UNL     1      23.339   5.054  23.171  0.00  0.00    +0.178 C 
ATOM     24  C   UNL     1      20.256   6.002  21.304  0.00  0.00    +0.121 A 
ATOM     25  C   UNL     1      18.390   5.597  19.886  0.00  0.00    +0.016 A 
ATOM     26  C   UNL     1      19.729   5.372  20.188  0.00  0.00    +0.044 A 
ATOM     29  C   UNL     1      18.253   7.016  21.789  0.00  0.00    +0.124 A 
ENDBRANCH  16  21
BRANCH  14   9
ATOM      3  N   UNL     1      12.687   8.648  18.689  0.00  0.00    -0.287 NA
ATOM      9  C   UNL     1      13.442   7.429  18.336  0.00  0.00    +0.146 C 
ATOM     10  C   UNL     1      13.993   7.705  16.926  0.00  0.00    +0.030 C 
ATOM     11  C   UNL     1      13.446   9.075  16.546  0.00  0.00    +0.017 C 
ATOM     12  C   UNL     1      12.224   9.228  17.428  0.00  0.00    +0.085 C 
BRANCH   3  13
ATOM     13  C   UNL     1      11.589   8.395  19.613  0.00  0.00    +0.120 C 
BRANCH  13  15
ATOM      8  N   UNL     1      11.727  11.012  23.023  0.00  0.00    -0.263 NA
ATOM     15  C   UNL     1      11.637   9.312  20.807  0.00  0.00    -0.030 A 
ATOM     17  C   UNL     1      10.760   9.121  21.869  0.00  0.00    +0.024 A 
ATOM     18  C   UNL     1      12.560  10.351  20.851  0.00  0.00    +0.024 A 
ATOM     27  C   UNL     1      10.845   9.991  22.944  0.00  0.00    +0.111 A 
ATOM     28  C   UNL     1      12.564  11.166  21.972  0.00  0.00    +0.111 A 
ENDBRANCH  13  15
ENDBRANCH   3  13
ENDBRANCH  14   9
TORSDOF 4
ENDMDL
MODEL 3
REMARK VINA RESULT:      -6.9     26.245     30.552
REMARK  Name = 45783519
REMARK  4 active torsions:
REMARK  status: ('A' for Active; 'I' for Inactive)
REMARK    1  A    between atoms: N_3  and  C_13
REMARK    2  A    between atoms: C_9  and  C_14
REMARK    3  A    between atoms: C_13  and  C_15
REMARK    4  A    between atoms: C_16  and  C_21
REMARK                            x       y       z     vdW  Elec       q    Type
REMARK                         _______ _______ _______ _____ _____    ______ ____
ROOT
ATOM      1  O   UNL     1      -4.666 -10.707  17.351  0.00  0.00    -0.336 OA
ATOM      4  N   UNL     1      -5.616 -10.243  15.376  0.00  0.00    -0.190 NA
ATOM      6  N   UNL     1      -5.961 -10.258  17.638  0.00  0.00    -0.056 NA
ATOM     14  C   UNL     1      -4.545 -10.666  15.998  0.00  0.00    +0.245 A 
ATOM     16  C   UNL     1      -6.457 -10.005  16.423  0.00  0.00    +0.204 A 
ENDROOT
BRANCH  16  21
ATOM      2  O   UNL     1     -14.156  -7.126  14.870  0.00  0.00    -0.377 OA
ATOM      5  N   UNL     1     -11.620  -8.126  15.557  0.00  0.00    -0.311 N 
ATOM      7  N   UNL     1      -9.713  -9.289  14.775  0.00  0.00    -0.240 NA
ATOM     19  C   UNL     1     -11.893  -6.687  15.630  0.00  0.00    +0.134 C 
ATOM     20  C   UNL     1     -12.500  -8.885  14.657  0.00  0.00    +0.134 C 
ATOM     21  C   UNL     1      -7.789  -9.511  16.222  0.00  0.00    +0.041 A 
ATOM     22  C   UNL     1     -13.382  -6.456  15.865  0.00  0.00    +0.178 C 
ATOM     23  C   UNL     1     -13.955  -8.537  14.945  0.00  0.00    +0.178 C 
ATOM     24  C   UNL     1     -10.321  -8.602  15.767  0.00  0.00    +0.121 A 
ATOM     25  C   UNL     1      -8.448  -8.800  17.219  0.00  0.00    +0.016 A 
ATOM     26  C   UNL     1      -9.738  -8.333  16.996  0.00  0.00    +0.044 A 
ATOM     29  C   UNL     1      -8.459  -9.726  15.029  0.00  0.00    +0.124 A 
ENDBRANCH  16  21
BRANCH  14   9
ATOM      3  N   UNL     1      -2.914 -10.474  14.128  0.00  0.00    -0.287 NA
ATOM      9  C   UNL     1      -3.214 -11.111  15.426  0.00  0.00    +0.146 C 
ATOM     10  C   UNL     1      -2.026 -10.738  16.329  0.00  0.00    +0.030 C 
ATOM     11  C   UNL     1      -1.081  -9.946  15.436  0.00  0.00    +0.017 C 
ATOM     12  C   UNL     1      -1.456 -10.390  14.037  0.00  0.00    +0.085 C 
BRANCH   3  13
ATOM     13  C   UNL     1      -3.494 -11.182  12.994  0.00  0.00    +0.120 C 
BRANCH  13  15
ATOM      8  N   UNL     1      -4.672  -8.489   9.855  0.00  0.00    -0.263 NA
ATOM     15  C   UNL     1      -3.906 -10.239  11.895  0.00  0.00    -0.030 A 
ATOM     17  C   UNL     1      -3.062 -10.016  10.813  0.00  0.00    +0.024 A 
ATOM     18  C   UNL     1      -5.134  -9.589  11.958  0.00  0.00    +0.024 A 
ATOM     27  C   UNL     1      -3.487  -9.139   9.829  0.00  0.00    +0.111 A 
ATOM     28  C   UNL     1      -5.467  -8.732  10.921  0.00  0.00    +0.111 A 
ENDBRANCH  13  15
ENDBRANCH   3  13
ENDBRANCH  14   9
TORSDOF 4
ENDMDL
MODEL 4
REMARK VINA RESULT:      -6.8     29.762     31.894
REMARK  Name = 45783519
REMARK  4 active torsions:
REMARK  status: ('A' for Active; 'I' for Inactive)
REMARK    1  A    between atoms: N_3  and  C_13
REMARK    2  A    between atoms: C_9  and  C_14
REMARK    3  A    between atoms: C_13  and  C_15
REMARK    4  A    between atoms: C_16  and  C_21
REMARK                            x       y       z     vdW  Elec       q    Type
REMARK                         _______ _______ _______ _____ _____    ______ ____
ROOT
ATOM      1  O   UNL     1     -14.182  -5.437  13.871  0.00  0.00    -0.336 OA
ATOM      4  N   UNL     1     -11.960  -5.172  13.761  0.00  0.00    -0.190 NA
ATOM      6  N   UNL     1     -13.629  -6.452  14.663  0.00  0.00    -0.056 NA
ATOM     14  C   UNL     1     -13.131  -4.730  13.378  0.00  0.00    +0.245 A 
ATOM     16  C   UNL     1     -12.316  -6.228  14.548  0.00  0.00    +0.204 A 
ENDROOT
BRANCH  16  21
ATOM      2  O   UNL     1      -6.658 -11.254  18.110  0.00  0.00    -0.377 OA
ATOM      5  N   UNL     1      -8.499  -9.435  17.013  0.00  0.00    -0.311 N 
ATOM      7  N   UNL     1      -9.707  -8.827  15.071  0.00  0.00    -0.240 NA
ATOM     19  C   UNL     1      -8.882 -10.284  18.146  0.00  0.00    +0.134 C 
ATOM     20  C   UNL     1      -7.379  -9.938  16.204  0.00  0.00    +0.134 C 
ATOM     21  C   UNL     1     -11.335  -7.044  15.204  0.00  0.00    +0.041 A 
ATOM     22  C   UNL     1      -7.643 -10.658  18.953  0.00  0.00    +0.178 C 
ATOM     23  C   UNL     1      -6.221 -10.328  17.115  0.00  0.00    +0.178 C 
ATOM     24  C   UNL     1      -9.458  -8.632  16.386  0.00  0.00    +0.121 A 
ATOM     25  C   UNL     1     -11.050  -6.874  16.555  0.00  0.00    +0.016 A 
ATOM     26  C   UNL     1     -10.095  -7.680  17.165  0.00  0.00    +0.044 A 
ATOM     29  C   UNL     1     -10.643  -8.025  14.514  0.00  0.00    +0.124 A 
ENDBRANCH  16  21
BRANCH  14   9
ATOM      3  N   UNL     1     -13.234  -3.856  11.050  0.00  0.00    -0.287 NA
ATOM      9  C   UNL     1     -13.468  -3.560  12.477  0.00  0.00    +0.146 C 
ATOM     10  C   UNL     1     -14.951  -3.158  12.556  0.00  0.00    +0.030 C 
ATOM     11  C   UNL     1     -15.451  -3.199  11.118  0.00  0.00    +0.017 C 
ATOM     12  C   UNL     1     -14.187  -3.040  10.297  0.00  0.00    +0.085 C 
BRANCH   3  13
ATOM     13  C   UNL     1     -11.858  -3.617  10.632  0.00  0.00    +0.120 C 
BRANCH  13  15
ATOM      8  N   UNL     1     -10.249  -6.945   8.435  0.00  0.00    -0.263 NA
ATOM     15  C   UNL     1     -11.295  -4.782   9.863  0.00  0.00    -0.030 A 
ATOM     17  C   UNL     1     -11.761  -6.070  10.105  0.00  0.00    +0.024 A 
ATOM     18  C   UNL     1     -10.306  -4.575   8.907  0.00  0.00    +0.024 A 
ATOM     27  C   UNL     1     -11.210  -7.108   9.372  0.00  0.00    +0.111 A 
ATOM     28  C   UNL     1      -9.821  -5.680   8.227  0.00  0.00    +0.111 A 
ENDBRANCH  13  15
ENDBRANCH   3  13
ENDBRANCH  14   9
TORSDOF 4
ENDMDL
MODEL 5
REMARK VINA RESULT:      -6.8     26.915     30.821
REMARK  Name = 45783519
REMARK  4 active torsions:
REMARK  status: ('A' for Active; 'I' for Inactive)
REMARK    1  A    between atoms: N_3  and  C_13
REMARK    2  A    between atoms: C_9  and  C_14
REMARK    3  A    between atoms: C_13  and  C_15
REMARK    4  A    between atoms: C_16  and  C_21
REMARK                            x       y       z     vdW  Elec       q    Type
REMARK                         _______ _______ _______ _____ _____    ______ ____
ROOT
ATOM      1  O   UNL     1      -5.041  -9.822  15.958  0.00  0.00    -0.336 OA
ATOM      4  N   UNL     1      -5.145 -11.835  16.934  0.00  0.00    -0.190 NA
ATOM      6  N   UNL     1      -6.237  -9.839  16.686  0.00  0.00    -0.056 NA
ATOM     14  C   UNL     1      -4.460 -11.034  16.158  0.00  0.00    +0.245 A 
ATOM     16  C   UNL     1      -6.227 -11.059  17.233  0.00  0.00    +0.204 A 
ENDROOT
BRANCH  16  21
ATOM      2  O   UNL     1     -12.382 -14.151  21.978  0.00  0.00    -0.377 OA
ATOM      5  N   UNL     1     -10.296 -12.982  20.500  0.00  0.00    -0.311 N 
ATOM      7  N   UNL     1      -8.454 -13.400  19.075  0.00  0.00    -0.240 NA
ATOM     19  C   UNL     1     -11.694 -12.671  20.182  0.00  0.00    +0.134 C 
ATOM     20  C   UNL     1     -10.083 -14.251  21.211  0.00  0.00    +0.134 C 
ATOM     21  C   UNL     1      -7.283 -11.532  18.080  0.00  0.00    +0.041 A 
ATOM     22  C   UNL     1     -12.557 -12.846  21.427  0.00  0.00    +0.178 C 
ATOM     23  C   UNL     1     -11.031 -14.340  22.400  0.00  0.00    +0.178 C 
ATOM     24  C   UNL     1      -9.270 -12.506  19.677  0.00  0.00    +0.121 A 
ATOM     25  C   UNL     1      -8.144 -10.644  18.717  0.00  0.00    +0.016 A 
ATOM     26  C   UNL     1      -9.159 -11.132  19.532  0.00  0.00    +0.044 A 
ATOM     29  C   UNL     1      -7.479 -12.887  18.290  0.00  0.00    +0.124 A 
ENDBRANCH  16  21
BRANCH  14   9
ATOM      3  N   UNL     1      -3.007 -10.513  14.206  0.00  0.00    -0.287 NA
ATOM      9  C   UNL     1      -3.132 -11.270  15.468  0.00  0.00    +0.146 C 
ATOM     10  C   UNL     1      -1.933 -10.816  16.318  0.00  0.00    +0.030 C 
ATOM     11  C   UNL     1      -1.158  -9.852  15.429  0.00  0.00    +0.017 C 
ATOM     12  C   UNL     1      -1.581 -10.242  14.027  0.00  0.00    +0.085 C 
BRANCH   3  13
ATOM     13  C   UNL     1      -3.581 -11.207  13.061  0.00  0.00    +0.120 C 
BRANCH  13  15
ATOM      8  N   UNL     1      -4.851  -8.468   9.998  0.00  0.00    -0.263 NA
ATOM     15  C   UNL     1      -4.026 -10.248  11.989  0.00  0.00    -0.030 A 
ATOM     17  C   UNL     1      -5.247  -9.592  12.101  0.00  0.00    +0.024 A 
ATOM     18  C   UNL     1      -3.216 -10.014  10.882  0.00  0.00    +0.024 A 
ATOM     27  C   UNL     1      -5.611  -8.721  11.088  0.00  0.00    +0.111 A 
ATOM     28  C   UNL     1      -3.670  -9.123   9.924  0.00  0.00    +0.111 A 
ENDBRANCH  13  15
ENDBRANCH   3  13
ENDBRANCH  14   9
TORSDOF 4
ENDMDL
MODEL 6
REMARK VINA RESULT:      -6.6      2.127      3.283
REMARK  Name = 45783519
REMARK  4 active torsions:
REMARK  status: ('A' for Active; 'I' for Inactive)
REMARK    1  A    between atoms: N_3  and  C_13
REMARK    2  A    between atoms: C_9  and  C_14
REMARK    3  A    between atoms: C_13  and  C_15
REMARK    4  A    between atoms: C_16  and  C_21
REMARK                            x       y       z     vdW  Elec       q    Type
REMARK                         _______ _______ _______ _____ _____    ______ ____
ROOT
ATOM      1  O   UNL     1      16.905   6.743  19.427  0.00  0.00    -0.336 OA
ATOM      4  N   UNL     1      17.978   7.397  21.281  0.00  0.00    -0.190 NA
ATOM      6  N   UNL     1      18.025   5.911  19.542  0.00  0.00    -0.056 NA
ATOM     14  C   UNL     1      16.953   7.589  20.490  0.00  0.00    +0.245 A 
ATOM     16  C   UNL     1      18.606   6.358  20.659  0.00  0.00    +0.204 A 
ENDROOT
BRANCH  16  21
ATOM      2  O   UNL     1      25.706   3.361  23.911  0.00  0.00    -0.377 OA
ATOM      5  N   UNL     1      23.290   4.208  22.751  0.00  0.00    -0.311 N 
ATOM      7  N   UNL     1      21.428   5.652  22.977  0.00  0.00    -0.240 NA
ATOM     19  C   UNL     1      24.558   4.396  22.039  0.00  0.00    +0.134 C 
ATOM     20  C   UNL     1      23.405   4.067  24.210  0.00  0.00    +0.134 C 
ATOM     21  C   UNL     1      19.817   5.790  21.179  0.00  0.00    +0.041 A 
ATOM     22  C   UNL     1      25.563   3.341  22.491  0.00  0.00    +0.178 C 
ATOM     23  C   UNL     1      24.470   3.030  24.544  0.00  0.00    +0.178 C 
ATOM     24  C   UNL     1      22.111   4.754  22.232  0.00  0.00    +0.121 A 
ATOM     25  C   UNL     1      20.547   4.863  20.444  0.00  0.00    +0.016 A 
ATOM     26  C   UNL     1      21.717   4.330  20.972  0.00  0.00    +0.044 A 
ATOM     29  C   UNL     1      20.296   6.149  22.428  0.00  0.00    +0.124 A 
ENDBRANCH  16  21
BRANCH  14   9
ATOM      3  N   UNL     1      15.082   8.489  21.862  0.00  0.00    -0.287 NA
ATOM      9  C   UNL     1      15.834   8.604  20.596  0.00  0.00    +0.146 C 
ATOM     10  C   UNL     1      16.345  10.055  20.575  0.00  0.00    +0.030 C 
ATOM     11  C   UNL     1      15.779  10.694  21.836  0.00  0.00    +0.017 C 
ATOM     12  C   UNL     1      14.580   9.829  22.168  0.00  0.00    +0.085 C 
BRANCH   3  13
ATOM     13  C   UNL     1      14.010   7.503  21.805  0.00  0.00    +0.120 C 
BRANCH  13  15
ATOM      8  N   UNL     1      11.414   8.147  18.437  0.00  0.00    -0.263 NA
ATOM     15  C   UNL     1      13.101   7.728  20.626  0.00  0.00    -0.030 A 
ATOM     17  C   UNL     1      11.954   8.500  20.767  0.00  0.00    +0.024 A 
ATOM     18  C   UNL     1      13.407   7.165  19.392  0.00  0.00    +0.024 A 
ATOM     27  C   UNL     1      11.150   8.677  19.653  0.00  0.00    +0.111 A 
ATOM     28  C   UNL     1      12.539   7.403  18.339  0.00  0.00    +0.111 A 
ENDBRANCH  13  15
ENDBRANCH   3  13
ENDBRANCH  14   9
TORSDOF 4
ENDMDL
MODEL 7
REMARK VINA RESULT:      -6.4     16.963     21.748
REMARK  Name = 45783519
REMARK  4 active torsions:
REMARK  status: ('A' for Active; 'I' for Inactive)
REMARK    1  A    between atoms: N_3  and  C_13
REMARK    2  A    between atoms: C_9  and  C_14
REMARK    3  A    between atoms: C_13  and  C_15
REMARK    4  A    between atoms: C_16  and  C_21
REMARK                            x       y       z     vdW  Elec       q    Type
REMARK                         _______ _______ _______ _____ _____    ______ ____
ROOT
ATOM      1  O   UNL     1      12.739   3.138  -0.981  0.00  0.00    -0.336 OA
ATOM      4  N   UNL     1      10.677   3.931  -0.616  0.00  0.00    -0.190 NA
ATOM      6  N   UNL     1      12.734   3.616   0.335  0.00  0.00    -0.056 NA
ATOM     14  C   UNL     1      11.490   3.363  -1.468  0.00  0.00    +0.245 A 
ATOM     16  C   UNL     1      11.484   4.067   0.476  0.00  0.00    +0.204 A 
ENDROOT
BRANCH  16  21
ATOM      2  O   UNL     1       8.679   7.176   7.717  0.00  0.00    -0.377 OA
ATOM      5  N   UNL     1       9.676   6.293   5.241  0.00  0.00    -0.311 N 
ATOM      7  N   UNL     1      10.673   4.487   4.081  0.00  0.00    -0.240 NA
ATOM     19  C   UNL     1       8.266   6.673   5.379  0.00  0.00    +0.134 C 
ATOM     20  C   UNL     1      10.345   5.908   6.492  0.00  0.00    +0.134 C 
ATOM     21  C   UNL     1      11.012   4.661   1.693  0.00  0.00    +0.041 A 
ATOM     22  C   UNL     1       8.113   7.685   6.510  0.00  0.00    +0.178 C 
ATOM     23  C   UNL     1      10.082   6.960   7.562  0.00  0.00    +0.178 C 
ATOM     24  C   UNL     1      10.133   5.726   4.047  0.00  0.00    +0.121 A 
ATOM     25  C   UNL     1      10.451   5.934   1.699  0.00  0.00    +0.016 A 
ATOM     26  C   UNL     1      10.000   6.484   2.894  0.00  0.00    +0.044 A 
ATOM     29  C   UNL     1      11.099   3.986   2.899  0.00  0.00    +0.124 A 
ENDBRANCH  16  21
BRANCH  14   9
ATOM      3  N   UNL     1      10.556   3.968  -3.694  0.00  0.00    -0.287 NA
ATOM      9  C   UNL     1      11.234   2.927  -2.896  0.00  0.00    +0.146 C 
ATOM     10  C   UNL     1      12.531   2.625  -3.667  0.00  0.00    +0.030 C 
ATOM     11  C   UNL     1      12.465   3.498  -4.913  0.00  0.00    +0.017 C 
ATOM     12  C   UNL     1      10.984   3.771  -5.079  0.00  0.00    +0.085 C 
BRANCH   3  13
ATOM     13  C   UNL     1       9.105   3.940  -3.560  0.00  0.00    +0.120 C 
BRANCH  13  15
ATOM      8  N   UNL     1       7.424   7.898  -3.517  0.00  0.00    -0.263 NA
ATOM     15  C   UNL     1       8.517   5.326  -3.545  0.00  0.00    -0.030 A 
ATOM     17  C   UNL     1       8.937   6.253  -2.597  0.00  0.00    +0.024 A 
ATOM     18  C   UNL     1       7.551   5.684  -4.479  0.00  0.00    +0.024 A 
ATOM     27  C   UNL     1       8.364   7.514  -2.625  0.00  0.00    +0.111 A 
ATOM     28  C   UNL     1       7.041   6.971  -4.423  0.00  0.00    +0.111 A 
ENDBRANCH  13  15
ENDBRANCH   3  13
ENDBRANCH  14   9
TORSDOF 4
ENDMDL
MODEL 8
REMARK VINA RESULT:      -6.4     14.486     18.878
REMARK  Name = 45783519
REMARK  4 active torsions:
REMARK  status: ('A' for Active; 'I' for Inactive)
REMARK    1  A    between atoms: N_3  and  C_13
REMARK    2  A    between atoms: C_9  and  C_14
REMARK    3  A    between atoms: C_13  and  C_15
REMARK    4  A    between atoms: C_16  and  C_21
REMARK                            x       y       z     vdW  Elec       q    Type
REMARK                         _______ _______ _______ _____ _____    ______ ____
ROOT
ATOM      1  O   UNL     1      12.548   7.445   5.511  0.00  0.00    -0.336 OA
ATOM      4  N   UNL     1      10.875   6.094   4.882  0.00  0.00    -0.190 NA
ATOM      6  N   UNL     1      12.820   7.080   4.186  0.00  0.00    -0.056 NA
ATOM     14  C   UNL     1      11.387   6.821   5.842  0.00  0.00    +0.245 A 
ATOM     16  C   UNL     1      11.789   6.284   3.886  0.00  0.00    +0.204 A 
ENDROOT
BRANCH  16  21
ATOM      2  O   UNL     1      11.288   2.798  -3.701  0.00  0.00    -0.377 OA
ATOM      5  N   UNL     1      11.319   3.871  -1.103  0.00  0.00    -0.311 N 
ATOM      7  N   UNL     1      12.685   4.734   0.626  0.00  0.00    -0.240 NA
ATOM     19  C   UNL     1      10.599   4.559  -2.180  0.00  0.00    +0.134 C 
ATOM     20  C   UNL     1      12.387   2.962  -1.544  0.00  0.00    +0.134 C 
ATOM     21  C   UNL     1      11.644   5.662   2.602  0.00  0.00    +0.041 A 
ATOM     22  C   UNL     1      10.167   3.550  -3.238  0.00  0.00    +0.178 C 
ATOM     23  C   UNL     1      11.858   2.038  -2.635  0.00  0.00    +0.178 C 
ATOM     24  C   UNL     1      11.446   4.478   0.151  0.00  0.00    +0.121 A 
ATOM     25  C   UNL     1      10.386   5.383   2.079  0.00  0.00    +0.016 A 
ATOM     26  C   UNL     1      10.276   4.780   0.831  0.00  0.00    +0.044 A 
ATOM     29  C   UNL     1      12.751   5.321   1.843  0.00  0.00    +0.124 A 
ENDBRANCH  16  21
BRANCH  14   9
ATOM      3  N   UNL     1       9.475   7.542   7.263  0.00  0.00    -0.287 NA
ATOM      9  C   UNL     1      10.870   7.058   7.246  0.00  0.00    +0.146 C 
ATOM     10  C   UNL     1      10.850   5.776   8.097  0.00  0.00    +0.030 C 
ATOM     11  C   UNL     1       9.417   5.654   8.598  0.00  0.00    +0.017 C 
ATOM     12  C   UNL     1       8.889   7.072   8.519  0.00  0.00    +0.085 C 
BRANCH   3  13
ATOM     13  C   UNL     1       9.367   8.987   7.115  0.00  0.00    +0.120 C 
BRANCH  13  15
ATOM      8  N   UNL     1       7.736  10.091   3.291  0.00  0.00    -0.263 NA
ATOM     15  C   UNL     1       8.796   9.373   5.776  0.00  0.00    -0.030 A 
ATOM     17  C   UNL     1       8.111   8.435   5.012  0.00  0.00    +0.024 A 
ATOM     18  C   UNL     1       8.951  10.671   5.300  0.00  0.00    +0.024 A 
ATOM     27  C   UNL     1       7.606   8.840   3.788  0.00  0.00    +0.111 A 
ATOM     28  C   UNL     1       8.407  10.976   4.063  0.00  0.00    +0.111 A 
ENDBRANCH  13  15
ENDBRANCH   3  13
ENDBRANCH  14   9
TORSDOF 4
ENDMDL
MODEL 9
REMARK VINA RESULT:      -6.3     28.034     31.012
REMARK  Name = 45783519
REMARK  4 active torsions:
REMARK  status: ('A' for Active; 'I' for Inactive)
REMARK    1  A    between atoms: N_3  and  C_13
REMARK    2  A    between atoms: C_9  and  C_14
REMARK    3  A    between atoms: C_13  and  C_15
REMARK    4  A    between atoms: C_16  and  C_21
REMARK                            x       y       z     vdW  Elec       q    Type
REMARK                         _______ _______ _______ _____ _____    ______ ____
ROOT
ATOM      1  O   UNL     1     -13.497   9.132  18.826  0.00  0.00    -0.336 OA
ATOM      4  N   UNL     1     -12.452   7.905  20.382  0.00  0.00    -0.190 NA
ATOM      6  N   UNL     1     -14.471   8.287  19.374  0.00  0.00    -0.056 NA
ATOM     14  C   UNL     1     -12.339   8.842  19.475  0.00  0.00    +0.245 A 
ATOM     16  C   UNL     1     -13.777   7.596  20.284  0.00  0.00    +0.204 A 
ENDROOT
BRANCH  16  21
ATOM      2  O   UNL     1     -17.607   1.931  25.101  0.00  0.00    -0.377 OA
ATOM      5  N   UNL     1     -16.192   3.717  23.455  0.00  0.00    -0.311 N 
ATOM      7  N   UNL     1     -16.383   5.485  21.894  0.00  0.00    -0.240 NA
ATOM     19  C   UNL     1     -16.009   3.748  24.909  0.00  0.00    +0.134 C 
ATOM     20  C   UNL     1     -17.457   3.125  22.995  0.00  0.00    +0.134 C 
ATOM     21  C   UNL     1     -14.379   6.588  21.109  0.00  0.00    +0.041 A 
ATOM     22  C   UNL     1     -16.308   2.372  25.496  0.00  0.00    +0.178 C 
ATOM     23  C   UNL     1     -17.677   1.783  23.683  0.00  0.00    +0.178 C 
ATOM     24  C   UNL     1     -15.593   4.695  22.654  0.00  0.00    +0.121 A 
ATOM     25  C   UNL     1     -13.600   5.756  21.906  0.00  0.00    +0.016 A 
ATOM     26  C   UNL     1     -14.210   4.789  22.696  0.00  0.00    +0.044 A 
ATOM     29  C   UNL     1     -15.753   6.414  21.139  0.00  0.00    +0.124 A 
ENDBRANCH  16  21
BRANCH  14   9
ATOM      3  N   UNL     1     -11.026   9.810  17.595  0.00  0.00    -0.287 NA
ATOM      9  C   UNL     1     -11.115   9.633  19.058  0.00  0.00    +0.146 C 
ATOM     10  C   UNL     1     -11.111  11.062  19.628  0.00  0.00    +0.030 C 
ATOM     11  C   UNL     1     -10.954  11.972  18.416  0.00  0.00    +0.017 C 
ATOM     12  C   UNL     1     -10.319  11.073  17.375  0.00  0.00    +0.085 C 
BRANCH   3  13
ATOM     13  C   UNL     1     -10.377   8.694  16.920  0.00  0.00    +0.120 C 
BRANCH  13  15
ATOM      8  N   UNL     1     -12.372   7.658  13.254  0.00  0.00    -0.263 NA
ATOM     15  C   UNL     1     -11.075   8.331  15.637  0.00  0.00    -0.030 A 
ATOM     17  C   UNL     1     -10.347   7.832  14.563  0.00  0.00    +0.024 A 
ATOM     18  C   UNL     1     -12.451   8.495  15.521  0.00  0.00    +0.024 A 
ATOM     27  C   UNL     1     -11.036   7.513  13.404  0.00  0.00    +0.111 A 
ATOM     28  C   UNL     1     -13.046   8.146  14.319  0.00  0.00    +0.111 A 
ENDBRANCH  13  15
ENDBRANCH   3  13
ENDBRANCH  14   9
TORSDOF 4
ENDMDL
MODEL 10
REMARK VINA RESULT:      -6.3     27.924     30.367
REMARK  Name = 45783519
REMARK  4 active torsions:
REMARK  status: ('A' for Active; 'I' for Inactive)
REMARK    1  A    between atoms: N_3  and  C_13
REMARK    2  A    between atoms: C_9  and  C_14
REMARK    3  A    between atoms: C_13  and  C_15
REMARK    4  A    between atoms: C_16  and  C_21
REMARK                            x       y       z     vdW  Elec       q    Type
REMARK                         _______ _______ _______ _____ _____    ______ ____
ROOT
ATOM      1  O   UNL     1      -2.063 -10.803  12.455  0.00  0.00    -0.336 OA
ATOM      4  N   UNL     1      -4.292 -10.998  12.569  0.00  0.00    -0.190 NA
ATOM      6  N   UNL     1      -2.575 -10.040  11.398  0.00  0.00    -0.056 NA
ATOM     14  C   UNL     1      -3.140 -11.333  13.093  0.00  0.00    +0.245 A 
ATOM     16  C   UNL     1      -3.894 -10.204  11.533  0.00  0.00    +0.204 A 
ENDROOT
BRANCH  16  21
ATOM      2  O   UNL     1      -9.699  -6.825   6.548  0.00  0.00    -0.377 OA
ATOM      5  N   UNL     1      -7.634  -7.842   8.162  0.00  0.00    -0.311 N 
ATOM      7  N   UNL     1      -7.112  -8.872  10.227  0.00  0.00    -0.240 NA
ATOM     19  C   UNL     1      -7.904  -8.431   6.846  0.00  0.00    +0.134 C 
ATOM     20  C   UNL     1      -8.761  -7.116   8.766  0.00  0.00    +0.134 C 
ATOM     21  C   UNL     1      -4.842  -9.591  10.647  0.00  0.00    +0.041 A 
ATOM     22  C   UNL     1      -8.539  -7.386   5.934  0.00  0.00    +0.178 C 
ATOM     23  C   UNL     1      -9.349  -6.142   7.752  0.00  0.00    +0.178 C 
ATOM     24  C   UNL     1      -6.700  -8.437   9.016  0.00  0.00    +0.121 A 
ATOM     25  C   UNL     1      -4.456  -9.131   9.392  0.00  0.00    +0.016 A 
ATOM     26  C   UNL     1      -5.397  -8.542   8.555  0.00  0.00    +0.044 A 
ATOM     29  C   UNL     1      -6.169  -9.440  11.013  0.00  0.00    +0.124 A 
ENDBRANCH  16  21
BRANCH  14   9
ATOM      3  N   UNL     1      -3.891 -12.115  15.333  0.00  0.00    -0.287 NA
ATOM      9  C   UNL     1      -2.850 -12.213  14.291  0.00  0.00    +0.146 C 
ATOM     10  C   UNL     1      -2.796 -13.708  13.931  0.00  0.00    +0.030 C 
ATOM     11  C   UNL     1      -3.796 -14.378  14.863  0.00  0.00    +0.017 C 
ATOM     12  C   UNL     1      -3.911 -13.406  16.020  0.00  0.00    +0.085 C 
BRANCH   3  13
ATOM     13  C   UNL     1      -3.678 -11.007  16.255  0.00  0.00    +0.120 C 
BRANCH  13  15
ATOM      8  N   UNL     1      -7.363  -9.646  18.005  0.00  0.00    -0.263 NA
ATOM     15  C   UNL     1      -4.968 -10.530  16.868  0.00  0.00    -0.030 A 
ATOM     17  C   UNL     1      -5.892  -9.835  16.096  0.00  0.00    +0.024 A 
ATOM     18  C   UNL     1      -5.240 -10.784  18.208  0.00  0.00    +0.024 A 
ATOM     27  C   UNL     1      -7.063  -9.417  16.706  0.00  0.00    +0.111 A 
ATOM     28  C   UNL     1      -6.441 -10.325  18.723  0.00  0.00    +0.111 A 
ENDBRANCH  13  15
ENDBRANCH   3  13
ENDBRANCH  14   9
TORSDOF 4
ENDMDL
