MODEL 1
REMARK VINA RESULT:      -6.5      0.000      0.000
REMARK  Name = 51138058
REMARK  12 active torsions:
REMARK  status: ('A' for Active; 'I' for Inactive)
REMARK    1  A    between atoms: N_3  and  C_20
REMARK    2  A    between atoms: N_4  and  C_25
REMARK    3  A    between atoms: N_6  and  C_26
REMARK    4  A    between atoms: N_6  and  C_30
REMARK    5  A    between atoms: N_6  and  C_31
REMARK    6  A    between atoms: C_7  and  C_11
REMARK    7  A    between atoms: C_9  and  C_18
REMARK    8  A    between atoms: C_11  and  C_15
REMARK    9  A    between atoms: C_15  and  C_22
REMARK   10  A    between atoms: C_15  and  C_23
REMARK   11  A    between atoms: C_20  and  C_24
REMARK   12  A    between atoms: C_25  and  C_26
REMARK                            x       y       z     vdW  Elec       q    Type
REMARK                         _______ _______ _______ _____ _____    ______ ____
ROOT
ATOM      2  N   UNL     1      19.210   8.640  22.489  0.00  0.00    -0.299 NA
ATOM      3  N   UNL     1      14.816   8.672  20.001  0.00  0.00    -0.341 N 
ATOM      7  C   UNL     1      19.346   7.632  21.429  0.00  0.00    +0.085 C 
ATOM      8  C   UNL     1      18.071   7.316  20.639  0.00  0.00    -0.021 A 
ATOM      9  C   UNL     1      18.864   9.973  22.019  0.00  0.00    +0.145 C 
ATOM     10  C   UNL     1      16.900   8.127  20.613  0.00  0.00    +0.008 A 
ATOM     12  C   UNL     1      16.536   9.378  21.222  0.00  0.00    -0.020 A 
ATOM     13  C   UNL     1      17.362  10.232  22.124  0.00  0.00    +0.065 C 
ATOM     14  C   UNL     1      15.804   7.731  19.836  0.00  0.00    +0.050 A 
ATOM     16  C   UNL     1      15.246   9.668  20.826  0.00  0.00    +0.091 A 
ATOM     17  C   UNL     1      18.058   6.171  19.801  0.00  0.00    +0.006 A 
ATOM     19  C   UNL     1      15.794   6.576  19.054  0.00  0.00    +0.026 A 
ATOM     21  C   UNL     1      16.950   5.806  19.039  0.00  0.00    +0.002 A 
ATOM     33  H   UNL     1      18.565   8.324  23.211  0.00  0.00    +0.123 HD
ENDROOT
BRANCH   9  18
ATOM      1  O   UNL     1      19.999  12.005  22.548  0.00  0.00    -0.274 OA
ATOM      4  N   UNL     1      19.743  10.391  24.206  0.00  0.00    -0.313 N 
ATOM     18  C   UNL     1      19.589  10.913  22.933  0.00  0.00    +0.230 C 
ATOM     34  H   UNL     1      19.349   9.480  24.423  0.00  0.00    +0.149 HD
BRANCH   4  25
ATOM     25  C   UNL     1      20.428  11.090  25.269  0.00  0.00    +0.119 C 
BRANCH  25  26
ATOM     26  C   UNL     1      21.230  10.128  26.133  0.00  0.00    +0.102 C 
BRANCH  26   6
ATOM      6  N   UNL     1      20.731   8.768  25.976  0.00  0.00    -0.307 NA
ATOM     30  C   UNL     1      21.826   7.849  25.658  0.00  0.00    +0.104 C 
ATOM     31  C   UNL     1      20.037   8.328  27.188  0.00  0.00    +0.104 C 
ENDBRANCH  26   6
ENDBRANCH  25  26
ENDBRANCH   4  25
ENDBRANCH   9  18
BRANCH   7  11
ATOM     11  C   UNL     1      19.921   6.393  22.140  0.00  0.00    +0.026 C 
BRANCH  11  15
ATOM     15  C   UNL     1      21.259   5.935  21.552  0.00  0.00    -0.015 C 
ATOM     22  C   UNL     1      21.731   6.956  20.516  0.00  0.00    +0.007 C 
ATOM     23  C   UNL     1      21.178   4.548  20.912  0.00  0.00    +0.007 C 
ENDBRANCH  11  15
ENDBRANCH   7  11
BRANCH   3  20
ATOM     20  C   UNL     1      13.508   8.638  19.381  0.00  0.00    +0.177 C 
BRANCH  20  24
ATOM      5  N   UNL     1      11.607   9.085  20.835  0.00  0.00    -0.258 NA
ATOM     24  C   UNL     1      12.421   8.146  20.304  0.00  0.00    +0.061 A 
ATOM     27  C   UNL     1      12.309   6.788  20.557  0.00  0.00    +0.025 A 
ATOM     28  C   UNL     1      11.295   6.367  21.411  0.00  0.00    +0.003 A 
ATOM     29  C   UNL     1      10.633   8.638  21.661  0.00  0.00    +0.111 A 
ATOM     32  C   UNL     1      10.437   7.304  21.977  0.00  0.00    +0.020 A 
ENDBRANCH  20  24
ENDBRANCH   3  20
TORSDOF 8
ENDMDL
MODEL 2
REMARK VINA RESULT:      -6.5      2.409      4.500
REMARK  Name = 51138058
REMARK  12 active torsions:
REMARK  status: ('A' for Active; 'I' for Inactive)
REMARK    1  A    between atoms: N_3  and  C_20
REMARK    2  A    between atoms: N_4  and  C_25
REMARK    3  A    between atoms: N_6  and  C_26
REMARK    4  A    between atoms: N_6  and  C_30
REMARK    5  A    between atoms: N_6  and  C_31
REMARK    6  A    between atoms: C_7  and  C_11
REMARK    7  A    between atoms: C_9  and  C_18
REMARK    8  A    between atoms: C_11  and  C_15
REMARK    9  A    between atoms: C_15  and  C_22
REMARK   10  A    between atoms: C_15  and  C_23
REMARK   11  A    between atoms: C_20  and  C_24
REMARK   12  A    between atoms: C_25  and  C_26
REMARK                            x       y       z     vdW  Elec       q    Type
REMARK                         _______ _______ _______ _____ _____    ______ ____
ROOT
ATOM      2  N   UNL     1      19.898   8.226  21.617  0.00  0.00    -0.299 NA
ATOM      3  N   UNL     1      15.362   7.630  19.480  0.00  0.00    -0.341 N 
ATOM      7  C   UNL     1      19.065   9.316  22.142  0.00  0.00    +0.085 C 
ATOM      8  C   UNL     1      17.680   9.468  21.501  0.00  0.00    -0.021 A 
ATOM      9  C   UNL     1      19.365   6.890  21.843  0.00  0.00    +0.145 C 
ATOM     10  C   UNL     1      17.026   8.474  20.718  0.00  0.00    +0.008 A 
ATOM     12  C   UNL     1      17.367   7.139  20.307  0.00  0.00    -0.020 A 
ATOM     13  C   UNL     1      18.610   6.374  20.619  0.00  0.00    +0.065 C 
ATOM     14  C   UNL     1      15.751   8.734  20.200  0.00  0.00    +0.050 A 
ATOM     16  C   UNL     1      16.322   6.664  19.542  0.00  0.00    +0.091 A 
ATOM     17  C   UNL     1      16.941  10.651  21.757  0.00  0.00    +0.006 A 
ATOM     19  C   UNL     1      15.059   9.925  20.424  0.00  0.00    +0.026 A 
ATOM     21  C   UNL     1      15.673  10.878  21.226  0.00  0.00    +0.002 A 
ATOM     33  H   UNL     1      20.115   8.375  20.633  0.00  0.00    +0.123 HD
ENDROOT
BRANCH   9  18
ATOM      1  O   UNL     1      20.972   5.783  23.215  0.00  0.00    -0.274 OA
ATOM      4  N   UNL     1      21.127   5.573  20.901  0.00  0.00    -0.313 N 
ATOM     18  C   UNL     1      20.563   6.023  22.082  0.00  0.00    +0.230 C 
ATOM     34  H   UNL     1      20.696   5.819  20.015  0.00  0.00    +0.149 HD
BRANCH   4  25
ATOM     25  C   UNL     1      22.305   4.738  20.857  0.00  0.00    +0.119 C 
BRANCH  25  26
ATOM     26  C   UNL     1      22.003   3.331  21.352  0.00  0.00    +0.102 C 
BRANCH  26   6
ATOM      6  N   UNL     1      23.070   2.859  22.225  0.00  0.00    -0.307 NA
ATOM     30  C   UNL     1      24.158   3.838  22.285  0.00  0.00    +0.104 C 
ATOM     31  C   UNL     1      22.558   2.588  23.569  0.00  0.00    +0.104 C 
ENDBRANCH  26   6
ENDBRANCH  25  26
ENDBRANCH   4  25
ENDBRANCH   9  18
BRANCH   7  11
ATOM     11  C   UNL     1      19.930  10.579  21.982  0.00  0.00    +0.026 C 
BRANCH  11  15
ATOM     15  C   UNL     1      20.492  10.744  20.567  0.00  0.00    -0.015 C 
ATOM     22  C   UNL     1      22.007  10.943  20.646  0.00  0.00    +0.007 C 
ATOM     23  C   UNL     1      19.856  11.912  19.812  0.00  0.00    +0.007 C 
ENDBRANCH  11  15
ENDBRANCH   7  11
BRANCH   3  20
ATOM     20  C   UNL     1      14.109   7.488  18.768  0.00  0.00    +0.177 C 
BRANCH  20  24
ATOM      5  N   UNL     1      12.870   6.577  20.656  0.00  0.00    -0.258 NA
ATOM     24  C   UNL     1      12.902   7.503  19.673  0.00  0.00    +0.061 A 
ATOM     27  C   UNL     1      11.906   8.443  19.459  0.00  0.00    +0.025 A 
ATOM     28  C   UNL     1      10.807   8.431  20.311  0.00  0.00    +0.003 A 
ATOM     29  C   UNL     1      11.785   6.596  21.464  0.00  0.00    +0.111 A 
ATOM     32  C   UNL     1      10.738   7.494  21.335  0.00  0.00    +0.020 A 
ENDBRANCH  20  24
ENDBRANCH   3  20
TORSDOF 8
ENDMDL
MODEL 3
REMARK VINA RESULT:      -6.4     28.592     31.405
REMARK  Name = 51138058
REMARK  12 active torsions:
REMARK  status: ('A' for Active; 'I' for Inactive)
REMARK    1  A    between atoms: N_3  and  C_20
REMARK    2  A    between atoms: N_4  and  C_25
REMARK    3  A    between atoms: N_6  and  C_26
REMARK    4  A    between atoms: N_6  and  C_30
REMARK    5  A    between atoms: N_6  and  C_31
REMARK    6  A    between atoms: C_7  and  C_11
REMARK    7  A    between atoms: C_9  and  C_18
REMARK    8  A    between atoms: C_11  and  C_15
REMARK    9  A    between atoms: C_15  and  C_22
REMARK   10  A    between atoms: C_15  and  C_23
REMARK   11  A    between atoms: C_20  and  C_24
REMARK   12  A    between atoms: C_25  and  C_26
REMARK                            x       y       z     vdW  Elec       q    Type
REMARK                         _______ _______ _______ _____ _____    ______ ____
ROOT
ATOM      2  N   UNL     1      -6.713 -10.893  16.687  0.00  0.00    -0.299 NA
ATOM      3  N   UNL     1      -3.671 -10.369  12.691  0.00  0.00    -0.341 N 
ATOM      7  C   UNL     1      -5.354 -10.779  17.234  0.00  0.00    +0.085 C 
ATOM      8  C   UNL     1      -4.216 -10.793  16.207  0.00  0.00    -0.021 A 
ATOM      9  C   UNL     1      -7.122  -9.785  15.837  0.00  0.00    +0.145 C 
ATOM     10  C   UNL     1      -4.371 -10.570  14.808  0.00  0.00    +0.008 A 
ATOM     12  C   UNL     1      -5.494 -10.273  13.961  0.00  0.00    -0.020 A 
ATOM     13  C   UNL     1      -6.923 -10.109  14.358  0.00  0.00    +0.065 C 
ATOM     14  C   UNL     1      -3.244 -10.596  13.977  0.00  0.00    +0.050 A 
ATOM     16  C   UNL     1      -5.019 -10.168  12.670  0.00  0.00    +0.091 A 
ATOM     17  C   UNL     1      -2.887 -10.965  16.670  0.00  0.00    +0.006 A 
ATOM     19  C   UNL     1      -1.948 -10.814  14.447  0.00  0.00    +0.026 A 
ATOM     21  C   UNL     1      -1.786 -10.986  15.816  0.00  0.00    +0.002 A 
ATOM     33  H   UNL     1      -6.841 -11.787  16.215  0.00  0.00    +0.123 HD
ENDROOT
BRANCH   9  18
ATOM      1  O   UNL     1      -9.321 -10.549  16.360  0.00  0.00    -0.274 OA
ATOM      4  N   UNL     1      -8.971  -8.274  16.012  0.00  0.00    -0.313 N 
ATOM     18  C   UNL     1      -8.584  -9.600  16.107  0.00  0.00    +0.230 C 
ATOM     34  H   UNL     1      -8.273  -7.564  15.812  0.00  0.00    +0.149 HD
BRANCH   4  25
ATOM     25  C   UNL     1     -10.333  -7.833  16.206  0.00  0.00    +0.119 C 
BRANCH  25  26
ATOM     26  C   UNL     1     -10.550  -6.445  15.620  0.00  0.00    +0.102 C 
BRANCH  26   6
ATOM      6  N   UNL     1     -11.832  -6.382  14.928  0.00  0.00    -0.307 NA
ATOM     30  C   UNL     1     -11.940  -7.459  13.942  0.00  0.00    +0.104 C 
ATOM     31  C   UNL     1     -12.939  -6.457  15.883  0.00  0.00    +0.104 C 
ENDBRANCH  26   6
ENDBRANCH  25  26
ENDBRANCH   4  25
ENDBRANCH   9  18
BRANCH   7  11
ATOM     11  C   UNL     1      -5.245 -11.929  18.251  0.00  0.00    +0.026 C 
BRANCH  11  15
ATOM     15  C   UNL     1      -5.945 -11.621  19.579  0.00  0.00    -0.015 C 
ATOM     22  C   UNL     1      -7.270 -12.383  19.639  0.00  0.00    +0.007 C 
ATOM     23  C   UNL     1      -6.199 -10.126  19.778  0.00  0.00    +0.007 C 
ENDBRANCH  11  15
ENDBRANCH   7  11
BRANCH   3  20
ATOM     20  C   UNL     1      -2.823 -10.327  11.518  0.00  0.00    +0.177 C 
BRANCH  20  24
ATOM      5  N   UNL     1      -3.837 -11.703   9.784  0.00  0.00    -0.258 NA
ATOM     24  C   UNL     1      -3.587 -10.450  10.223  0.00  0.00    +0.061 A 
ATOM     27  C   UNL     1      -3.988  -9.301   9.560  0.00  0.00    +0.025 A 
ATOM     28  C   UNL     1      -4.692  -9.449   8.370  0.00  0.00    +0.003 A 
ATOM     29  C   UNL     1      -4.523 -11.807   8.623  0.00  0.00    +0.111 A 
ATOM     32  C   UNL     1      -4.968 -10.722   7.886  0.00  0.00    +0.020 A 
ENDBRANCH  20  24
ENDBRANCH   3  20
TORSDOF 8
ENDMDL
MODEL 4
REMARK VINA RESULT:      -6.4      4.647      8.282
REMARK  Name = 51138058
REMARK  12 active torsions:
REMARK  status: ('A' for Active; 'I' for Inactive)
REMARK    1  A    between atoms: N_3  and  C_20
REMARK    2  A    between atoms: N_4  and  C_25
REMARK    3  A    between atoms: N_6  and  C_26
REMARK    4  A    between atoms: N_6  and  C_30
REMARK    5  A    between atoms: N_6  and  C_31
REMARK    6  A    between atoms: C_7  and  C_11
REMARK    7  A    between atoms: C_9  and  C_18
REMARK    8  A    between atoms: C_11  and  C_15
REMARK    9  A    between atoms: C_15  and  C_22
REMARK   10  A    between atoms: C_15  and  C_23
REMARK   11  A    between atoms: C_20  and  C_24
REMARK   12  A    between atoms: C_25  and  C_26
REMARK                            x       y       z     vdW  Elec       q    Type
REMARK                         _______ _______ _______ _____ _____    ______ ____
ROOT
ATOM      2  N   UNL     1      14.194   9.409  18.789  0.00  0.00    -0.299 NA
ATOM      3  N   UNL     1      11.355  10.826  22.718  0.00  0.00    -0.341 N 
ATOM      7  C   UNL     1      13.255   8.302  19.022  0.00  0.00    +0.085 C 
ATOM      8  C   UNL     1      12.397   8.408  20.287  0.00  0.00    -0.021 A 
ATOM      9  C   UNL     1      13.565  10.702  18.564  0.00  0.00    +0.145 C 
ATOM     10  C   UNL     1      12.191   9.599  21.042  0.00  0.00    +0.008 A 
ATOM     12  C   UNL     1      12.638  10.958  20.906  0.00  0.00    -0.020 A 
ATOM     13  C   UNL     1      13.517  11.533  19.845  0.00  0.00    +0.065 C 
ATOM     14  C   UNL     1      11.369   9.563  22.175  0.00  0.00    +0.050 A 
ATOM     16  C   UNL     1      12.109  11.673  21.961  0.00  0.00    +0.091 A 
ATOM     17  C   UNL     1      11.680   7.262  20.718  0.00  0.00    +0.006 A 
ATOM     19  C   UNL     1      10.709   8.413  22.610  0.00  0.00    +0.026 A 
ATOM     21  C   UNL     1      10.869   7.261  21.851  0.00  0.00    +0.002 A 
ATOM     33  H   UNL     1      14.887   9.460  19.534  0.00  0.00    +0.123 HD
ENDROOT
BRANCH   9  18
ATOM      1  O   UNL     1      15.627  11.609  17.778  0.00  0.00    -0.274 OA
ATOM      4  N   UNL     1      13.739  11.761  16.425  0.00  0.00    -0.313 N 
ATOM     18  C   UNL     1      14.437  11.395  17.563  0.00  0.00    +0.230 C 
ATOM     34  H   UNL     1      12.756  11.519  16.342  0.00  0.00    +0.149 HD
BRANCH   4  25
ATOM     25  C   UNL     1      14.345  12.463  15.317  0.00  0.00    +0.119 C 
BRANCH  25  26
ATOM     26  C   UNL     1      13.513  12.318  14.051  0.00  0.00    +0.102 C 
BRANCH  26   6
ATOM      6  N   UNL     1      14.324  11.770  12.971  0.00  0.00    -0.307 NA
ATOM     30  C   UNL     1      14.117  12.528  11.735  0.00  0.00    +0.104 C 
ATOM     31  C   UNL     1      15.741  11.774  13.336  0.00  0.00    +0.104 C 
ENDBRANCH  26   6
ENDBRANCH  25  26
ENDBRANCH   4  25
ENDBRANCH   9  18
BRANCH   7  11
ATOM     11  C   UNL     1      14.133   7.038  19.008  0.00  0.00    +0.026 C 
BRANCH  11  15
ATOM     15  C   UNL     1      15.479   7.237  19.711  0.00  0.00    -0.015 C 
ATOM     22  C   UNL     1      16.505   6.267  19.120  0.00  0.00    +0.007 C 
ATOM     23  C   UNL     1      15.389   7.036  21.225  0.00  0.00    +0.007 C 
ENDBRANCH  11  15
ENDBRANCH   7  11
BRANCH   3  20
ATOM     20  C   UNL     1      10.634  11.222  23.909  0.00  0.00    +0.177 C 
BRANCH  20  24
ATOM      5  N   UNL     1      12.553  11.819  25.284  0.00  0.00    -0.258 NA
ATOM     24  C   UNL     1      11.379  12.226  24.754  0.00  0.00    +0.061 A 
ATOM     27  C   UNL     1      10.838  13.488  24.941  0.00  0.00    +0.025 A 
ATOM     28  C   UNL     1      11.550  14.392  25.723  0.00  0.00    +0.003 A 
ATOM     29  C   UNL     1      13.216  12.724  26.039  0.00  0.00    +0.111 A 
ATOM     32  C   UNL     1      12.763  14.010  26.286  0.00  0.00    +0.020 A 
ENDBRANCH  20  24
ENDBRANCH   3  20
TORSDOF 8
ENDMDL
MODEL 5
REMARK VINA RESULT:      -6.4     28.920     32.069
REMARK  Name = 51138058
REMARK  12 active torsions:
REMARK  status: ('A' for Active; 'I' for Inactive)
REMARK    1  A    between atoms: N_3  and  C_20
REMARK    2  A    between atoms: N_4  and  C_25
REMARK    3  A    between atoms: N_6  and  C_26
REMARK    4  A    between atoms: N_6  and  C_30
REMARK    5  A    between atoms: N_6  and  C_31
REMARK    6  A    between atoms: C_7  and  C_11
REMARK    7  A    between atoms: C_9  and  C_18
REMARK    8  A    between atoms: C_11  and  C_15
REMARK    9  A    between atoms: C_15  and  C_22
REMARK   10  A    between atoms: C_15  and  C_23
REMARK   11  A    between atoms: C_20  and  C_24
REMARK   12  A    between atoms: C_25  and  C_26
REMARK                            x       y       z     vdW  Elec       q    Type
REMARK                         _______ _______ _______ _____ _____    ______ ____
ROOT
ATOM      2  N   UNL     1      -8.992 -10.379  17.786  0.00  0.00    -0.299 NA
ATOM      3  N   UNL     1      -4.171 -10.535  16.291  0.00  0.00    -0.341 N 
ATOM      7  C   UNL     1      -8.212 -10.704  18.989  0.00  0.00    +0.085 C 
ATOM      8  C   UNL     1      -6.723 -10.991  18.764  0.00  0.00    -0.021 A 
ATOM      9  C   UNL     1      -8.592  -9.149  17.117  0.00  0.00    +0.145 C 
ATOM     10  C   UNL     1      -5.990 -10.648  17.592  0.00  0.00    +0.008 A 
ATOM     12  C   UNL     1      -6.324  -9.982  16.362  0.00  0.00    -0.020 A 
ATOM     13  C   UNL     1      -7.647  -9.427  15.950  0.00  0.00    +0.065 C 
ATOM     14  C   UNL     1      -4.625 -10.955  17.517  0.00  0.00    +0.050 A 
ATOM     16  C   UNL     1      -5.180  -9.944  15.591  0.00  0.00    +0.091 A 
ATOM     17  C   UNL     1      -5.979 -11.576  19.819  0.00  0.00    +0.006 A 
ATOM     19  C   UNL     1      -3.920 -11.574  18.550  0.00  0.00    +0.026 A 
ATOM     21  C   UNL     1      -4.620 -11.869  19.713  0.00  0.00    +0.002 A 
ATOM     33  H   UNL     1      -9.005 -11.164  17.138  0.00  0.00    +0.123 HD
ENDROOT
BRANCH   9  18
ATOM      1  O   UNL     1     -10.578  -9.163  15.794  0.00  0.00    -0.274 OA
ATOM      4  N   UNL     1     -10.094  -7.286  17.083  0.00  0.00    -0.313 N 
ATOM     18  C   UNL     1      -9.863  -8.558  16.589  0.00  0.00    +0.230 C 
ATOM     34  H   UNL     1      -9.443  -6.884  17.752  0.00  0.00    +0.149 HD
BRANCH   4  25
ATOM     25  C   UNL     1     -11.241  -6.489  16.711  0.00  0.00    +0.119 C 
BRANCH  25  26
ATOM     26  C   UNL     1     -11.023  -5.802  15.371  0.00  0.00    +0.102 C 
BRANCH  26   6
ATOM      6  N   UNL     1     -12.116  -6.111  14.459  0.00  0.00    -0.307 NA
ATOM     30  C   UNL     1     -13.345  -6.396  15.202  0.00  0.00    +0.104 C 
ATOM     31  C   UNL     1     -12.335  -5.009  13.521  0.00  0.00    +0.104 C 
ENDBRANCH  26   6
ENDBRANCH  25  26
ENDBRANCH   4  25
ENDBRANCH   9  18
BRANCH   7  11
ATOM     11  C   UNL     1      -8.953 -11.895  19.623  0.00  0.00    +0.026 C 
BRANCH  11  15
ATOM     15  C   UNL     1      -9.511 -12.873  18.585  0.00  0.00    -0.015 C 
ATOM     22  C   UNL     1     -10.891 -13.355  19.036  0.00  0.00    +0.007 C 
ATOM     23  C   UNL     1      -8.593 -14.076  18.357  0.00  0.00    +0.007 C 
ENDBRANCH  11  15
ENDBRANCH   7  11
BRANCH   3  20
ATOM     20  C   UNL     1      -2.815 -10.673  15.803  0.00  0.00    +0.177 C 
BRANCH  20  24
ATOM      5  N   UNL     1      -3.005 -12.687  14.448  0.00  0.00    -0.258 NA
ATOM     24  C   UNL     1      -2.727 -11.365  14.465  0.00  0.00    +0.061 A 
ATOM     27  C   UNL     1      -2.376 -10.631  13.344  0.00  0.00    +0.025 A 
ATOM     28  C   UNL     1      -2.306 -11.298  12.125  0.00  0.00    +0.003 A 
ATOM     29  C   UNL     1      -2.926 -13.302  13.246  0.00  0.00    +0.111 A 
ATOM     32  C   UNL     1      -2.585 -12.659  12.067  0.00  0.00    +0.020 A 
ENDBRANCH  20  24
ENDBRANCH   3  20
TORSDOF 8
ENDMDL
MODEL 6
REMARK VINA RESULT:      -6.2      2.750      7.735
REMARK  Name = 51138058
REMARK  12 active torsions:
REMARK  status: ('A' for Active; 'I' for Inactive)
REMARK    1  A    between atoms: N_3  and  C_20
REMARK    2  A    between atoms: N_4  and  C_25
REMARK    3  A    between atoms: N_6  and  C_26
REMARK    4  A    between atoms: N_6  and  C_30
REMARK    5  A    between atoms: N_6  and  C_31
REMARK    6  A    between atoms: C_7  and  C_11
REMARK    7  A    between atoms: C_9  and  C_18
REMARK    8  A    between atoms: C_11  and  C_15
REMARK    9  A    between atoms: C_15  and  C_22
REMARK   10  A    between atoms: C_15  and  C_23
REMARK   11  A    between atoms: C_20  and  C_24
REMARK   12  A    between atoms: C_25  and  C_26
REMARK                            x       y       z     vdW  Elec       q    Type
REMARK                         _______ _______ _______ _____ _____    ______ ____
ROOT
ATOM      2  N   UNL     1      14.173   9.927  20.520  0.00  0.00    -0.299 NA
ATOM      3  N   UNL     1      18.801   8.036  21.234  0.00  0.00    -0.341 N 
ATOM      7  C   UNL     1      14.135   8.563  19.974  0.00  0.00    +0.085 C 
ATOM      8  C   UNL     1      15.481   7.833  19.903  0.00  0.00    -0.021 A 
ATOM      9  C   UNL     1      14.584  10.012  21.914  0.00  0.00    +0.145 C 
ATOM     10  C   UNL     1      16.658   8.213  20.609  0.00  0.00    +0.008 A 
ATOM     12  C   UNL     1      16.973   9.268  21.534  0.00  0.00    -0.020 A 
ATOM     13  C   UNL     1      16.070  10.341  22.042  0.00  0.00    +0.065 C 
ATOM     14  C   UNL     1      17.824   7.449  20.468  0.00  0.00    +0.050 A 
ATOM     16  C   UNL     1      18.301   9.126  21.883  0.00  0.00    +0.091 A 
ATOM     17  C   UNL     1      15.565   6.639  19.141  0.00  0.00    +0.006 A 
ATOM     19  C   UNL     1      17.899   6.303  19.676  0.00  0.00    +0.026 A 
ATOM     21  C   UNL     1      16.741   5.901  19.022  0.00  0.00    +0.002 A 
ATOM     33  H   UNL     1      14.737  10.539  19.932  0.00  0.00    +0.123 HD
ENDROOT
BRANCH   9  18
ATOM      1  O   UNL     1      13.517  12.145  21.845  0.00  0.00    -0.274 OA
ATOM      4  N   UNL     1      13.414  10.895  23.806  0.00  0.00    -0.313 N 
ATOM     18  C   UNL     1      13.780  11.136  22.493  0.00  0.00    +0.230 C 
ATOM     34  H   UNL     1      13.672  10.016  24.244  0.00  0.00    +0.149 HD
BRANCH   4  25
ATOM     25  C   UNL     1      12.654  11.834  24.599  0.00  0.00    +0.119 C 
BRANCH  25  26
ATOM     26  C   UNL     1      11.193  11.417  24.695  0.00  0.00    +0.102 C 
BRANCH  26   6
ATOM      6  N   UNL     1      10.326  12.587  24.624  0.00  0.00    -0.307 NA
ATOM     30  C   UNL     1      10.583  13.489  25.749  0.00  0.00    +0.104 C 
ATOM     31  C   UNL     1      10.514  13.294  23.356  0.00  0.00    +0.104 C 
ENDBRANCH  26   6
ENDBRANCH  25  26
ENDBRANCH   4  25
ENDBRANCH   9  18
BRANCH   7  11
ATOM     11  C   UNL     1      13.474   8.716  18.592  0.00  0.00    +0.026 C 
BRANCH  11  15
ATOM     15  C   UNL     1      12.059   8.131  18.539  0.00  0.00    -0.015 C 
ATOM     22  C   UNL     1      11.384   8.563  17.236  0.00  0.00    +0.007 C 
ATOM     23  C   UNL     1      11.200   8.555  19.731  0.00  0.00    +0.007 C 
ENDBRANCH  11  15
ENDBRANCH   7  11
BRANCH   3  20
ATOM     20  C   UNL     1      20.165   7.569  21.362  0.00  0.00    +0.177 C 
BRANCH  20  24
ATOM      5  N   UNL     1      21.655   8.758  22.879  0.00  0.00    -0.258 NA
ATOM     24  C   UNL     1      20.741   7.772  22.742  0.00  0.00    +0.061 A 
ATOM     27  C   UNL     1      20.316   6.958  23.780  0.00  0.00    +0.025 A 
ATOM     28  C   UNL     1      20.864   7.172  25.040  0.00  0.00    +0.003 A 
ATOM     29  C   UNL     1      22.166   8.935  24.118  0.00  0.00    +0.111 A 
ATOM     32  C   UNL     1      21.807   8.177  25.221  0.00  0.00    +0.020 A 
ENDBRANCH  20  24
ENDBRANCH   3  20
TORSDOF 8
ENDMDL
MODEL 7
REMARK VINA RESULT:      -6.0      2.575      7.893
REMARK  Name = 51138058
REMARK  12 active torsions:
REMARK  status: ('A' for Active; 'I' for Inactive)
REMARK    1  A    between atoms: N_3  and  C_20
REMARK    2  A    between atoms: N_4  and  C_25
REMARK    3  A    between atoms: N_6  and  C_26
REMARK    4  A    between atoms: N_6  and  C_30
REMARK    5  A    between atoms: N_6  and  C_31
REMARK    6  A    between atoms: C_7  and  C_11
REMARK    7  A    between atoms: C_9  and  C_18
REMARK    8  A    between atoms: C_11  and  C_15
REMARK    9  A    between atoms: C_15  and  C_22
REMARK   10  A    between atoms: C_15  and  C_23
REMARK   11  A    between atoms: C_20  and  C_24
REMARK   12  A    between atoms: C_25  and  C_26
REMARK                            x       y       z     vdW  Elec       q    Type
REMARK                         _______ _______ _______ _____ _____    ______ ____
ROOT
ATOM      2  N   UNL     1      15.005   9.689  20.094  0.00  0.00    -0.299 NA
ATOM      3  N   UNL     1      19.376   7.679  21.631  0.00  0.00    -0.341 N 
ATOM      7  C   UNL     1      14.981   8.291  19.643  0.00  0.00    +0.085 C 
ATOM      8  C   UNL     1      16.284   7.505  19.828  0.00  0.00    -0.021 A 
ATOM      9  C   UNL     1      15.208   9.863  21.525  0.00  0.00    +0.145 C 
ATOM     10  C   UNL     1      17.361   7.891  20.677  0.00  0.00    +0.008 A 
ATOM     12  C   UNL     1      17.587   9.000  21.564  0.00  0.00    -0.020 A 
ATOM     13  C   UNL     1      16.673  10.143  21.854  0.00  0.00    +0.065 C 
ATOM     14  C   UNL     1      18.495   7.074  20.767  0.00  0.00    +0.050 A 
ATOM     16  C   UNL     1      18.839   8.834  22.120  0.00  0.00    +0.091 A 
ATOM     17  C   UNL     1      16.421   6.255  19.172  0.00  0.00    +0.006 A 
ATOM     19  C   UNL     1      18.630   5.869  20.077  0.00  0.00    +0.026 A 
ATOM     21  C   UNL     1      17.563   5.465  19.284  0.00  0.00    +0.002 A 
ATOM     33  H   UNL     1      15.679  10.233  19.557  0.00  0.00    +0.123 HD
ENDROOT
BRANCH   9  18
ATOM      1  O   UNL     1      14.820  11.943  22.628  0.00  0.00    -0.274 OA
ATOM      4  N   UNL     1      13.117  11.013  21.342  0.00  0.00    -0.313 N 
ATOM     18  C   UNL     1      14.384  11.058  21.897  0.00  0.00    +0.230 C 
ATOM     34  H   UNL     1      12.864  10.238  20.735  0.00  0.00    +0.149 HD
BRANCH   4  25
ATOM     25  C   UNL     1      12.120  12.035  21.565  0.00  0.00    +0.119 C 
BRANCH  25  26
ATOM     26  C   UNL     1      11.089  11.585  22.591  0.00  0.00    +0.102 C 
BRANCH  26   6
ATOM      6  N   UNL     1      11.254  12.326  23.835  0.00  0.00    -0.307 NA
ATOM     30  C   UNL     1      10.171  13.297  24.005  0.00  0.00    +0.104 C 
ATOM     31  C   UNL     1      11.301  11.414  24.979  0.00  0.00    +0.104 C 
ENDBRANCH  26   6
ENDBRANCH  25  26
ENDBRANCH   4  25
ENDBRANCH   9  18
BRANCH   7  11
ATOM     11  C   UNL     1      14.540   8.364  18.170  0.00  0.00    +0.026 C 
BRANCH  11  15
ATOM     15  C   UNL     1      13.177   7.712  17.921  0.00  0.00    -0.015 C 
ATOM     22  C   UNL     1      12.173   8.787  17.501  0.00  0.00    +0.007 C 
ATOM     23  C   UNL     1      12.650   6.962  19.145  0.00  0.00    +0.007 C 
ENDBRANCH  11  15
ENDBRANCH   7  11
BRANCH   3  20
ATOM     20  C   UNL     1      20.681   7.171  21.996  0.00  0.00    +0.177 C 
BRANCH  20  24
ATOM      5  N   UNL     1      22.546   8.673  22.436  0.00  0.00    -0.258 NA
ATOM     24  C   UNL     1      21.819   8.027  21.498  0.00  0.00    +0.061 A 
ATOM     27  C   UNL     1      22.059   8.110  20.136  0.00  0.00    +0.025 A 
ATOM     28  C   UNL     1      23.117   8.906  19.709  0.00  0.00    +0.003 A 
ATOM     29  C   UNL     1      23.565   9.439  21.983  0.00  0.00    +0.111 A 
ATOM     32  C   UNL     1      23.889   9.586  20.644  0.00  0.00    +0.020 A 
ENDBRANCH  20  24
ENDBRANCH   3  20
TORSDOF 8
ENDMDL
MODEL 8
REMARK VINA RESULT:      -5.9     15.854     18.478
REMARK  Name = 51138058
REMARK  12 active torsions:
REMARK  status: ('A' for Active; 'I' for Inactive)
REMARK    1  A    between atoms: N_3  and  C_20
REMARK    2  A    between atoms: N_4  and  C_25
REMARK    3  A    between atoms: N_6  and  C_26
REMARK    4  A    between atoms: N_6  and  C_30
REMARK    5  A    between atoms: N_6  and  C_31
REMARK    6  A    between atoms: C_7  and  C_11
REMARK    7  A    between atoms: C_9  and  C_18
REMARK    8  A    between atoms: C_11  and  C_15
REMARK    9  A    between atoms: C_15  and  C_22
REMARK   10  A    between atoms: C_15  and  C_23
REMARK   11  A    between atoms: C_20  and  C_24
REMARK   12  A    between atoms: C_25  and  C_26
REMARK                            x       y       z     vdW  Elec       q    Type
REMARK                         _______ _______ _______ _____ _____    ______ ____
ROOT
ATOM      2  N   UNL     1      15.345   6.497   3.037  0.00  0.00    -0.299 NA
ATOM      3  N   UNL     1      10.745   6.802   5.099  0.00  0.00    -0.341 N 
ATOM      7  C   UNL     1      14.409   6.079   1.985  0.00  0.00    +0.085 C 
ATOM      8  C   UNL     1      12.948   5.908   2.418  0.00  0.00    -0.021 A 
ATOM      9  C   UNL     1      15.086   7.818   3.592  0.00  0.00    +0.145 C 
ATOM     10  C   UNL     1      12.382   6.430   3.616  0.00  0.00    +0.008 A 
ATOM     12  C   UNL     1      12.895   7.215   4.706  0.00  0.00    -0.020 A 
ATOM     13  C   UNL     1      14.282   7.735   4.887  0.00  0.00    +0.065 C 
ATOM     14  C   UNL     1      11.025   6.214   3.889  0.00  0.00    +0.050 A 
ATOM     16  C   UNL     1      11.859   7.410   5.596  0.00  0.00    +0.091 A 
ATOM     17  C   UNL     1      12.053   5.248   1.538  0.00  0.00    +0.006 A 
ATOM     19  C   UNL     1      10.170   5.521   3.031  0.00  0.00    +0.026 A 
ATOM     21  C   UNL     1      10.707   5.050   1.839  0.00  0.00    +0.002 A 
ATOM     33  H   UNL     1      15.404   5.794   3.772  0.00  0.00    +0.123 HD
ENDROOT
BRANCH   9  18
ATOM      1  O   UNL     1      16.601   9.257   4.745  0.00  0.00    -0.274 OA
ATOM      4  N   UNL     1      17.425   7.849   3.084  0.00  0.00    -0.313 N 
ATOM     18  C   UNL     1      16.438   8.392   3.889  0.00  0.00    +0.230 C 
ATOM     34  H   UNL     1      17.182   7.124   2.416  0.00  0.00    +0.149 HD
BRANCH   4  25
ATOM     25  C   UNL     1      18.812   8.249   3.157  0.00  0.00    +0.119 C 
BRANCH  25  26
ATOM     26  C   UNL     1      19.546   7.494   4.255  0.00  0.00    +0.102 C 
BRANCH  26   6
ATOM      6  N   UNL     1      20.188   8.428   5.171  0.00  0.00    -0.307 NA
ATOM     30  C   UNL     1      20.176   9.784   4.618  0.00  0.00    +0.104 C 
ATOM     31  C   UNL     1      19.528   8.408   6.477  0.00  0.00    +0.104 C 
ENDBRANCH  26   6
ENDBRANCH  25  26
ENDBRANCH   4  25
ENDBRANCH   9  18
BRANCH   7  11
ATOM     11  C   UNL     1      15.012   4.781   1.420  0.00  0.00    +0.026 C 
BRANCH  11  15
ATOM     15  C   UNL     1      15.121   4.788  -0.108  0.00  0.00    -0.015 C 
ATOM     22  C   UNL     1      16.416   4.086  -0.524  0.00  0.00    +0.007 C 
ATOM     23  C   UNL     1      15.088   6.200  -0.695  0.00  0.00    +0.007 C 
ENDBRANCH  11  15
ENDBRANCH   7  11
BRANCH   3  20
ATOM     20  C   UNL     1       9.455   6.802   5.757  0.00  0.00    +0.177 C 
BRANCH  20  24
ATOM      5  N   UNL     1       9.819   4.704   6.938  0.00  0.00    -0.258 NA
ATOM     24  C   UNL     1       9.433   5.996   7.032  0.00  0.00    +0.061 A 
ATOM     27  C   UNL     1       9.030   6.602   8.210  0.00  0.00    +0.025 A 
ATOM     28  C   UNL     1       9.023   5.832   9.369  0.00  0.00    +0.003 A 
ATOM     29  C   UNL     1       9.798   3.987   8.085  0.00  0.00    +0.111 A 
ATOM     32  C   UNL     1       9.413   4.499   9.313  0.00  0.00    +0.020 A 
ENDBRANCH  20  24
ENDBRANCH   3  20
TORSDOF 8
ENDMDL
MODEL 9
REMARK VINA RESULT:      -5.9     34.348     36.381
REMARK  Name = 51138058
REMARK  12 active torsions:
REMARK  status: ('A' for Active; 'I' for Inactive)
REMARK    1  A    between atoms: N_3  and  C_20
REMARK    2  A    between atoms: N_4  and  C_25
REMARK    3  A    between atoms: N_6  and  C_26
REMARK    4  A    between atoms: N_6  and  C_30
REMARK    5  A    between atoms: N_6  and  C_31
REMARK    6  A    between atoms: C_7  and  C_11
REMARK    7  A    between atoms: C_9  and  C_18
REMARK    8  A    between atoms: C_11  and  C_15
REMARK    9  A    between atoms: C_15  and  C_22
REMARK   10  A    between atoms: C_15  and  C_23
REMARK   11  A    between atoms: C_20  and  C_24
REMARK   12  A    between atoms: C_25  and  C_26
REMARK                            x       y       z     vdW  Elec       q    Type
REMARK                         _______ _______ _______ _____ _____    ______ ____
ROOT
ATOM      2  N   UNL     1       1.437 -13.670  -1.845  0.00  0.00    -0.299 NA
ATOM      3  N   UNL     1      -2.081 -15.029   1.514  0.00  0.00    -0.341 N 
ATOM      7  C   UNL     1       2.130 -14.516  -0.863  0.00  0.00    +0.085 C 
ATOM      8  C   UNL     1       1.314 -14.912   0.373  0.00  0.00    -0.021 A 
ATOM      9  C   UNL     1       0.290 -14.297  -2.486  0.00  0.00    +0.145 C 
ATOM     10  C   UNL     1      -0.104 -14.823   0.483  0.00  0.00    +0.008 A 
ATOM     12  C   UNL     1      -1.151 -14.402  -0.407  0.00  0.00    -0.020 A 
ATOM     13  C   UNL     1      -1.019 -13.899  -1.806  0.00  0.00    +0.065 C 
ATOM     14  C   UNL     1      -0.730 -15.232   1.666  0.00  0.00    +0.050 A 
ATOM     16  C   UNL     1      -2.346 -14.536   0.271  0.00  0.00    +0.091 A 
ATOM     17  C   UNL     1       1.993 -15.484   1.478  0.00  0.00    +0.006 A 
ATOM     19  C   UNL     1      -0.038 -15.750   2.762  0.00  0.00    +0.026 A 
ATOM     21  C   UNL     1       1.339 -15.882   2.642  0.00  0.00    +0.002 A 
ATOM     33  H   UNL     1       1.186 -12.770  -1.438  0.00  0.00    +0.123 HD
ENDROOT
BRANCH   9  18
ATOM      1  O   UNL     1       0.256 -14.530  -4.860  0.00  0.00    -0.274 OA
ATOM      4  N   UNL     1       0.357 -12.395  -3.937  0.00  0.00    -0.313 N 
ATOM     18  C   UNL     1       0.291 -13.777  -3.891  0.00  0.00    +0.230 C 
ATOM     34  H   UNL     1       0.365 -11.866  -3.070  0.00  0.00    +0.149 HD
BRANCH   4  25
ATOM     25  C   UNL     1       0.394 -11.647  -5.173  0.00  0.00    +0.119 C 
BRANCH  25  26
ATOM     26  C   UNL     1       1.807 -11.180  -5.492  0.00  0.00    +0.102 C 
BRANCH  26   6
ATOM      6  N   UNL     1       2.309 -11.859  -6.680  0.00  0.00    -0.307 NA
ATOM     30  C   UNL     1       3.108 -13.028  -6.309  0.00  0.00    +0.104 C 
ATOM     31  C   UNL     1       1.204 -12.257  -7.554  0.00  0.00    +0.104 C 
ENDBRANCH  26   6
ENDBRANCH  25  26
ENDBRANCH   4  25
ENDBRANCH   9  18
BRANCH   7  11
ATOM     11  C   UNL     1       3.404 -13.730  -0.503  0.00  0.00    +0.026 C 
BRANCH  11  15
ATOM     15  C   UNL     1       4.690 -14.480  -0.862  0.00  0.00    -0.015 C 
ATOM     22  C   UNL     1       4.379 -15.530  -1.930  0.00  0.00    +0.007 C 
ATOM     23  C   UNL     1       5.339 -15.151   0.350  0.00  0.00    +0.007 C 
ENDBRANCH  11  15
ENDBRANCH   7  11
BRANCH   3  20
ATOM     20  C   UNL     1      -3.092 -15.310   2.510  0.00  0.00    +0.177 C 
BRANCH  20  24
ATOM      5  N   UNL     1      -4.646 -13.487   2.947  0.00  0.00    -0.258 NA
ATOM     24  C   UNL     1      -3.497 -14.097   3.311  0.00  0.00    +0.061 A 
ATOM     27  C   UNL     1      -2.692 -13.677   4.358  0.00  0.00    +0.025 A 
ATOM     28  C   UNL     1      -3.094 -12.557   5.078  0.00  0.00    +0.003 A 
ATOM     29  C   UNL     1      -5.004 -12.401   3.670  0.00  0.00    +0.111 A 
ATOM     32  C   UNL     1      -4.271 -11.901   4.733  0.00  0.00    +0.020 A 
ENDBRANCH  20  24
ENDBRANCH   3  20
TORSDOF 8
ENDMDL
MODEL 10
REMARK VINA RESULT:      -5.8     29.339     31.353
REMARK  Name = 51138058
REMARK  12 active torsions:
REMARK  status: ('A' for Active; 'I' for Inactive)
REMARK    1  A    between atoms: N_3  and  C_20
REMARK    2  A    between atoms: N_4  and  C_25
REMARK    3  A    between atoms: N_6  and  C_26
REMARK    4  A    between atoms: N_6  and  C_30
REMARK    5  A    between atoms: N_6  and  C_31
REMARK    6  A    between atoms: C_7  and  C_11
REMARK    7  A    between atoms: C_9  and  C_18
REMARK    8  A    between atoms: C_11  and  C_15
REMARK    9  A    between atoms: C_15  and  C_22
REMARK   10  A    between atoms: C_15  and  C_23
REMARK   11  A    between atoms: C_20  and  C_24
REMARK   12  A    between atoms: C_25  and  C_26
REMARK                            x       y       z     vdW  Elec       q    Type
REMARK                         _______ _______ _______ _____ _____    ______ ____
ROOT
ATOM      2  N   UNL     1      -4.966 -11.121  15.110  0.00  0.00    -0.299 NA
ATOM      3  N   UNL     1      -5.783  -9.019  10.591  0.00  0.00    -0.341 N 
ATOM      7  C   UNL     1      -3.635 -10.873  14.539  0.00  0.00    +0.085 C 
ATOM      8  C   UNL     1      -3.609 -10.402  13.081  0.00  0.00    -0.021 A 
ATOM      9  C   UNL     1      -5.815  -9.942  15.206  0.00  0.00    +0.145 C 
ATOM     10  C   UNL     1      -4.725  -9.875  12.369  0.00  0.00    +0.008 A 
ATOM     12  C   UNL     1      -6.096  -9.611  12.713  0.00  0.00    -0.020 A 
ATOM     13  C   UNL     1      -6.774  -9.843  14.022  0.00  0.00    +0.065 C 
ATOM     14  C   UNL     1      -4.564  -9.466  11.039  0.00  0.00    +0.050 A 
ATOM     16  C   UNL     1      -6.709  -9.096  11.589  0.00  0.00    +0.091 A 
ATOM     17  C   UNL     1      -2.371 -10.412  12.387  0.00  0.00    +0.006 A 
ATOM     19  C   UNL     1      -3.347  -9.527  10.359  0.00  0.00    +0.026 A 
ATOM     21  C   UNL     1      -2.245  -9.997  11.063  0.00  0.00    +0.002 A 
ATOM     33  H   UNL     1      -5.439 -11.877  14.616  0.00  0.00    +0.123 HD
ENDROOT
BRANCH   9  18
ATOM      1  O   UNL     1      -7.828 -10.003  16.486  0.00  0.00    -0.274 OA
ATOM      4  N   UNL     1      -5.802 -10.431  17.549  0.00  0.00    -0.313 N 
ATOM     18  C   UNL     1      -6.607 -10.130  16.464  0.00  0.00    +0.230 C 
ATOM     34  H   UNL     1      -4.800 -10.529  17.416  0.00  0.00    +0.149 HD
BRANCH   4  25
ATOM     25  C   UNL     1      -6.318 -10.638  18.883  0.00  0.00    +0.119 C 
BRANCH  25  26
ATOM     26  C   UNL     1      -6.851 -12.053  19.054  0.00  0.00    +0.102 C 
BRANCH  26   6
ATOM      6  N   UNL     1      -7.976 -12.063  19.981  0.00  0.00    -0.307 NA
ATOM     30  C   UNL     1      -8.989 -11.088  19.574  0.00  0.00    +0.104 C 
ATOM     31  C   UNL     1      -8.565 -13.401  20.065  0.00  0.00    +0.104 C 
ENDBRANCH  26   6
ENDBRANCH  25  26
ENDBRANCH   4  25
ENDBRANCH   9  18
BRANCH   7  11
ATOM     11  C   UNL     1      -2.870 -12.193  14.747  0.00  0.00    +0.026 C 
BRANCH  11  15
ATOM     15  C   UNL     1      -3.492 -13.369  13.988  0.00  0.00    -0.015 C 
ATOM     22  C   UNL     1      -3.924 -14.443  14.988  0.00  0.00    +0.007 C 
ATOM     23  C   UNL     1      -2.538 -13.977  12.958  0.00  0.00    +0.007 C 
ENDBRANCH  11  15
ENDBRANCH   7  11
BRANCH   3  20
ATOM     20  C   UNL     1      -6.059  -8.516   9.262  0.00  0.00    +0.177 C 
BRANCH  20  24
ATOM      5  N   UNL     1      -5.295  -9.828   7.358  0.00  0.00    -0.258 NA
ATOM     24  C   UNL     1      -6.290  -9.607   8.246  0.00  0.00    +0.061 A 
ATOM     27  C   UNL     1      -7.481 -10.314   8.269  0.00  0.00    +0.025 A 
ATOM     28  C   UNL     1      -7.662 -11.315   7.320  0.00  0.00    +0.003 A 
ATOM     29  C   UNL     1      -5.508 -10.807   6.450  0.00  0.00    +0.111 A 
ATOM     32  C   UNL     1      -6.661 -11.572   6.390  0.00  0.00    +0.020 A 
ENDBRANCH  20  24
ENDBRANCH   3  20
TORSDOF 8
ENDMDL
