REMARK  Name = 7051381
REMARK  7 active torsions:
REMARK  status: ('A' for Active; 'I' for Inactive)
REMARK    1  A    between atoms: S_1  and  N_10
REMARK    2  A    between atoms: S_1  and  C_24
REMARK    3  A    between atoms: O_6  and  C_30
REMARK    4  A    between atoms: O_6  and  C_36
REMARK    5  A    between atoms: N_9  and  C_23
REMARK    6  A    between atoms: N_10  and  C_21
REMARK    7  A    between atoms: C_24  and  C_27
REMARK                            x       y       z     vdW  Elec       q    Type
REMARK                         _______ _______ _______ _____ _____    ______ ____
ROOT
ATOM      2  O   UNL     1       1.692  -1.426   2.639  0.00  0.00    -0.266 OA
ATOM      3  O   UNL     1       0.960   1.841  -2.238  0.00  0.00    -0.252 OA
ATOM      7  N   UNL     1       2.868   1.939  -0.932  0.00  0.00    -0.284 N 
ATOM      8  N   UNL     1       3.015  -0.741   0.831  0.00  0.00    -0.310 N 
ATOM      9  N   UNL     1       0.910   3.082  -0.279  0.00  0.00    -0.269 N 
ATOM     11  C   UNL     1       4.489   1.347   0.891  0.00  0.00    +0.027 C 
ATOM     12  C   UNL     1       4.398  -0.018  -1.148  0.00  0.00    +0.054 C 
ATOM     13  C   UNL     1       5.345   0.611  -0.130  0.00  0.00    +0.018 C 
ATOM     14  C   UNL     1       3.639   2.442   0.216  0.00  0.00    +0.114 C 
ATOM     15  C   UNL     1       3.621   0.326   1.636  0.00  0.00    +0.130 C 
ATOM     16  C   UNL     1       3.619   1.095  -1.870  0.00  0.00    +0.119 C 
ATOM     17  C   UNL     1       3.429  -0.980  -0.486  0.00  0.00    +0.027 A 
ATOM     18  C   UNL     1       2.949  -2.035  -1.170  0.00  0.00    +0.024 A 
ATOM     19  C   UNL     1       2.080  -1.574   1.481  0.00  0.00    +0.274 A 
ATOM     20  C   UNL     1       1.521   2.255  -1.220  0.00  0.00    +0.306 C 
ATOM     21  C   UNL     1       1.569  -2.705   0.668  0.00  0.00    +0.112 A 
ATOM     22  C   UNL     1       1.988  -2.926  -0.579  0.00  0.00    +0.031 A 
ATOM     37  H   UNL     1       1.492   3.733   0.237  0.00  0.00    +0.156 HD
ENDROOT
BRANCH   9  23
ATOM     23  C   UNL     1      -0.462   3.115   0.072  0.00  0.00    +0.035 A 
ATOM     25  C   UNL     1      -1.362   2.250  -0.551  0.00  0.00    +0.027 A 
ATOM     26  C   UNL     1      -0.913   4.010   1.042  0.00  0.00    +0.027 A 
ATOM     28  C   UNL     1      -2.713   2.281  -0.205  0.00  0.00    +0.047 A 
ATOM     29  C   UNL     1      -2.264   4.041   1.388  0.00  0.00    +0.047 A 
ATOM     30  C   UNL     1      -3.164   3.177   0.765  0.00  0.00    +0.120 A 
BRANCH  30   6
ATOM      6  O   UNL     1      -4.481   3.207   1.104  0.00  0.00    -0.495 OA
ATOM     36  C   UNL     1      -5.347   2.296   0.428  0.00  0.00    +0.277 C 
ENDBRANCH  30   6
ENDBRANCH   9  23
BRANCH  21  10
ATOM     10  N   UNL     1       0.624  -3.595   1.207  0.00  0.00    -0.215 N 
ATOM     38  H   UNL     1       0.553  -3.525   2.231  0.00  0.00    +0.173 HD
BRANCH  10   1
ATOM      1  S   UNL     1      -0.883  -3.634   0.410  0.00  0.00    +0.047 S 
ATOM      4  O   UNL     1      -0.688  -3.954  -0.991  0.00  0.00    -0.155 OA
ATOM      5  O   UNL     1      -1.837  -4.365   1.221  0.00  0.00    -0.155 OA
BRANCH   1  24
ATOM     24  C   UNL     1      -1.312  -1.913   0.501  0.00  0.00    +0.223 C 
BRANCH  24  27
ATOM     27  C   UNL     1      -2.642  -1.738  -0.164  0.00  0.00    -0.025 A 
ATOM     31  C   UNL     1      -3.815  -1.850   0.582  0.00  0.00    +0.005 A 
ATOM     32  C   UNL     1      -2.708  -1.463  -1.530  0.00  0.00    +0.005 A 
ATOM     33  C   UNL     1      -5.054  -1.687  -0.037  0.00  0.00    +0.000 A 
ATOM     34  C   UNL     1      -3.948  -1.300  -2.149  0.00  0.00    +0.000 A 
ATOM     35  C   UNL     1      -5.121  -1.412  -1.403  0.00  0.00    +0.000 A 
ENDBRANCH  24  27
ENDBRANCH   1  24
ENDBRANCH  10   1
ENDBRANCH  21  10
TORSDOF 6
