MODEL 1
REMARK VINA RESULT:      -7.1      0.000      0.000
REMARK  Name = 45360494
REMARK  13 active torsions:
REMARK  status: ('A' for Active; 'I' for Inactive)
REMARK    1  A    between atoms: O_4  and  C_24
REMARK    2  A    between atoms: O_4  and  C_27
REMARK    3  A    between atoms: O_7  and  C_41
REMARK    4  A    between atoms: O_7  and  C_42
REMARK    5  A    between atoms: N_9  and  C_20
REMARK    6  A    between atoms: N_11  and  C_29
REMARK    7  A    between atoms: C_13  and  C_17
REMARK    8  A    between atoms: C_14  and  C_19
REMARK    9  A    between atoms: C_17  and  C_20
REMARK   10  A    between atoms: C_19  and  C_24
REMARK   11  A    between atoms: C_27  and  C_30
REMARK   12  A    between atoms: C_27  and  C_31
REMARK   13  A    between atoms: C_27  and  C_32
REMARK                            x       y       z     vdW  Elec       q    Type
REMARK                         _______ _______ _______ _____ _____    ______ ____
ROOT
ATOM      5  O   UNL     1      -1.399 -10.461  12.135  0.00  0.00    -0.252 OA
ATOM      8  N   UNL     1      -2.336 -11.783  13.786  0.00  0.00    -0.285 N 
ATOM     11  N   UNL     1      -3.107 -11.919  11.557  0.00  0.00    -0.269 N 
ATOM     13  C   UNL     1      -4.194 -12.119  15.403  0.00  0.00    +0.011 C 
ATOM     14  C   UNL     1      -3.292 -11.523  16.512  0.00  0.00    +0.006 C 
ATOM     15  C   UNL     1      -3.326 -12.747  14.294  0.00  0.00    +0.113 C 
ATOM     16  C   UNL     1      -2.239 -10.566  15.929  0.00  0.00    +0.023 C 
ATOM     18  C   UNL     1      -1.446 -11.237  14.812  0.00  0.00    +0.109 C 
ATOM     23  C   UNL     1      -2.227 -11.318  12.457  0.00  0.00    +0.306 C 
ATOM     43  H   UNL     1      -3.412 -12.868  11.747  0.00  0.00    +0.156 HD
ENDROOT
BRANCH  11  29
ATOM     29  C   UNL     1      -3.666 -11.343  10.389  0.00  0.00    +0.035 A 
ATOM     34  C   UNL     1      -4.142 -12.162   9.366  0.00  0.00    +0.027 A 
ATOM     35  C   UNL     1      -3.742  -9.956  10.264  0.00  0.00    +0.027 A 
ATOM     39  C   UNL     1      -4.691 -11.595   8.217  0.00  0.00    +0.048 A 
ATOM     40  C   UNL     1      -4.292  -9.388   9.115  0.00  0.00    +0.048 A 
ATOM     41  C   UNL     1      -4.767 -10.209   8.092  0.00  0.00    +0.130 A 
BRANCH  41   7
ATOM      7  O   UNL     1      -5.305  -9.655   6.969  0.00  0.00    -0.406 OA
BRANCH   7  42
ATOM      1  F   UNL     1      -7.214  -9.290   5.823  0.00  0.00    -0.133 F 
ATOM      2  F   UNL     1      -6.151 -11.167   5.477  0.00  0.00    -0.133 F 
ATOM      3  F   UNL     1      -7.227 -10.826   7.377  0.00  0.00    -0.133 F 
ATOM     42  C   UNL     1      -6.472 -10.252   6.416  0.00  0.00    +0.575 C 
ENDBRANCH   7  42
ENDBRANCH  41   7
ENDBRANCH  11  29
BRANCH  13  17
ATOM     17  C   UNL     1      -5.184 -11.114  14.799  0.00  0.00    +0.020 C 
BRANCH  17  20
ATOM     20  C   UNL     1      -6.204 -11.820  13.917  0.00  0.00    +0.085 C 
BRANCH  20   9
ATOM      9  N   UNL     1      -6.342 -11.105  12.649  0.00  0.00    -0.299 NA
ATOM     10  N   UNL     1      -7.687  -9.550  10.665  0.00  0.00    -0.313 N 
ATOM     12  N   UNL     1      -7.492  -7.775   9.111  0.00  0.00    -0.240 NA
ATOM     21  C   UNL     1      -6.626  -9.684  12.885  0.00  0.00    +0.103 C 
ATOM     22  C   UNL     1      -7.411 -11.699  11.837  0.00  0.00    +0.103 C 
ATOM     25  C   UNL     1      -6.717  -8.914  11.566  0.00  0.00    +0.122 C 
ATOM     26  C   UNL     1      -7.531 -10.996  10.483  0.00  0.00    +0.122 C 
ATOM     28  C   UNL     1      -8.234  -8.776   9.636  0.00  0.00    +0.121 A 
ATOM     33  C   UNL     1      -9.517  -9.091   9.219  0.00  0.00    +0.043 A 
ATOM     36  C   UNL     1     -10.075  -8.330   8.197  0.00  0.00    +0.005 A 
ATOM     37  C   UNL     1      -8.067  -7.058   8.120  0.00  0.00    +0.113 A 
ATOM     38  C   UNL     1      -9.342  -7.292   7.632  0.00  0.00    +0.020 A 
ENDBRANCH  20   9
ENDBRANCH  17  20
ENDBRANCH  13  17
BRANCH  14  19
ATOM     19  C   UNL     1      -4.081 -10.840  17.629  0.00  0.00    +0.124 C 
BRANCH  19  24
ATOM      6  O   UNL     1      -3.659 -11.960  19.746  0.00  0.00    -0.251 OA
ATOM     24  C   UNL     1      -4.371 -11.785  18.767  0.00  0.00    +0.308 C 
BRANCH  24   4
ATOM      4  O   UNL     1      -5.560 -12.410  18.521  0.00  0.00    -0.459 OA
BRANCH   4  27
ATOM     27  C   UNL     1      -6.730 -11.699  18.939  0.00  0.00    +0.105 C 
ATOM     30  C   UNL     1      -7.494 -11.246  17.695  0.00  0.00    +0.055 C 
ATOM     31  C   UNL     1      -6.269 -10.493  19.754  0.00  0.00    +0.055 C 
ATOM     32  C   UNL     1      -7.586 -12.632  19.794  0.00  0.00    +0.055 C 
ENDBRANCH   4  27
ENDBRANCH  24   4
ENDBRANCH  19  24
ENDBRANCH  14  19
TORSDOF 10
ENDMDL
MODEL 2
REMARK VINA RESULT:      -6.9     23.327     26.728
REMARK  Name = 45360494
REMARK  13 active torsions:
REMARK  status: ('A' for Active; 'I' for Inactive)
REMARK    1  A    between atoms: O_4  and  C_24
REMARK    2  A    between atoms: O_4  and  C_27
REMARK    3  A    between atoms: O_7  and  C_41
REMARK    4  A    between atoms: O_7  and  C_42
REMARK    5  A    between atoms: N_9  and  C_20
REMARK    6  A    between atoms: N_11  and  C_29
REMARK    7  A    between atoms: C_13  and  C_17
REMARK    8  A    between atoms: C_14  and  C_19
REMARK    9  A    between atoms: C_17  and  C_20
REMARK   10  A    between atoms: C_19  and  C_24
REMARK   11  A    between atoms: C_27  and  C_30
REMARK   12  A    between atoms: C_27  and  C_31
REMARK   13  A    between atoms: C_27  and  C_32
REMARK                            x       y       z     vdW  Elec       q    Type
REMARK                         _______ _______ _______ _____ _____    ______ ____
ROOT
ATOM      5  O   UNL     1      11.288   3.723   3.162  0.00  0.00    -0.252 OA
ATOM      8  N   UNL     1      11.665   5.379   1.591  0.00  0.00    -0.285 N 
ATOM     11  N   UNL     1      11.612   5.898   3.895  0.00  0.00    -0.269 N 
ATOM     13  C   UNL     1      10.723   7.232   0.228  0.00  0.00    +0.011 C 
ATOM     14  C   UNL     1      10.600   6.249  -0.963  0.00  0.00    +0.006 C 
ATOM     15  C   UNL     1      11.851   6.779   1.176  0.00  0.00    +0.113 C 
ATOM     16  C   UNL     1      10.463   4.796  -0.482  0.00  0.00    +0.023 C 
ATOM     18  C   UNL     1      11.587   4.427   0.481  0.00  0.00    +0.109 C 
ATOM     23  C   UNL     1      11.498   4.913   2.914  0.00  0.00    +0.306 C 
ATOM     43  H   UNL     1      12.203   6.700   3.702  0.00  0.00    +0.156 HD
ENDROOT
BRANCH  11  29
ATOM     29  C   UNL     1      10.965   5.933   5.155  0.00  0.00    +0.035 A 
ATOM     34  C   UNL     1       9.594   5.688   5.242  0.00  0.00    +0.027 A 
ATOM     35  C   UNL     1      11.698   6.211   6.308  0.00  0.00    +0.027 A 
ATOM     39  C   UNL     1       8.957   5.723   6.482  0.00  0.00    +0.048 A 
ATOM     40  C   UNL     1      11.060   6.246   7.549  0.00  0.00    +0.048 A 
ATOM     41  C   UNL     1       9.690   6.000   7.634  0.00  0.00    +0.130 A 
BRANCH  41   7
ATOM      7  O   UNL     1       9.067   6.034   8.845  0.00  0.00    -0.406 OA
BRANCH   7  42
ATOM      1  F   UNL     1       8.115   4.810  10.485  0.00  0.00    -0.133 F 
ATOM      2  F   UNL     1       9.349   3.771   9.011  0.00  0.00    -0.133 F 
ATOM      3  F   UNL     1      10.283   5.076  10.529  0.00  0.00    -0.133 F 
ATOM     42  C   UNL     1       9.220   4.916   9.713  0.00  0.00    +0.575 C 
ENDBRANCH   7  42
ENDBRANCH  41   7
ENDBRANCH  11  29
BRANCH  13  17
ATOM     17  C   UNL     1       9.418   7.427   1.011  0.00  0.00    +0.020 C 
BRANCH  17  20
ATOM     20  C   UNL     1       8.850   8.821   0.782  0.00  0.00    +0.085 C 
BRANCH  20   9
ATOM      9  N   UNL     1       8.561   9.456   2.067  0.00  0.00    -0.299 NA
ATOM     10  N   UNL     1       8.999  10.095   4.817  0.00  0.00    -0.313 N 
ATOM     12  N   UNL     1       8.938  11.796   6.461  0.00  0.00    -0.240 NA
ATOM     21  C   UNL     1       9.656  10.354   2.456  0.00  0.00    +0.103 C 
ATOM     22  C   UNL     1       8.354   8.442   3.108  0.00  0.00    +0.103 C 
ATOM     25  C   UNL     1       9.340  11.068   3.772  0.00  0.00    +0.122 C 
ATOM     26  C   UNL     1       7.996   9.092   4.447  0.00  0.00    +0.122 C 
ATOM     28  C   UNL     1       9.122  10.493   6.152  0.00  0.00    +0.121 A 
ATOM     33  C   UNL     1       9.431   9.512   7.081  0.00  0.00    +0.043 A 
ATOM     36  C   UNL     1       9.556   9.894   8.413  0.00  0.00    +0.005 A 
ATOM     37  C   UNL     1       9.067  12.129   7.765  0.00  0.00    +0.113 A 
ATOM     38  C   UNL     1       9.373  11.225   8.770  0.00  0.00    +0.020 A 
ENDBRANCH  20   9
ENDBRANCH  17  20
ENDBRANCH  13  17
BRANCH  14  19
ATOM     19  C   UNL     1       9.469   6.609  -1.927  0.00  0.00    +0.124 C 
BRANCH  19  24
ATOM      6  O   UNL     1       9.521   7.381  -4.232  0.00  0.00    -0.251 OA
ATOM     24  C   UNL     1       9.941   6.635  -3.358  0.00  0.00    +0.308 C 
BRANCH  24   4
ATOM      4  O   UNL     1      10.913   5.688  -3.513  0.00  0.00    -0.459 OA
BRANCH   4  27
ATOM     27  C   UNL     1      10.530   4.527  -4.257  0.00  0.00    +0.105 C 
ATOM     30  C   UNL     1       9.056   4.235  -3.978  0.00  0.00    +0.055 C 
ATOM     31  C   UNL     1      11.406   3.369  -3.785  0.00  0.00    +0.055 C 
ATOM     32  C   UNL     1      10.759   4.805  -5.742  0.00  0.00    +0.055 C 
ENDBRANCH   4  27
ENDBRANCH  24   4
ENDBRANCH  19  24
ENDBRANCH  14  19
TORSDOF 10
ENDMDL
MODEL 3
REMARK VINA RESULT:      -6.5      6.089      8.327
REMARK  Name = 45360494
REMARK  13 active torsions:
REMARK  status: ('A' for Active; 'I' for Inactive)
REMARK    1  A    between atoms: O_4  and  C_24
REMARK    2  A    between atoms: O_4  and  C_27
REMARK    3  A    between atoms: O_7  and  C_41
REMARK    4  A    between atoms: O_7  and  C_42
REMARK    5  A    between atoms: N_9  and  C_20
REMARK    6  A    between atoms: N_11  and  C_29
REMARK    7  A    between atoms: C_13  and  C_17
REMARK    8  A    between atoms: C_14  and  C_19
REMARK    9  A    between atoms: C_17  and  C_20
REMARK   10  A    between atoms: C_19  and  C_24
REMARK   11  A    between atoms: C_27  and  C_30
REMARK   12  A    between atoms: C_27  and  C_31
REMARK   13  A    between atoms: C_27  and  C_32
REMARK                            x       y       z     vdW  Elec       q    Type
REMARK                         _______ _______ _______ _____ _____    ______ ____
ROOT
ATOM      5  O   UNL     1      -7.337 -13.171  18.898  0.00  0.00    -0.252 OA
ATOM      8  N   UNL     1      -9.506 -12.585  18.348  0.00  0.00    -0.285 N 
ATOM     11  N   UNL     1      -7.767 -12.380  16.762  0.00  0.00    -0.269 N 
ATOM     13  C   UNL     1     -11.188 -10.773  18.080  0.00  0.00    +0.011 C 
ATOM     14  C   UNL     1     -11.729 -11.113  19.492  0.00  0.00    +0.006 C 
ATOM     15  C   UNL     1     -10.528 -12.017  17.452  0.00  0.00    +0.113 C 
ATOM     16  C   UNL     1     -10.643 -11.753  20.372  0.00  0.00    +0.023 C 
ATOM     18  C   UNL     1     -10.005 -12.951  19.675  0.00  0.00    +0.109 C 
ATOM     23  C   UNL     1      -8.132 -12.737  18.060  0.00  0.00    +0.306 C 
ATOM     43  H   UNL     1      -8.460 -12.473  16.027  0.00  0.00    +0.156 HD
ENDROOT
BRANCH  11  29
ATOM     29  C   UNL     1      -6.520 -11.861  16.334  0.00  0.00    +0.035 A 
ATOM     34  C   UNL     1      -6.139 -10.570  16.698  0.00  0.00    +0.027 A 
ATOM     35  C   UNL     1      -5.672 -12.643  15.549  0.00  0.00    +0.027 A 
ATOM     39  C   UNL     1      -4.912 -10.059  16.276  0.00  0.00    +0.048 A 
ATOM     40  C   UNL     1      -4.444 -12.132  15.127  0.00  0.00    +0.048 A 
ATOM     41  C   UNL     1      -4.065 -10.840  15.492  0.00  0.00    +0.130 A 
BRANCH  41   7
ATOM      7  O   UNL     1      -2.866 -10.342  15.080  0.00  0.00    -0.406 OA
BRANCH   7  42
ATOM      1  F   UNL     1      -1.124 -11.769  15.221  0.00  0.00    -0.133 F 
ATOM      2  F   UNL     1      -0.801  -9.692  15.818  0.00  0.00    -0.133 F 
ATOM      3  F   UNL     1      -2.010 -11.043  17.081  0.00  0.00    -0.133 F 
ATOM     42  C   UNL     1      -1.700 -10.699  15.814  0.00  0.00    +0.575 C 
ENDBRANCH   7  42
ENDBRANCH  41   7
ENDBRANCH  11  29
BRANCH  13  17
ATOM     17  C   UNL     1     -10.216  -9.586  18.056  0.00  0.00    +0.020 C 
BRANCH  17  20
ATOM     20  C   UNL     1      -9.955  -9.126  16.628  0.00  0.00    +0.085 C 
BRANCH  20   9
ATOM      9  N   UNL     1     -10.951  -8.130  16.238  0.00  0.00    -0.299 NA
ATOM     10  N   UNL     1     -12.228  -6.264  14.490  0.00  0.00    -0.313 N 
ATOM     12  N   UNL     1     -14.296  -5.412  13.717  0.00  0.00    -0.240 NA
ATOM     21  C   UNL     1     -11.730  -8.603  15.087  0.00  0.00    +0.103 C 
ATOM     22  C   UNL     1     -10.303  -6.854  15.911  0.00  0.00    +0.103 C 
ATOM     25  C   UNL     1     -12.815  -7.593  14.704  0.00  0.00    +0.122 C 
ATOM     26  C   UNL     1     -11.339  -5.785  15.553  0.00  0.00    +0.122 C 
ATOM     28  C   UNL     1     -12.946  -5.344  13.720  0.00  0.00    +0.121 A 
ATOM     33  C   UNL     1     -12.214  -4.413  12.999  0.00  0.00    +0.043 A 
ATOM     36  C   UNL     1     -12.915  -3.491  12.228  0.00  0.00    +0.005 A 
ATOM     37  C   UNL     1     -14.942  -4.500  12.956  0.00  0.00    +0.113 A 
ATOM     38  C   UNL     1     -14.305  -3.530  12.200  0.00  0.00    +0.020 A 
ENDBRANCH  20   9
ENDBRANCH  17  20
ENDBRANCH  13  17
BRANCH  14  19
ATOM     19  C   UNL     1     -12.360  -9.914  20.199  0.00  0.00    +0.124 C 
BRANCH  19  24
ATOM      6  O   UNL     1     -14.624  -9.221  20.755  0.00  0.00    -0.251 OA
ATOM     24  C   UNL     1     -13.847 -10.086  20.372  0.00  0.00    +0.308 C 
BRANCH  24   4
ATOM      4  O   UNL     1     -14.179 -11.366  20.031  0.00  0.00    -0.459 OA
BRANCH   4  27
ATOM     27  C   UNL     1     -14.730 -12.162  21.085  0.00  0.00    +0.105 C 
ATOM     30  C   UNL     1     -16.206 -11.801  21.246  0.00  0.00    +0.055 C 
ATOM     31  C   UNL     1     -13.955 -11.839  22.360  0.00  0.00    +0.055 C 
ATOM     32  C   UNL     1     -14.568 -13.636  20.715  0.00  0.00    +0.055 C 
ENDBRANCH   4  27
ENDBRANCH  24   4
ENDBRANCH  19  24
ENDBRANCH  14  19
TORSDOF 10
ENDMDL
MODEL 4
REMARK VINA RESULT:      -6.5      6.206      8.519
REMARK  Name = 45360494
REMARK  13 active torsions:
REMARK  status: ('A' for Active; 'I' for Inactive)
REMARK    1  A    between atoms: O_4  and  C_24
REMARK    2  A    between atoms: O_4  and  C_27
REMARK    3  A    between atoms: O_7  and  C_41
REMARK    4  A    between atoms: O_7  and  C_42
REMARK    5  A    between atoms: N_9  and  C_20
REMARK    6  A    between atoms: N_11  and  C_29
REMARK    7  A    between atoms: C_13  and  C_17
REMARK    8  A    between atoms: C_14  and  C_19
REMARK    9  A    between atoms: C_17  and  C_20
REMARK   10  A    between atoms: C_19  and  C_24
REMARK   11  A    between atoms: C_27  and  C_30
REMARK   12  A    between atoms: C_27  and  C_31
REMARK   13  A    between atoms: C_27  and  C_32
REMARK                            x       y       z     vdW  Elec       q    Type
REMARK                         _______ _______ _______ _____ _____    ______ ____
ROOT
ATOM      5  O   UNL     1      -8.182 -13.343  18.899  0.00  0.00    -0.252 OA
ATOM      8  N   UNL     1     -10.095 -12.370  18.037  0.00  0.00    -0.285 N 
ATOM     11  N   UNL     1      -8.040 -12.203  16.885  0.00  0.00    -0.269 N 
ATOM     13  C   UNL     1     -11.458 -10.311  17.752  0.00  0.00    +0.011 C 
ATOM     14  C   UNL     1     -12.330 -10.763  18.950  0.00  0.00    +0.006 C 
ATOM     15  C   UNL     1     -10.824 -11.537  17.066  0.00  0.00    +0.113 C 
ATOM     16  C   UNL     1     -11.545 -11.675  19.907  0.00  0.00    +0.023 C 
ATOM     18  C   UNL     1     -10.912 -12.842  19.157  0.00  0.00    +0.109 C 
ATOM     23  C   UNL     1      -8.718 -12.682  18.006  0.00  0.00    +0.306 C 
ATOM     43  H   UNL     1      -8.561 -12.087  16.023  0.00  0.00    +0.156 HD
ENDROOT
BRANCH  11  29
ATOM     29  C   UNL     1      -6.678 -11.819  16.807  0.00  0.00    +0.035 A 
ATOM     34  C   UNL     1      -5.705 -12.763  16.477  0.00  0.00    +0.027 A 
ATOM     35  C   UNL     1      -6.310 -10.497  17.057  0.00  0.00    +0.027 A 
ATOM     39  C   UNL     1      -4.365 -12.385  16.400  0.00  0.00    +0.048 A 
ATOM     40  C   UNL     1      -4.969 -10.120  16.980  0.00  0.00    +0.048 A 
ATOM     41  C   UNL     1      -3.998 -11.065  16.651  0.00  0.00    +0.130 A 
BRANCH  41   7
ATOM      7  O   UNL     1      -2.688 -10.696  16.575  0.00  0.00    -0.406 OA
BRANCH   7  42
ATOM      1  F   UNL     1      -1.159  -9.640  15.295  0.00  0.00    -0.133 F 
ATOM      2  F   UNL     1      -1.448 -11.784  14.991  0.00  0.00    -0.133 F 
ATOM      3  F   UNL     1      -2.991 -10.345  14.336  0.00  0.00    -0.133 F 
ATOM     42  C   UNL     1      -2.080 -10.629  15.290  0.00  0.00    +0.575 C 
ENDBRANCH   7  42
ENDBRANCH  41   7
ENDBRANCH  11  29
BRANCH  13  17
ATOM     17  C   UNL     1     -10.375  -9.289  18.122  0.00  0.00    +0.020 C 
BRANCH  17  20
ATOM     20  C   UNL     1      -9.807  -8.624  16.877  0.00  0.00    +0.085 C 
BRANCH  20   9
ATOM      9  N   UNL     1     -10.885  -7.997  16.112  0.00  0.00    -0.299 NA
ATOM     10  N   UNL     1     -12.018  -6.320  14.097  0.00  0.00    -0.313 N 
ATOM     12  N   UNL     1     -13.712  -6.107  12.458  0.00  0.00    -0.240 NA
ATOM     21  C   UNL     1     -10.802  -8.378  14.697  0.00  0.00    +0.103 C 
ATOM     22  C   UNL     1     -10.825  -6.537  16.241  0.00  0.00    +0.103 C 
ATOM     25  C   UNL     1     -11.958  -7.773  13.897  0.00  0.00    +0.122 C 
ATOM     26  C   UNL     1     -11.980  -5.869  15.491  0.00  0.00    +0.122 C 
ATOM     28  C   UNL     1     -12.684  -5.551  13.137  0.00  0.00    +0.121 A 
ATOM     33  C   UNL     1     -12.238  -4.253  12.943  0.00  0.00    +0.043 A 
ATOM     36  C   UNL     1     -12.891  -3.477  11.991  0.00  0.00    +0.005 A 
ATOM     37  C   UNL     1     -14.322  -5.322  11.542  0.00  0.00    +0.113 A 
ATOM     38  C   UNL     1     -13.953  -4.014  11.273  0.00  0.00    +0.020 A 
ENDBRANCH  20   9
ENDBRANCH  17  20
ENDBRANCH  13  17
BRANCH  14  19
ATOM     19  C   UNL     1     -12.960  -9.596  19.712  0.00  0.00    +0.124 C 
BRANCH  19  24
ATOM      6  O   UNL     1     -14.893 -11.014  20.114  0.00  0.00    -0.251 OA
ATOM     24  C   UNL     1     -14.279  -9.979  20.332  0.00  0.00    +0.308 C 
BRANCH  24   4
ATOM      4  O   UNL     1     -14.670  -8.978  21.175  0.00  0.00    -0.459 OA
BRANCH   4  27
ATOM     27  C   UNL     1     -15.994  -8.477  20.965  0.00  0.00    +0.105 C 
ATOM     30  C   UNL     1     -16.242  -8.372  19.461  0.00  0.00    +0.055 C 
ATOM     31  C   UNL     1     -16.074  -7.100  21.620  0.00  0.00    +0.055 C 
ATOM     32  C   UNL     1     -16.986  -9.440  21.615  0.00  0.00    +0.055 C 
ENDBRANCH   4  27
ENDBRANCH  24   4
ENDBRANCH  19  24
ENDBRANCH  14  19
TORSDOF 10
ENDMDL
MODEL 5
REMARK VINA RESULT:      -6.4      4.209      9.368
REMARK  Name = 45360494
REMARK  13 active torsions:
REMARK  status: ('A' for Active; 'I' for Inactive)
REMARK    1  A    between atoms: O_4  and  C_24
REMARK    2  A    between atoms: O_4  and  C_27
REMARK    3  A    between atoms: O_7  and  C_41
REMARK    4  A    between atoms: O_7  and  C_42
REMARK    5  A    between atoms: N_9  and  C_20
REMARK    6  A    between atoms: N_11  and  C_29
REMARK    7  A    between atoms: C_13  and  C_17
REMARK    8  A    between atoms: C_14  and  C_19
REMARK    9  A    between atoms: C_17  and  C_20
REMARK   10  A    between atoms: C_19  and  C_24
REMARK   11  A    between atoms: C_27  and  C_30
REMARK   12  A    between atoms: C_27  and  C_31
REMARK   13  A    between atoms: C_27  and  C_32
REMARK                            x       y       z     vdW  Elec       q    Type
REMARK                         _______ _______ _______ _____ _____    ______ ____
ROOT
ATOM      5  O   UNL     1      -3.401 -11.249  12.910  0.00  0.00    -0.252 OA
ATOM      8  N   UNL     1      -4.730  -9.844  11.642  0.00  0.00    -0.285 N 
ATOM     11  N   UNL     1      -4.928  -9.883  13.995  0.00  0.00    -0.269 N 
ATOM     13  C   UNL     1      -6.933  -9.449  10.558  0.00  0.00    +0.011 C 
ATOM     14  C   UNL     1      -6.326  -9.942   9.221  0.00  0.00    +0.006 C 
ATOM     15  C   UNL     1      -5.825  -8.875  11.464  0.00  0.00    +0.113 C 
ATOM     16  C   UNL     1      -5.152 -10.907   9.456  0.00  0.00    +0.023 C 
ATOM     18  C   UNL     1      -4.115 -10.292  10.391  0.00  0.00    +0.109 C 
ATOM     23  C   UNL     1      -4.291 -10.396  12.865  0.00  0.00    +0.306 C 
ATOM     43  H   UNL     1      -5.281  -8.933  13.956  0.00  0.00    +0.156 HD
ENDROOT
BRANCH  11  29
ATOM     29  C   UNL     1      -5.176 -10.555  15.218  0.00  0.00    +0.035 A 
ATOM     34  C   UNL     1      -4.542 -10.132  16.386  0.00  0.00    +0.027 A 
ATOM     35  C   UNL     1      -6.054 -11.637  15.254  0.00  0.00    +0.027 A 
ATOM     39  C   UNL     1      -4.785 -10.793  17.590  0.00  0.00    +0.048 A 
ATOM     40  C   UNL     1      -6.298 -12.298  16.458  0.00  0.00    +0.048 A 
ATOM     41  C   UNL     1      -5.663 -11.875  17.626  0.00  0.00    +0.130 A 
BRANCH  41   7
ATOM      7  O   UNL     1      -5.901 -12.520  18.802  0.00  0.00    -0.406 OA
BRANCH   7  42
ATOM      1  F   UNL     1      -7.433 -12.663  20.452  0.00  0.00    -0.133 F 
ATOM      2  F   UNL     1      -5.719 -11.343  20.754  0.00  0.00    -0.133 F 
ATOM      3  F   UNL     1      -7.312 -10.797  19.323  0.00  0.00    -0.133 F 
ATOM     42  C   UNL     1      -6.584 -11.814  19.832  0.00  0.00    +0.575 C 
ENDBRANCH   7  42
ENDBRANCH  41   7
ENDBRANCH  11  29
BRANCH  13  17
ATOM     17  C   UNL     1      -7.732 -10.521  11.311  0.00  0.00    +0.020 C 
BRANCH  17  20
ATOM     20  C   UNL     1      -8.889  -9.898  12.079  0.00  0.00    +0.085 C 
BRANCH  20   9
ATOM      9  N   UNL     1      -8.837 -10.314  13.480  0.00  0.00    -0.299 NA
ATOM     10  N   UNL     1      -9.798 -10.587  16.157  0.00  0.00    -0.313 N 
ATOM     12  N   UNL     1      -9.981 -12.023  18.029  0.00  0.00    -0.240 NA
ATOM     21  C   UNL     1      -9.935 -11.239  13.784  0.00  0.00    +0.103 C 
ATOM     22  C   UNL     1      -8.908  -9.147  14.367  0.00  0.00    +0.103 C 
ATOM     25  C   UNL     1      -9.859 -11.727  15.232  0.00  0.00    +0.122 C 
ATOM     26  C   UNL     1      -8.799  -9.563  15.836  0.00  0.00    +0.122 C 
ATOM     28  C   UNL     1     -10.172 -10.799  17.487  0.00  0.00    +0.121 A 
ATOM     33  C   UNL     1     -10.722  -9.726  18.170  0.00  0.00    +0.043 A 
ATOM     36  C   UNL     1     -11.099  -9.922  19.495  0.00  0.00    +0.005 A 
ATOM     37  C   UNL     1     -10.359 -12.175  19.318  0.00  0.00    +0.113 A 
ATOM     38  C   UNL     1     -10.917 -11.167  20.087  0.00  0.00    +0.020 A 
ENDBRANCH  20   9
ENDBRANCH  17  20
ENDBRANCH  13  17
BRANCH  14  19
ATOM     19  C   UNL     1      -7.360 -10.568   8.285  0.00  0.00    +0.124 C 
BRANCH  19  24
ATOM      6  O   UNL     1      -7.804 -10.219   5.920  0.00  0.00    -0.251 OA
ATOM     24  C   UNL     1      -7.530  -9.764   7.022  0.00  0.00    +0.308 C 
BRANCH  24   4
ATOM      4  O   UNL     1      -7.326  -8.446   7.315  0.00  0.00    -0.459 OA
BRANCH   4  27
ATOM     27  C   UNL     1      -8.496  -7.622   7.298  0.00  0.00    +0.105 C 
ATOM     30  C   UNL     1      -8.203  -6.345   8.087  0.00  0.00    +0.055 C 
ATOM     31  C   UNL     1      -9.625  -8.412   7.956  0.00  0.00    +0.055 C 
ATOM     32  C   UNL     1      -8.841  -7.297   5.846  0.00  0.00    +0.055 C 
ENDBRANCH   4  27
ENDBRANCH  24   4
ENDBRANCH  19  24
ENDBRANCH  14  19
TORSDOF 10
ENDMDL
MODEL 6
REMARK VINA RESULT:      -6.4      4.777      7.667
REMARK  Name = 45360494
REMARK  13 active torsions:
REMARK  status: ('A' for Active; 'I' for Inactive)
REMARK    1  A    between atoms: O_4  and  C_24
REMARK    2  A    between atoms: O_4  and  C_27
REMARK    3  A    between atoms: O_7  and  C_41
REMARK    4  A    between atoms: O_7  and  C_42
REMARK    5  A    between atoms: N_9  and  C_20
REMARK    6  A    between atoms: N_11  and  C_29
REMARK    7  A    between atoms: C_13  and  C_17
REMARK    8  A    between atoms: C_14  and  C_19
REMARK    9  A    between atoms: C_17  and  C_20
REMARK   10  A    between atoms: C_19  and  C_24
REMARK   11  A    between atoms: C_27  and  C_30
REMARK   12  A    between atoms: C_27  and  C_31
REMARK   13  A    between atoms: C_27  and  C_32
REMARK                            x       y       z     vdW  Elec       q    Type
REMARK                         _______ _______ _______ _____ _____    ______ ____
ROOT
ATOM      5  O   UNL     1      -7.197 -11.464  20.054  0.00  0.00    -0.252 OA
ATOM      8  N   UNL     1      -9.178 -11.924  18.953  0.00  0.00    -0.285 N 
ATOM     11  N   UNL     1      -7.101 -12.379  17.927  0.00  0.00    -0.269 N 
ATOM     13  C   UNL     1     -10.870 -11.198  17.282  0.00  0.00    +0.011 C 
ATOM     14  C   UNL     1     -11.740 -10.662  18.445  0.00  0.00    +0.006 C 
ATOM     15  C   UNL     1      -9.965 -12.343  17.780  0.00  0.00    +0.113 C 
ATOM     16  C   UNL     1     -10.883 -10.290  19.666  0.00  0.00    +0.023 C 
ATOM     18  C   UNL     1      -9.985 -11.452  20.081  0.00  0.00    +0.109 C 
ATOM     23  C   UNL     1      -7.770 -11.886  19.046  0.00  0.00    +0.306 C 
ATOM     43  H   UNL     1      -7.560 -13.091  17.368  0.00  0.00    +0.156 HD
ENDROOT
BRANCH  11  29
ATOM     29  C   UNL     1      -5.831 -11.978  17.441  0.00  0.00    +0.035 A 
ATOM     34  C   UNL     1      -5.370 -10.684  17.679  0.00  0.00    +0.027 A 
ATOM     35  C   UNL     1      -5.042 -12.879  16.726  0.00  0.00    +0.027 A 
ATOM     39  C   UNL     1      -4.121 -10.289  17.200  0.00  0.00    +0.048 A 
ATOM     40  C   UNL     1      -3.792 -12.484  16.247  0.00  0.00    +0.048 A 
ATOM     41  C   UNL     1      -3.333 -11.189  16.486  0.00  0.00    +0.130 A 
BRANCH  41   7
ATOM      7  O   UNL     1      -2.113 -10.804  16.019  0.00  0.00    -0.406 OA
BRANCH   7  42
ATOM      1  F   UNL     1      -1.553 -11.619  13.990  0.00  0.00    -0.133 F 
ATOM      2  F   UNL     1      -3.172 -10.156  14.098  0.00  0.00    -0.133 F 
ATOM      3  F   UNL     1      -1.079  -9.531  14.424  0.00  0.00    -0.133 F 
ATOM     42  C   UNL     1      -1.984 -10.510  14.632  0.00  0.00    +0.575 C 
ENDBRANCH   7  42
ENDBRANCH  41   7
ENDBRANCH  11  29
BRANCH  13  17
ATOM     17  C   UNL     1     -10.028 -10.120  16.586  0.00  0.00    +0.020 C 
BRANCH  17  20
ATOM     20  C   UNL     1     -10.171 -10.211  15.074  0.00  0.00    +0.085 C 
BRANCH  20   9
ATOM      9  N   UNL     1      -8.932  -9.773  14.431  0.00  0.00    -0.299 NA
ATOM     10  N   UNL     1      -6.682  -9.991  12.684  0.00  0.00    -0.313 N 
ATOM     12  N   UNL     1      -5.291  -8.859  11.140  0.00  0.00    -0.240 NA
ATOM     21  C   UNL     1      -9.110  -9.684  12.976  0.00  0.00    +0.103 C 
ATOM     22  C   UNL     1      -7.835 -10.696  14.744  0.00  0.00    +0.103 C 
ATOM     25  C   UNL     1      -7.838  -9.172  12.297  0.00  0.00    +0.122 C 
ATOM     26  C   UNL     1      -6.520 -10.220  14.123  0.00  0.00    +0.122 C 
ATOM     28  C   UNL     1      -5.558  -9.976  11.852  0.00  0.00    +0.121 A 
ATOM     33  C   UNL     1      -4.783 -11.125  11.812  0.00  0.00    +0.043 A 
ATOM     36  C   UNL     1      -3.662 -11.125  10.989  0.00  0.00    +0.005 A 
ATOM     37  C   UNL     1      -4.192  -8.896  10.352  0.00  0.00    +0.113 A 
ATOM     38  C   UNL     1      -3.354  -9.994  10.242  0.00  0.00    +0.020 A 
ENDBRANCH  20   9
ENDBRANCH  17  20
ENDBRANCH  13  17
BRANCH  14  19
ATOM     19  C   UNL     1     -12.635  -9.491  18.038  0.00  0.00    +0.124 C 
BRANCH  19  24
ATOM      6  O   UNL     1     -15.035  -9.144  17.855  0.00  0.00    -0.251 OA
ATOM     24  C   UNL     1     -14.091  -9.782  18.300  0.00  0.00    +0.308 C 
BRANCH  24   4
ATOM      4  O   UNL     1     -14.176 -10.875  19.114  0.00  0.00    -0.459 OA
BRANCH   4  27
ATOM     27  C   UNL     1     -14.725 -10.635  20.414  0.00  0.00    +0.105 C 
ATOM     30  C   UNL     1     -16.233 -10.875  20.356  0.00  0.00    +0.055 C 
ATOM     31  C   UNL     1     -14.427  -9.182  20.778  0.00  0.00    +0.055 C 
ATOM     32  C   UNL     1     -14.059 -11.587  21.406  0.00  0.00    +0.055 C 
ENDBRANCH   4  27
ENDBRANCH  24   4
ENDBRANCH  19  24
ENDBRANCH  14  19
TORSDOF 10
ENDMDL
MODEL 7
REMARK VINA RESULT:      -6.4     25.293     28.249
REMARK  Name = 45360494
REMARK  13 active torsions:
REMARK  status: ('A' for Active; 'I' for Inactive)
REMARK    1  A    between atoms: O_4  and  C_24
REMARK    2  A    between atoms: O_4  and  C_27
REMARK    3  A    between atoms: O_7  and  C_41
REMARK    4  A    between atoms: O_7  and  C_42
REMARK    5  A    between atoms: N_9  and  C_20
REMARK    6  A    between atoms: N_11  and  C_29
REMARK    7  A    between atoms: C_13  and  C_17
REMARK    8  A    between atoms: C_14  and  C_19
REMARK    9  A    between atoms: C_17  and  C_20
REMARK   10  A    between atoms: C_19  and  C_24
REMARK   11  A    between atoms: C_27  and  C_30
REMARK   12  A    between atoms: C_27  and  C_31
REMARK   13  A    between atoms: C_27  and  C_32
REMARK                            x       y       z     vdW  Elec       q    Type
REMARK                         _______ _______ _______ _____ _____    ______ ____
ROOT
ATOM      5  O   UNL     1      21.042  -4.171   2.298  0.00  0.00    -0.252 OA
ATOM      8  N   UNL     1      22.490  -5.972   2.397  0.00  0.00    -0.285 N 
ATOM     11  N   UNL     1      21.784  -5.113   0.314  0.00  0.00    -0.269 N 
ATOM     13  C   UNL     1      22.780  -8.440   2.303  0.00  0.00    +0.011 C 
ATOM     14  C   UNL     1      22.777  -8.466   3.852  0.00  0.00    +0.006 C 
ATOM     15  C   UNL     1      23.269  -7.068   1.797  0.00  0.00    +0.113 C 
ATOM     16  C   UNL     1      21.999  -7.274   4.434  0.00  0.00    +0.023 C 
ATOM     18  C   UNL     1      22.506  -5.954   3.862  0.00  0.00    +0.109 C 
ATOM     23  C   UNL     1      21.711  -5.021   1.703  0.00  0.00    +0.306 C 
ATOM     43  H   UNL     1      22.635  -5.481  -0.098  0.00  0.00    +0.156 HD
ENDROOT
BRANCH  11  29
ATOM     29  C   UNL     1      20.776  -4.773  -0.623  0.00  0.00    +0.035 A 
ATOM     34  C   UNL     1      19.494  -5.306  -0.491  0.00  0.00    +0.027 A 
ATOM     35  C   UNL     1      21.065  -3.904  -1.674  0.00  0.00    +0.027 A 
ATOM     39  C   UNL     1      18.502  -4.972  -1.413  0.00  0.00    +0.048 A 
ATOM     40  C   UNL     1      20.073  -3.569  -2.596  0.00  0.00    +0.048 A 
ATOM     41  C   UNL     1      18.791  -4.104  -2.464  0.00  0.00    +0.130 A 
BRANCH  41   7
ATOM      7  O   UNL     1      17.822  -3.777  -3.364  0.00  0.00    -0.406 OA
BRANCH   7  42
ATOM      1  F   UNL     1      17.424  -2.047  -1.970  0.00  0.00    -0.133 F 
ATOM      2  F   UNL     1      16.842  -1.833  -4.065  0.00  0.00    -0.133 F 
ATOM      3  F   UNL     1      15.711  -3.175  -2.722  0.00  0.00    -0.133 F 
ATOM     42  C   UNL     1      16.937  -2.709  -3.043  0.00  0.00    +0.575 C 
ENDBRANCH   7  42
ENDBRANCH  41   7
ENDBRANCH  11  29
BRANCH  13  17
ATOM     17  C   UNL     1      21.425  -8.787   1.672  0.00  0.00    +0.020 C 
BRANCH  17  20
ATOM     20  C   UNL     1      21.552  -9.980   0.736  0.00  0.00    +0.085 C 
BRANCH  20   9
ATOM      9  N   UNL     1      20.420 -10.886   0.929  0.00  0.00    -0.299 NA
ATOM     10  N   UNL     1      18.356 -12.203   2.403  0.00  0.00    -0.313 N 
ATOM     12  N   UNL     1      16.110 -12.947   2.378  0.00  0.00    -0.240 NA
ATOM     21  C   UNL     1      19.235 -10.143   1.374  0.00  0.00    +0.103 C 
ATOM     22  C   UNL     1      20.754 -11.925   1.911  0.00  0.00    +0.103 C 
ATOM     25  C   UNL     1      18.028 -11.072   1.526  0.00  0.00    +0.122 C 
ATOM     26  C   UNL     1      19.598 -12.913   2.083  0.00  0.00    +0.122 C 
ATOM     28  C   UNL     1      17.302 -12.889   3.013  0.00  0.00    +0.121 A 
ATOM     33  C   UNL     1      17.553 -13.471   4.246  0.00  0.00    +0.043 A 
ATOM     36  C   UNL     1      16.514 -14.156   4.866  0.00  0.00    +0.005 A 
ATOM     37  C   UNL     1      15.124 -13.623   3.011  0.00  0.00    +0.113 A 
ATOM     38  C   UNL     1      15.273 -14.238   4.243  0.00  0.00    +0.020 A 
ENDBRANCH  20   9
ENDBRANCH  17  20
ENDBRANCH  13  17
BRANCH  14  19
ATOM     19  C   UNL     1      22.260  -9.783   4.431  0.00  0.00    +0.124 C 
BRANCH  19  24
ATOM      6  O   UNL     1      24.161  -9.884   5.944  0.00  0.00    -0.251 OA
ATOM     24  C   UNL     1      23.000 -10.171   5.685  0.00  0.00    +0.308 C 
BRANCH  24   4
ATOM      4  O   UNL     1      22.158 -10.895   6.480  0.00  0.00    -0.459 OA
BRANCH   4  27
ATOM     27  C   UNL     1      22.222 -12.315   6.314  0.00  0.00    +0.105 C 
ATOM     30  C   UNL     1      22.574 -12.947   7.661  0.00  0.00    +0.055 C 
ATOM     31  C   UNL     1      23.308 -12.610   5.282  0.00  0.00    +0.055 C 
ATOM     32  C   UNL     1      20.862 -12.808   5.820  0.00  0.00    +0.055 C 
ENDBRANCH   4  27
ENDBRANCH  24   4
ENDBRANCH  19  24
ENDBRANCH  14  19
TORSDOF 10
ENDMDL
MODEL 8
REMARK VINA RESULT:      -6.2     23.024     26.385
REMARK  Name = 45360494
REMARK  13 active torsions:
REMARK  status: ('A' for Active; 'I' for Inactive)
REMARK    1  A    between atoms: O_4  and  C_24
REMARK    2  A    between atoms: O_4  and  C_27
REMARK    3  A    between atoms: O_7  and  C_41
REMARK    4  A    between atoms: O_7  and  C_42
REMARK    5  A    between atoms: N_9  and  C_20
REMARK    6  A    between atoms: N_11  and  C_29
REMARK    7  A    between atoms: C_13  and  C_17
REMARK    8  A    between atoms: C_14  and  C_19
REMARK    9  A    between atoms: C_17  and  C_20
REMARK   10  A    between atoms: C_19  and  C_24
REMARK   11  A    between atoms: C_27  and  C_30
REMARK   12  A    between atoms: C_27  and  C_31
REMARK   13  A    between atoms: C_27  and  C_32
REMARK                            x       y       z     vdW  Elec       q    Type
REMARK                         _______ _______ _______ _____ _____    ______ ____
ROOT
ATOM      5  O   UNL     1      11.278   3.675   3.172  0.00  0.00    -0.252 OA
ATOM      8  N   UNL     1      11.662   5.312   1.584  0.00  0.00    -0.285 N 
ATOM     11  N   UNL     1      11.632   5.853   3.883  0.00  0.00    -0.269 N 
ATOM     13  C   UNL     1      10.732   7.164   0.210  0.00  0.00    +0.011 C 
ATOM     14  C   UNL     1      10.591   6.172  -0.971  0.00  0.00    +0.006 C 
ATOM     15  C   UNL     1      11.862   6.707   1.155  0.00  0.00    +0.113 C 
ATOM     16  C   UNL     1      10.440   4.724  -0.476  0.00  0.00    +0.023 C 
ATOM     18  C   UNL     1      11.566   4.352   0.483  0.00  0.00    +0.109 C 
ATOM     23  C   UNL     1      11.499   4.861   2.912  0.00  0.00    +0.306 C 
ATOM     43  H   UNL     1      12.230   6.647   3.679  0.00  0.00    +0.156 HD
ENDROOT
BRANCH  11  29
ATOM     29  C   UNL     1      10.993   5.906   5.147  0.00  0.00    +0.035 A 
ATOM     34  C   UNL     1      11.731   6.216   6.289  0.00  0.00    +0.027 A 
ATOM     35  C   UNL     1       9.626   5.651   5.249  0.00  0.00    +0.027 A 
ATOM     39  C   UNL     1      11.103   6.268   7.533  0.00  0.00    +0.048 A 
ATOM     40  C   UNL     1       8.997   5.703   6.493  0.00  0.00    +0.048 A 
ATOM     41  C   UNL     1       9.737   6.012   7.635  0.00  0.00    +0.130 A 
BRANCH  41   7
ATOM      7  O   UNL     1       9.123   6.063   8.850  0.00  0.00    -0.406 OA
BRANCH   7  42
ATOM      1  F   UNL     1       8.126   4.863  10.480  0.00  0.00    -0.133 F 
ATOM      2  F   UNL     1       9.318   3.789   8.997  0.00  0.00    -0.133 F 
ATOM      3  F   UNL     1      10.303   5.046  10.524  0.00  0.00    -0.133 F 
ATOM     42  C   UNL     1       9.234   4.933   9.708  0.00  0.00    +0.575 C 
ENDBRANCH   7  42
ENDBRANCH  41   7
ENDBRANCH  11  29
BRANCH  13  17
ATOM     17  C   UNL     1       9.434   7.380   1.000  0.00  0.00    +0.020 C 
BRANCH  17  20
ATOM     20  C   UNL     1       9.683   8.245   2.228  0.00  0.00    +0.085 C 
BRANCH  20   9
ATOM      9  N   UNL     1       8.411   8.735   2.756  0.00  0.00    -0.299 NA
ATOM     10  N   UNL     1       6.551  10.702   3.671  0.00  0.00    -0.313 N 
ATOM     12  N   UNL     1       4.295  11.414   3.653  0.00  0.00    -0.240 NA
ATOM     21  C   UNL     1       7.780   9.660   1.806  0.00  0.00    +0.103 C 
ATOM     22  C   UNL     1       8.612   9.406   4.046  0.00  0.00    +0.103 C 
ATOM     25  C   UNL     1       6.420  10.136   2.322  0.00  0.00    +0.122 C 
ATOM     26  C   UNL     1       7.281   9.876   4.637  0.00  0.00    +0.122 C 
ATOM     28  C   UNL     1       5.554  11.574   4.118  0.00  0.00    +0.121 A 
ATOM     33  C   UNL     1       5.929  12.558   5.019  0.00  0.00    +0.043 A 
ATOM     36  C   UNL     1       4.947  13.434   5.472  0.00  0.00    +0.005 A 
ATOM     37  C   UNL     1       3.368  12.283   4.117  0.00  0.00    +0.113 A 
ATOM     38  C   UNL     1       3.640  13.300   5.017  0.00  0.00    +0.020 A 
ENDBRANCH  20   9
ENDBRANCH  17  20
ENDBRANCH  13  17
BRANCH  14  19
ATOM     19  C   UNL     1       9.457   6.535  -1.930  0.00  0.00    +0.124 C 
BRANCH  19  24
ATOM      6  O   UNL     1       9.756   7.441  -4.167  0.00  0.00    -0.251 OA
ATOM     24  C   UNL     1       9.916   6.531  -3.365  0.00  0.00    +0.308 C 
BRANCH  24   4
ATOM      4  O   UNL     1      10.538   5.342  -3.619  0.00  0.00    -0.459 OA
BRANCH   4  27
ATOM     27  C   UNL     1       9.785   4.403  -4.394  0.00  0.00    +0.105 C 
ATOM     30  C   UNL     1       9.979   3.011  -3.793  0.00  0.00    +0.055 C 
ATOM     31  C   UNL     1      10.320   4.451  -5.823  0.00  0.00    +0.055 C 
ATOM     32  C   UNL     1       8.314   4.812  -4.355  0.00  0.00    +0.055 C 
ENDBRANCH   4  27
ENDBRANCH  24   4
ENDBRANCH  19  24
ENDBRANCH  14  19
TORSDOF 10
ENDMDL
MODEL 9
REMARK VINA RESULT:      -6.2      3.065      5.604
REMARK  Name = 45360494
REMARK  13 active torsions:
REMARK  status: ('A' for Active; 'I' for Inactive)
REMARK    1  A    between atoms: O_4  and  C_24
REMARK    2  A    between atoms: O_4  and  C_27
REMARK    3  A    between atoms: O_7  and  C_41
REMARK    4  A    between atoms: O_7  and  C_42
REMARK    5  A    between atoms: N_9  and  C_20
REMARK    6  A    between atoms: N_11  and  C_29
REMARK    7  A    between atoms: C_13  and  C_17
REMARK    8  A    between atoms: C_14  and  C_19
REMARK    9  A    between atoms: C_17  and  C_20
REMARK   10  A    between atoms: C_19  and  C_24
REMARK   11  A    between atoms: C_27  and  C_30
REMARK   12  A    between atoms: C_27  and  C_31
REMARK   13  A    between atoms: C_27  and  C_32
REMARK                            x       y       z     vdW  Elec       q    Type
REMARK                         _______ _______ _______ _____ _____    ______ ____
ROOT
ATOM      5  O   UNL     1      -3.739  -9.579   9.092  0.00  0.00    -0.252 OA
ATOM      8  N   UNL     1      -4.466 -10.995  10.769  0.00  0.00    -0.285 N 
ATOM     11  N   UNL     1      -5.828 -10.563   8.889  0.00  0.00    -0.269 N 
ATOM     13  C   UNL     1      -5.833 -11.287  12.825  0.00  0.00    +0.011 C 
ATOM     14  C   UNL     1      -4.549 -11.087  13.668  0.00  0.00    +0.006 C 
ATOM     15  C   UNL     1      -5.473 -11.841  11.432  0.00  0.00    +0.113 C 
ATOM     16  C   UNL     1      -3.506 -10.246  12.914  0.00  0.00    +0.023 C 
ATOM     18  C   UNL     1      -3.227 -10.826  11.531  0.00  0.00    +0.109 C 
ATOM     23  C   UNL     1      -4.621 -10.315   9.542  0.00  0.00    +0.306 C 
ATOM     43  H   UNL     1      -6.280 -11.458   9.042  0.00  0.00    +0.156 HD
ENDROOT
BRANCH  11  29
ATOM     29  C   UNL     1      -6.538  -9.683   8.034  0.00  0.00    +0.035 A 
ATOM     34  C   UNL     1      -6.386  -9.781   6.651  0.00  0.00    +0.027 A 
ATOM     35  C   UNL     1      -7.389  -8.720   8.576  0.00  0.00    +0.027 A 
ATOM     39  C   UNL     1      -7.084  -8.915   5.810  0.00  0.00    +0.048 A 
ATOM     40  C   UNL     1      -8.087  -7.853   7.734  0.00  0.00    +0.048 A 
ATOM     41  C   UNL     1      -7.935  -7.952   6.351  0.00  0.00    +0.130 A 
BRANCH  41   7
ATOM      7  O   UNL     1      -8.616  -7.106   5.530  0.00  0.00    -0.406 OA
BRANCH   7  42
ATOM      1  F   UNL     1     -10.502  -6.722   4.351  0.00  0.00    -0.133 F 
ATOM      2  F   UNL     1     -10.482  -8.413   5.734  0.00  0.00    -0.133 F 
ATOM      3  F   UNL     1     -10.540  -6.342   6.502  0.00  0.00    -0.133 F 
ATOM     42  C   UNL     1     -10.039  -7.152   5.546  0.00  0.00    +0.575 C 
ENDBRANCH   7  42
ENDBRANCH  41   7
ENDBRANCH  11  29
BRANCH  13  17
ATOM     17  C   UNL     1      -6.691 -10.022  12.688  0.00  0.00    +0.020 C 
BRANCH  17  20
ATOM     20  C   UNL     1      -8.157 -10.328  12.959  0.00  0.00    +0.085 C 
BRANCH  20   9
ATOM      9  N   UNL     1      -8.473 -10.046  14.359  0.00  0.00    -0.299 NA
ATOM     10  N   UNL     1     -10.071 -10.071  16.727  0.00  0.00    -0.313 N 
ATOM     12  N   UNL     1     -10.075 -10.353  19.077  0.00  0.00    -0.240 NA
ATOM     21  C   UNL     1      -8.680 -11.295  15.102  0.00  0.00    +0.103 C 
ATOM     22  C   UNL     1      -9.671  -9.203  14.457  0.00  0.00    +0.103 C 
ATOM     25  C   UNL     1      -8.956 -11.016  16.581  0.00  0.00    +0.122 C 
ATOM     26  C   UNL     1      -9.982  -8.855  15.914  0.00  0.00    +0.122 C 
ATOM     28  C   UNL     1     -10.751 -10.042  17.948  0.00  0.00    +0.121 A 
ATOM     33  C   UNL     1     -12.092  -9.692  17.919  0.00  0.00    +0.043 A 
ATOM     36  C   UNL     1     -12.782  -9.658  19.126  0.00  0.00    +0.005 A 
ATOM     37  C   UNL     1     -10.779 -10.308  20.231  0.00  0.00    +0.113 A 
ATOM     38  C   UNL     1     -12.121  -9.971  20.308  0.00  0.00    +0.020 A 
ENDBRANCH  20   9
ENDBRANCH  17  20
ENDBRANCH  13  17
BRANCH  14  19
ATOM     19  C   UNL     1      -4.822 -10.496  15.051  0.00  0.00    +0.124 C 
BRANCH  19  24
ATOM      6  O   UNL     1      -3.158 -12.039  15.927  0.00  0.00    -0.251 OA
ATOM     24  C   UNL     1      -3.985 -11.157  16.116  0.00  0.00    +0.308 C 
BRANCH  24   4
ATOM      4  O   UNL     1      -4.304 -10.606  17.324  0.00  0.00    -0.459 OA
BRANCH   4  27
ATOM     27  C   UNL     1      -4.991 -11.470  18.235  0.00  0.00    +0.105 C 
ATOM     30  C   UNL     1      -5.667 -12.582  17.433  0.00  0.00    +0.055 C 
ATOM     31  C   UNL     1      -6.031 -10.631  18.971  0.00  0.00    +0.055 C 
ATOM     32  C   UNL     1      -3.972 -12.048  19.216  0.00  0.00    +0.055 C 
ENDBRANCH   4  27
ENDBRANCH  24   4
ENDBRANCH  19  24
ENDBRANCH  14  19
TORSDOF 10
ENDMDL
MODEL 10
REMARK VINA RESULT:      -6.1      3.079      4.887
REMARK  Name = 45360494
REMARK  13 active torsions:
REMARK  status: ('A' for Active; 'I' for Inactive)
REMARK    1  A    between atoms: O_4  and  C_24
REMARK    2  A    between atoms: O_4  and  C_27
REMARK    3  A    between atoms: O_7  and  C_41
REMARK    4  A    between atoms: O_7  and  C_42
REMARK    5  A    between atoms: N_9  and  C_20
REMARK    6  A    between atoms: N_11  and  C_29
REMARK    7  A    between atoms: C_13  and  C_17
REMARK    8  A    between atoms: C_14  and  C_19
REMARK    9  A    between atoms: C_17  and  C_20
REMARK   10  A    between atoms: C_19  and  C_24
REMARK   11  A    between atoms: C_27  and  C_30
REMARK   12  A    between atoms: C_27  and  C_31
REMARK   13  A    between atoms: C_27  and  C_32
REMARK                            x       y       z     vdW  Elec       q    Type
REMARK                         _______ _______ _______ _____ _____    ______ ____
ROOT
ATOM      5  O   UNL     1      -3.406 -11.328  17.948  0.00  0.00    -0.252 OA
ATOM      8  N   UNL     1      -5.432 -12.360  18.374  0.00  0.00    -0.285 N 
ATOM     11  N   UNL     1      -4.328 -12.688  16.312  0.00  0.00    -0.269 N 
ATOM     13  C   UNL     1      -7.901 -12.340  18.081  0.00  0.00    +0.011 C 
ATOM     14  C   UNL     1      -8.029 -11.699  19.485  0.00  0.00    +0.006 C 
ATOM     15  C   UNL     1      -6.603 -13.167  17.992  0.00  0.00    +0.113 C 
ATOM     16  C   UNL     1      -6.763 -10.913  19.864  0.00  0.00    +0.023 C 
ATOM     18  C   UNL     1      -5.514 -11.777  19.715  0.00  0.00    +0.109 C 
ATOM     23  C   UNL     1      -4.316 -12.065  17.560  0.00  0.00    +0.306 C 
ATOM     43  H   UNL     1      -4.808 -13.578  16.225  0.00  0.00    +0.156 HD
ENDROOT
BRANCH  11  29
ATOM     29  C   UNL     1      -3.758 -12.206  15.108  0.00  0.00    +0.035 A 
ATOM     34  C   UNL     1      -3.389 -13.100  14.103  0.00  0.00    +0.027 A 
ATOM     35  C   UNL     1      -3.568 -10.836  14.926  0.00  0.00    +0.027 A 
ATOM     39  C   UNL     1      -2.828 -12.625  12.918  0.00  0.00    +0.048 A 
ATOM     40  C   UNL     1      -3.006 -10.361  13.740  0.00  0.00    +0.048 A 
ATOM     41  C   UNL     1      -2.638 -11.257  12.737  0.00  0.00    +0.130 A 
BRANCH  41   7
ATOM      7  O   UNL     1      -2.090 -10.793  11.579  0.00  0.00    -0.406 OA
BRANCH   7  42
ATOM      1  F   UNL     1      -3.905  -9.461  11.426  0.00  0.00    -0.133 F 
ATOM      2  F   UNL     1      -2.205  -9.033  10.123  0.00  0.00    -0.133 F 
ATOM      3  F   UNL     1      -3.474 -10.804   9.758  0.00  0.00    -0.133 F 
ATOM     42  C   UNL     1      -2.910 -10.025  10.705  0.00  0.00    +0.575 C 
ENDBRANCH   7  42
ENDBRANCH  41   7
ENDBRANCH  11  29
BRANCH  13  17
ATOM     17  C   UNL     1      -7.968 -11.330  16.928  0.00  0.00    +0.020 C 
BRANCH  17  20
ATOM     20  C   UNL     1      -8.320 -12.022  15.619  0.00  0.00    +0.085 C 
BRANCH  20   9
ATOM      9  N   UNL     1      -7.677 -11.330  14.502  0.00  0.00    -0.299 NA
ATOM     10  N   UNL     1      -7.255 -10.628  11.766  0.00  0.00    -0.313 N 
ATOM     12  N   UNL     1      -6.778  -8.873  10.251  0.00  0.00    -0.240 NA
ATOM     21  C   UNL     1      -8.644 -10.482  13.796  0.00  0.00    +0.103 C 
ATOM     22  C   UNL     1      -7.086 -12.297  13.569  0.00  0.00    +0.103 C 
ATOM     25  C   UNL     1      -7.971  -9.709  12.660  0.00  0.00    +0.122 C 
ATOM     26  C   UNL     1      -6.362 -11.586  12.424  0.00  0.00    +0.122 C 
ATOM     28  C   UNL     1      -6.970 -10.193  10.467  0.00  0.00    +0.121 A 
ATOM     33  C   UNL     1      -6.905 -11.159   9.475  0.00  0.00    +0.043 A 
ATOM     36  C   UNL     1      -6.623 -10.742   8.178  0.00  0.00    +0.005 A 
ATOM     37  C   UNL     1      -6.506  -8.505   8.978  0.00  0.00    +0.113 A 
ATOM     38  C   UNL     1      -6.419  -9.391   7.917  0.00  0.00    +0.020 A 
ENDBRANCH  20   9
ENDBRANCH  17  20
ENDBRANCH  13  17
BRANCH  14  19
ATOM     19  C   UNL     1      -9.273 -10.824  19.637  0.00  0.00    +0.124 C 
BRANCH  19  24
ATOM      6  O   UNL     1     -10.747 -12.476  20.642  0.00  0.00    -0.251 OA
ATOM     24  C   UNL     1     -10.526 -11.651  19.766  0.00  0.00    +0.308 C 
BRANCH  24   4
ATOM      4  O   UNL     1     -11.370 -11.324  18.743  0.00  0.00    -0.459 OA
BRANCH   4  27
ATOM     27  C   UNL     1     -12.547 -10.602  19.120  0.00  0.00    +0.105 C 
ATOM     30  C   UNL     1     -13.710 -11.589  19.222  0.00  0.00    +0.055 C 
ATOM     31  C   UNL     1     -12.818  -9.564  18.034  0.00  0.00    +0.055 C 
ATOM     32  C   UNL     1     -12.290  -9.922  20.464  0.00  0.00    +0.055 C 
ENDBRANCH   4  27
ENDBRANCH  24   4
ENDBRANCH  19  24
ENDBRANCH  14  19
TORSDOF 10
ENDMDL
