MODEL 1
REMARK VINA RESULT:      -7.9      0.000      0.000
REMARK  Name = 7051458
REMARK  6 active torsions:
REMARK  status: ('A' for Active; 'I' for Inactive)
REMARK    1  A    between atoms: S_1  and  N_10
REMARK    2  A    between atoms: S_1  and  C_24
REMARK    3  A    between atoms: O_5  and  C_23
REMARK    4  A    between atoms: O_5  and  C_25
REMARK    5  A    between atoms: N_10  and  C_21
REMARK    6  A    between atoms: C_20  and  C_23
REMARK                            x       y       z     vdW  Elec       q    Type
REMARK                         _______ _______ _______ _____ _____    ______ ____
ROOT
ATOM      3  O   UNL     1      12.127   9.129  16.904  0.00  0.00    -0.266 OA
ATOM      4  O   UNL     1      10.485   9.078  22.005  0.00  0.00    -0.272 OA
ATOM      8  N   UNL     1      12.688   8.358  21.844  0.00  0.00    -0.298 N 
ATOM      9  N   UNL     1      13.470   8.621  18.756  0.00  0.00    -0.310 N 
ATOM     11  C   UNL     1      13.132   6.533  20.197  0.00  0.00    +0.027 C 
ATOM     12  C   UNL     1      14.917   8.129  20.761  0.00  0.00    +0.054 C 
ATOM     13  C   UNL     1      14.625   6.657  20.479  0.00  0.00    +0.018 C 
ATOM     14  C   UNL     1      12.313   7.011  21.407  0.00  0.00    +0.113 C 
ATOM     15  C   UNL     1      12.801   7.326  18.926  0.00  0.00    +0.130 C 
ATOM     16  C   UNL     1      14.132   8.582  22.008  0.00  0.00    +0.117 C 
ATOM     17  C   UNL     1      14.544   8.998  19.574  0.00  0.00    +0.027 A 
ATOM     18  C   UNL     1      15.221  10.135  19.329  0.00  0.00    +0.024 A 
ATOM     19  C   UNL     1      13.050   9.413  17.667  0.00  0.00    +0.274 A 
ATOM     20  C   UNL     1      11.693   9.286  22.150  0.00  0.00    +0.253 C 
ATOM     21  C   UNL     1      13.820  10.666  17.462  0.00  0.00    +0.112 A 
ATOM     22  C   UNL     1      14.850  10.999  18.241  0.00  0.00    +0.031 A 
ENDROOT
BRANCH  21  10
ATOM     10  N   UNL     1      13.484  11.540  16.415  0.00  0.00    -0.211 N 
ATOM     36  H   UNL     1      13.570  12.528  16.693  0.00  0.00    +0.174 HD
BRANCH  10   1
ATOM      1  S   UNL     1      14.240  11.225  14.920  0.00  0.00    +0.073 S 
ATOM      6  O   UNL     1      14.704   9.851  14.879  0.00  0.00    -0.150 OA
ATOM      7  O   UNL     1      13.430  11.785  13.854  0.00  0.00    -0.150 OA
BRANCH   1  24
ATOM      2  F   UNL     1      19.302  11.622  14.549  0.00  0.00    -0.205 F 
ATOM     24  C   UNL     1      15.760  12.177  14.891  0.00  0.00    +0.111 A 
ATOM     26  C   UNL     1      16.944  11.504  14.728  0.00  0.00    +0.067 A 
ATOM     27  C   UNL     1      15.676  13.539  15.033  0.00  0.00    +0.029 A 
ATOM     30  C   UNL     1      18.126  12.244  14.706  0.00  0.00    +0.125 A 
ATOM     31  C   UNL     1      16.859  14.278  15.010  0.00  0.00    +0.005 A 
ATOM     32  C   UNL     1      18.084  13.630  14.847  0.00  0.00    +0.038 A 
ENDBRANCH   1  24
ENDBRANCH  10   1
ENDBRANCH  21  10
BRANCH  20  23
ATOM     23  C   UNL     1      12.152  10.620  22.682  0.00  0.00    +0.324 C 
BRANCH  23   5
ATOM      5  O   UNL     1      11.416  10.859  23.857  0.00  0.00    -0.483 OA
BRANCH   5  25
ATOM     25  C   UNL     1      11.011  12.153  24.097  0.00  0.00    +0.121 A 
ATOM     28  C   UNL     1      10.715  12.984  23.026  0.00  0.00    +0.045 A 
ATOM     29  C   UNL     1      10.905  12.603  25.403  0.00  0.00    +0.045 A 
ATOM     33  C   UNL     1      10.304  14.294  23.269  0.00  0.00    +0.004 A 
ATOM     34  C   UNL     1      10.494  13.913  25.647  0.00  0.00    +0.004 A 
ATOM     35  C   UNL     1      10.193  14.759  24.579  0.00  0.00    +0.000 A 
ENDBRANCH   5  25
ENDBRANCH  23   5
ENDBRANCH  20  23
TORSDOF 6
ENDMDL
MODEL 2
REMARK VINA RESULT:      -7.6      1.611      2.254
REMARK  Name = 7051458
REMARK  6 active torsions:
REMARK  status: ('A' for Active; 'I' for Inactive)
REMARK    1  A    between atoms: S_1  and  N_10
REMARK    2  A    between atoms: S_1  and  C_24
REMARK    3  A    between atoms: O_5  and  C_23
REMARK    4  A    between atoms: O_5  and  C_25
REMARK    5  A    between atoms: N_10  and  C_21
REMARK    6  A    between atoms: C_20  and  C_23
REMARK                            x       y       z     vdW  Elec       q    Type
REMARK                         _______ _______ _______ _____ _____    ______ ____
ROOT
ATOM      3  O   UNL     1      12.075   9.030  16.926  0.00  0.00    -0.266 OA
ATOM      4  O   UNL     1      10.444   9.188  22.027  0.00  0.00    -0.272 OA
ATOM      8  N   UNL     1      12.643   8.455  21.891  0.00  0.00    -0.298 N 
ATOM      9  N   UNL     1      13.421   8.592  18.794  0.00  0.00    -0.310 N 
ATOM     11  C   UNL     1      13.078   6.564  20.317  0.00  0.00    +0.027 C 
ATOM     12  C   UNL     1      14.870   8.175  20.814  0.00  0.00    +0.054 C 
ATOM     13  C   UNL     1      14.572   6.694  20.592  0.00  0.00    +0.018 C 
ATOM     14  C   UNL     1      12.263   7.093  21.509  0.00  0.00    +0.113 C 
ATOM     15  C   UNL     1      12.747   7.307  19.017  0.00  0.00    +0.130 C 
ATOM     16  C   UNL     1      14.089   8.680  22.044  0.00  0.00    +0.117 C 
ATOM     17  C   UNL     1      14.498   8.998  19.594  0.00  0.00    +0.027 A 
ATOM     18  C   UNL     1      15.178  10.122  19.304  0.00  0.00    +0.024 A 
ATOM     19  C   UNL     1      13.001   9.342  17.675  0.00  0.00    +0.274 A 
ATOM     20  C   UNL     1      11.652   9.397  22.162  0.00  0.00    +0.253 C 
ATOM     21  C   UNL     1      13.775  10.583  17.419  0.00  0.00    +0.112 A 
ATOM     22  C   UNL     1      14.807  10.943  18.182  0.00  0.00    +0.031 A 
ENDROOT
BRANCH  21  10
ATOM     10  N   UNL     1      13.440  11.416  16.338  0.00  0.00    -0.211 N 
ATOM     36  H   UNL     1      13.417  12.409  16.608  0.00  0.00    +0.174 HD
BRANCH  10   1
ATOM      1  S   UNL     1      14.328  11.159  14.906  0.00  0.00    +0.073 S 
ATOM      6  O   UNL     1      14.810   9.791  14.861  0.00  0.00    -0.150 OA
ATOM      7  O   UNL     1      13.609  11.748  13.792  0.00  0.00    -0.150 OA
BRANCH   1  24
ATOM      2  F   UNL     1      19.365  11.744  14.451  0.00  0.00    -0.205 F 
ATOM     24  C   UNL     1      15.833  12.125  15.044  0.00  0.00    +0.111 A 
ATOM     26  C   UNL     1      17.018  11.535  14.685  0.00  0.00    +0.067 A 
ATOM     27  C   UNL     1      15.738  13.414  15.502  0.00  0.00    +0.029 A 
ATOM     30  C   UNL     1      18.189  12.286  14.792  0.00  0.00    +0.125 A 
ATOM     31  C   UNL     1      16.909  14.165  15.609  0.00  0.00    +0.005 A 
ATOM     32  C   UNL     1      18.134  13.600  15.254  0.00  0.00    +0.038 A 
ENDBRANCH   1  24
ENDBRANCH  10   1
ENDBRANCH  21  10
BRANCH  20  23
ATOM     23  C   UNL     1      12.117  10.750  22.640  0.00  0.00    +0.324 C 
BRANCH  23   5
ATOM      5  O   UNL     1      11.765  11.672  21.638  0.00  0.00    -0.483 OA
BRANCH   5  25
ATOM     25  C   UNL     1      12.763  12.485  21.148  0.00  0.00    +0.121 A 
ATOM     28  C   UNL     1      13.993  12.516  21.790  0.00  0.00    +0.045 A 
ATOM     29  C   UNL     1      12.522  13.257  20.023  0.00  0.00    +0.045 A 
ATOM     33  C   UNL     1      15.004  13.339  21.293  0.00  0.00    +0.004 A 
ATOM     34  C   UNL     1      13.533  14.080  19.526  0.00  0.00    +0.004 A 
ATOM     35  C   UNL     1      14.774  14.121  20.162  0.00  0.00    +0.000 A 
ENDBRANCH   5  25
ENDBRANCH  23   5
ENDBRANCH  20  23
TORSDOF 6
ENDMDL
MODEL 3
REMARK VINA RESULT:      -7.6     27.736     29.780
REMARK  Name = 7051458
REMARK  6 active torsions:
REMARK  status: ('A' for Active; 'I' for Inactive)
REMARK    1  A    between atoms: S_1  and  N_10
REMARK    2  A    between atoms: S_1  and  C_24
REMARK    3  A    between atoms: O_5  and  C_23
REMARK    4  A    between atoms: O_5  and  C_25
REMARK    5  A    between atoms: N_10  and  C_21
REMARK    6  A    between atoms: C_20  and  C_23
REMARK                            x       y       z     vdW  Elec       q    Type
REMARK                         _______ _______ _______ _____ _____    ______ ____
ROOT
ATOM      3  O   UNL     1      -4.458 -14.279  15.812  0.00  0.00    -0.266 OA
ATOM      4  O   UNL     1      -9.289 -11.999  15.406  0.00  0.00    -0.272 OA
ATOM      8  N   UNL     1      -8.017 -10.943  17.037  0.00  0.00    -0.298 N 
ATOM      9  N   UNL     1      -5.160 -12.373  16.981  0.00  0.00    -0.310 N 
ATOM     11  C   UNL     1      -6.992 -12.426  18.766  0.00  0.00    +0.027 C 
ATOM     12  C   UNL     1      -5.910 -10.293  18.192  0.00  0.00    +0.054 C 
ATOM     13  C   UNL     1      -6.263 -11.222  19.351  0.00  0.00    +0.018 C 
ATOM     14  C   UNL     1      -8.273 -11.981  18.039  0.00  0.00    +0.113 C 
ATOM     15  C   UNL     1      -6.035 -13.183  17.838  0.00  0.00    +0.130 C 
ATOM     16  C   UNL     1      -7.203  -9.811  17.504  0.00  0.00    +0.117 C 
ATOM     17  C   UNL     1      -5.020 -10.993  17.181  0.00  0.00    +0.027 A 
ATOM     18  C   UNL     1      -4.127 -10.288  16.464  0.00  0.00    +0.024 A 
ATOM     19  C   UNL     1      -4.392 -13.068  16.022  0.00  0.00    +0.274 A 
ATOM     20  C   UNL     1      -8.609 -11.039  15.779  0.00  0.00    +0.253 C 
ATOM     21  C   UNL     1      -3.441 -12.232  15.247  0.00  0.00    +0.112 A 
ATOM     22  C   UNL     1      -3.311 -10.923  15.464  0.00  0.00    +0.031 A 
ENDROOT
BRANCH  21  10
ATOM     10  N   UNL     1      -2.633 -12.814  14.256  0.00  0.00    -0.211 N 
ATOM     36  H   UNL     1      -2.194 -13.688  14.579  0.00  0.00    +0.174 HD
BRANCH  10   1
ATOM      1  S   UNL     1      -3.354 -12.985  12.721  0.00  0.00    +0.073 S 
ATOM      6  O   UNL     1      -2.671 -14.018  11.966  0.00  0.00    -0.150 OA
ATOM      7  O   UNL     1      -4.797 -12.983  12.874  0.00  0.00    -0.150 OA
BRANCH   1  24
ATOM      2  F   UNL     1      -0.488  -8.897  11.720  0.00  0.00    -0.205 F 
ATOM     24  C   UNL     1      -2.988 -11.489  11.802  0.00  0.00    +0.111 A 
ATOM     26  C   UNL     1      -1.863 -10.780  12.137  0.00  0.00    +0.067 A 
ATOM     27  C   UNL     1      -3.848 -11.115  10.801  0.00  0.00    +0.029 A 
ATOM     30  C   UNL     1      -1.578  -9.616  11.422  0.00  0.00    +0.125 A 
ATOM     31  C   UNL     1      -3.563  -9.951  10.086  0.00  0.00    +0.005 A 
ATOM     32  C   UNL     1      -2.428  -9.202  10.398  0.00  0.00    +0.038 A 
ENDBRANCH   1  24
ENDBRANCH  10   1
ENDBRANCH  21  10
BRANCH  20  23
ATOM     23  C   UNL     1      -8.378  -9.888  14.832  0.00  0.00    +0.324 C 
BRANCH  23   5
ATOM      5  O   UNL     1      -7.197 -10.180  14.126  0.00  0.00    -0.483 OA
BRANCH   5  25
ATOM     25  C   UNL     1      -7.251 -10.122  12.752  0.00  0.00    +0.121 A 
ATOM     28  C   UNL     1      -6.811  -8.980  12.099  0.00  0.00    +0.045 A 
ATOM     29  C   UNL     1      -7.745 -11.207  12.043  0.00  0.00    +0.045 A 
ATOM     33  C   UNL     1      -6.866  -8.922  10.706  0.00  0.00    +0.004 A 
ATOM     34  C   UNL     1      -7.801 -11.149  10.651  0.00  0.00    +0.004 A 
ATOM     35  C   UNL     1      -7.361 -10.006   9.982  0.00  0.00    +0.000 A 
ENDBRANCH   5  25
ENDBRANCH  23   5
ENDBRANCH  20  23
TORSDOF 6
ENDMDL
MODEL 4
REMARK VINA RESULT:      -7.6     27.674     29.646
REMARK  Name = 7051458
REMARK  6 active torsions:
REMARK  status: ('A' for Active; 'I' for Inactive)
REMARK    1  A    between atoms: S_1  and  N_10
REMARK    2  A    between atoms: S_1  and  C_24
REMARK    3  A    between atoms: O_5  and  C_23
REMARK    4  A    between atoms: O_5  and  C_25
REMARK    5  A    between atoms: N_10  and  C_21
REMARK    6  A    between atoms: C_20  and  C_23
REMARK                            x       y       z     vdW  Elec       q    Type
REMARK                         _______ _______ _______ _____ _____    ______ ____
ROOT
ATOM      3  O   UNL     1      -4.740 -14.193  15.679  0.00  0.00    -0.266 OA
ATOM      4  O   UNL     1      -9.484 -11.706  15.812  0.00  0.00    -0.272 OA
ATOM      8  N   UNL     1      -8.070 -10.867  17.454  0.00  0.00    -0.298 N 
ATOM      9  N   UNL     1      -5.286 -12.390  17.072  0.00  0.00    -0.310 N 
ATOM     11  C   UNL     1      -7.007 -12.554  18.958  0.00  0.00    +0.027 C 
ATOM     12  C   UNL     1      -5.870 -10.416  18.527  0.00  0.00    +0.054 C 
ATOM     13  C   UNL     1      -6.192 -11.443  19.610  0.00  0.00    +0.018 C 
ATOM     14  C   UNL     1      -8.309 -11.990  18.363  0.00  0.00    +0.113 C 
ATOM     15  C   UNL     1      -6.142 -13.248  17.900  0.00  0.00    +0.130 C 
ATOM     16  C   UNL     1      -7.181  -9.819  17.975  0.00  0.00    +0.117 C 
ATOM     17  C   UNL     1      -5.075 -11.043  17.397  0.00  0.00    +0.027 A 
ATOM     18  C   UNL     1      -4.197 -10.302  16.696  0.00  0.00    +0.024 A 
ATOM     19  C   UNL     1      -4.609 -13.013  16.002  0.00  0.00    +0.274 A 
ATOM     20  C   UNL     1      -8.741 -10.815  16.232  0.00  0.00    +0.253 C 
ATOM     21  C   UNL     1      -3.672 -12.139  15.253  0.00  0.00    +0.112 A 
ATOM     22  C   UNL     1      -3.472 -10.864  15.588  0.00  0.00    +0.031 A 
ENDROOT
BRANCH  21  10
ATOM     10  N   UNL     1      -2.951 -12.647  14.160  0.00  0.00    -0.211 N 
ATOM     36  H   UNL     1      -2.604 -13.601  14.335  0.00  0.00    +0.174 HD
BRANCH  10   1
ATOM      1  S   UNL     1      -3.716 -12.511  12.643  0.00  0.00    +0.073 S 
ATOM      6  O   UNL     1      -3.328 -13.619  11.791  0.00  0.00    -0.150 OA
ATOM      7  O   UNL     1      -5.109 -12.161  12.846  0.00  0.00    -0.150 OA
BRANCH   1  24
ATOM      2  F   UNL     1      -3.834  -8.761   9.201  0.00  0.00    -0.205 F 
ATOM     24  C   UNL     1      -3.000 -11.086  11.821  0.00  0.00    +0.111 A 
ATOM     26  C   UNL     1      -3.719 -10.484  10.821  0.00  0.00    +0.067 A 
ATOM     27  C   UNL     1      -1.761 -10.658  12.226  0.00  0.00    +0.029 A 
ATOM     30  C   UNL     1      -3.162  -9.376  10.182  0.00  0.00    +0.125 A 
ATOM     31  C   UNL     1      -1.204  -9.550  11.587  0.00  0.00    +0.005 A 
ATOM     32  C   UNL     1      -1.905  -8.910  10.565  0.00  0.00    +0.038 A 
ENDBRANCH   1  24
ENDBRANCH  10   1
ENDBRANCH  21  10
BRANCH  20  23
ATOM     23  C   UNL     1      -8.518  -9.583  15.390  0.00  0.00    +0.324 C 
BRANCH  23   5
ATOM      5  O   UNL     1      -9.686  -9.401  14.627  0.00  0.00    -0.483 OA
BRANCH   5  25
ATOM     25  C   UNL     1     -10.488  -8.329  14.945  0.00  0.00    +0.121 A 
ATOM     28  C   UNL     1     -10.093  -7.456  15.949  0.00  0.00    +0.045 A 
ATOM     29  C   UNL     1     -11.677  -8.139  14.258  0.00  0.00    +0.045 A 
ATOM     33  C   UNL     1     -10.906  -6.369  16.270  0.00  0.00    +0.004 A 
ATOM     34  C   UNL     1     -12.490  -7.052  14.579  0.00  0.00    +0.004 A 
ATOM     35  C   UNL     1     -12.104  -6.167  15.586  0.00  0.00    +0.000 A 
ENDBRANCH   5  25
ENDBRANCH  23   5
ENDBRANCH  20  23
TORSDOF 6
ENDMDL
MODEL 5
REMARK VINA RESULT:      -7.3     13.425     16.682
REMARK  Name = 7051458
REMARK  6 active torsions:
REMARK  status: ('A' for Active; 'I' for Inactive)
REMARK    1  A    between atoms: S_1  and  N_10
REMARK    2  A    between atoms: S_1  and  C_24
REMARK    3  A    between atoms: O_5  and  C_23
REMARK    4  A    between atoms: O_5  and  C_25
REMARK    5  A    between atoms: N_10  and  C_21
REMARK    6  A    between atoms: C_20  and  C_23
REMARK                            x       y       z     vdW  Elec       q    Type
REMARK                         _______ _______ _______ _____ _____    ______ ____
ROOT
ATOM      3  O   UNL     1      14.289   6.982   6.958  0.00  0.00    -0.266 OA
ATOM      4  O   UNL     1      10.139   3.953   5.436  0.00  0.00    -0.272 OA
ATOM      8  N   UNL     1       9.618   6.210   5.257  0.00  0.00    -0.298 N 
ATOM      9  N   UNL     1      12.276   7.788   6.069  0.00  0.00    -0.310 N 
ATOM     11  C   UNL     1      10.035   7.601   7.290  0.00  0.00    +0.027 C 
ATOM     12  C   UNL     1      10.127   8.638   5.061  0.00  0.00    +0.054 C 
ATOM     13  C   UNL     1       9.659   8.848   6.500  0.00  0.00    +0.018 C 
ATOM     14  C   UNL     1       9.356   6.357   6.691  0.00  0.00    +0.113 C 
ATOM     15  C   UNL     1      11.563   7.469   7.311  0.00  0.00    +0.130 C 
ATOM     16  C   UNL     1       9.400   7.422   4.454  0.00  0.00    +0.117 C 
ATOM     17  C   UNL     1      11.628   8.423   5.000  0.00  0.00    +0.027 A 
ATOM     18  C   UNL     1      12.323   8.813   3.916  0.00  0.00    +0.024 A 
ATOM     19  C   UNL     1      13.661   7.521   6.046  0.00  0.00    +0.274 A 
ATOM     20  C   UNL     1       9.960   4.959   4.744  0.00  0.00    +0.253 C 
ATOM     21  C   UNL     1      14.369   7.953   4.815  0.00  0.00    +0.112 A 
ATOM     22  C   UNL     1      13.738   8.571   3.816  0.00  0.00    +0.031 A 
ENDROOT
BRANCH  21  10
ATOM     10  N   UNL     1      15.749   7.729   4.676  0.00  0.00    -0.211 N 
ATOM     36  H   UNL     1      15.971   7.202   3.819  0.00  0.00    +0.174 HD
BRANCH  10   1
ATOM      1  S   UNL     1      16.742   9.102   4.862  0.00  0.00    +0.073 S 
ATOM      6  O   UNL     1      16.899   9.776   3.587  0.00  0.00    -0.150 OA
ATOM      7  O   UNL     1      16.337   9.819   6.056  0.00  0.00    -0.150 OA
BRANCH   1  24
ATOM      2  F   UNL     1      20.737   8.486   7.959  0.00  0.00    -0.205 F 
ATOM     24  C   UNL     1      18.396   8.506   5.222  0.00  0.00    +0.111 A 
ATOM     26  C   UNL     1      18.912   8.740   6.470  0.00  0.00    +0.067 A 
ATOM     27  C   UNL     1      19.076   7.842   4.233  0.00  0.00    +0.029 A 
ATOM     30  C   UNL     1      20.198   8.277   6.750  0.00  0.00    +0.125 A 
ATOM     31  C   UNL     1      20.362   7.380   4.513  0.00  0.00    +0.005 A 
ATOM     32  C   UNL     1      20.923   7.598   5.772  0.00  0.00    +0.038 A 
ENDBRANCH   1  24
ENDBRANCH  10   1
ENDBRANCH  21  10
BRANCH  20  23
ATOM     23  C   UNL     1      10.123   4.863   3.248  0.00  0.00    +0.324 C 
BRANCH  23   5
ATOM      5  O   UNL     1      11.264   4.073   3.018  0.00  0.00    -0.483 OA
BRANCH   5  25
ATOM     25  C   UNL     1      11.668   3.910   1.712  0.00  0.00    +0.121 A 
ATOM     28  C   UNL     1      10.819   4.292   0.684  0.00  0.00    +0.045 A 
ATOM     29  C   UNL     1      12.916   3.368   1.447  0.00  0.00    +0.045 A 
ATOM     33  C   UNL     1      11.229   4.128  -0.640  0.00  0.00    +0.004 A 
ATOM     34  C   UNL     1      13.326   3.204   0.124  0.00  0.00    +0.004 A 
ATOM     35  C   UNL     1      12.482   3.584  -0.920  0.00  0.00    +0.000 A 
ENDBRANCH   5  25
ENDBRANCH  23   5
ENDBRANCH  20  23
TORSDOF 6
ENDMDL
MODEL 6
REMARK VINA RESULT:      -7.2     28.095     29.553
REMARK  Name = 7051458
REMARK  6 active torsions:
REMARK  status: ('A' for Active; 'I' for Inactive)
REMARK    1  A    between atoms: S_1  and  N_10
REMARK    2  A    between atoms: S_1  and  C_24
REMARK    3  A    between atoms: O_5  and  C_23
REMARK    4  A    between atoms: O_5  and  C_25
REMARK    5  A    between atoms: N_10  and  C_21
REMARK    6  A    between atoms: C_20  and  C_23
REMARK                            x       y       z     vdW  Elec       q    Type
REMARK                         _______ _______ _______ _____ _____    ______ ____
ROOT
ATOM      3  O   UNL     1      -4.603 -12.762   9.802  0.00  0.00    -0.266 OA
ATOM      4  O   UNL     1      -5.861 -12.738  15.010  0.00  0.00    -0.272 OA
ATOM      8  N   UNL     1      -3.566 -12.526  14.719  0.00  0.00    -0.298 N 
ATOM      9  N   UNL     1      -3.092 -12.415  11.560  0.00  0.00    -0.310 N 
ATOM     11  C   UNL     1      -2.480 -14.233  13.254  0.00  0.00    +0.027 C 
ATOM     12  C   UNL     1      -1.488 -11.992  13.457  0.00  0.00    +0.054 C 
ATOM     13  C   UNL     1      -1.160 -13.481  13.374  0.00  0.00    +0.018 C 
ATOM     14  C   UNL     1      -3.372 -13.957  14.476  0.00  0.00    +0.113 C 
ATOM     15  C   UNL     1      -3.162 -13.832  11.940  0.00  0.00    +0.130 C 
ATOM     16  C   UNL     1      -2.337 -11.719  14.716  0.00  0.00    +0.117 C 
ATOM     17  C   UNL     1      -2.235 -11.525  12.222  0.00  0.00    +0.027 A 
ATOM     18  C   UNL     1      -2.097 -10.260  11.785  0.00  0.00    +0.024 A 
ATOM     19  C   UNL     1      -3.847 -12.024  10.434  0.00  0.00    +0.274 A 
ATOM     20  C   UNL     1      -4.841 -12.044  15.014  0.00  0.00    +0.253 C 
ATOM     21  C   UNL     1      -3.670 -10.611  10.015  0.00  0.00    +0.112 A 
ATOM     22  C   UNL     1      -2.837  -9.784  10.647  0.00  0.00    +0.031 A 
ENDROOT
BRANCH  21  10
ATOM     10  N   UNL     1      -4.380 -10.105   8.913  0.00  0.00    -0.211 N 
ATOM     36  H   UNL     1      -4.482 -10.805   8.164  0.00  0.00    +0.174 HD
BRANCH  10   1
ATOM      1  S   UNL     1      -5.856  -9.334   9.277  0.00  0.00    +0.073 S 
ATOM      6  O   UNL     1      -6.776 -10.283   9.878  0.00  0.00    -0.150 OA
ATOM      7  O   UNL     1      -5.579  -8.050   9.894  0.00  0.00    -0.150 OA
BRANCH   1  24
ATOM      2  F   UNL     1      -9.141  -6.685   6.428  0.00  0.00    -0.205 F 
ATOM     24  C   UNL     1      -6.638  -8.933   7.713  0.00  0.00    +0.111 A 
ATOM     26  C   UNL     1      -7.595  -7.951   7.699  0.00  0.00    +0.067 A 
ATOM     27  C   UNL     1      -6.247  -9.626   6.596  0.00  0.00    +0.029 A 
ATOM     30  C   UNL     1      -8.202  -7.639   6.482  0.00  0.00    +0.125 A 
ATOM     31  C   UNL     1      -6.855  -9.314   5.380  0.00  0.00    +0.005 A 
ATOM     32  C   UNL     1      -7.833  -8.321   5.324  0.00  0.00    +0.038 A 
ENDBRANCH   1  24
ENDBRANCH  10   1
ENDBRANCH  21  10
BRANCH  20  23
ATOM     23  C   UNL     1      -4.949 -10.576  15.344  0.00  0.00    +0.324 C 
BRANCH  23   5
ATOM      5  O   UNL     1      -4.537 -10.434  16.681  0.00  0.00    -0.483 OA
BRANCH   5  25
ATOM     25  C   UNL     1      -5.494 -10.599  17.658  0.00  0.00    +0.121 A 
ATOM     28  C   UNL     1      -5.133 -11.150  18.879  0.00  0.00    +0.045 A 
ATOM     29  C   UNL     1      -6.800 -10.210  17.405  0.00  0.00    +0.045 A 
ATOM     33  C   UNL     1      -6.102 -11.317  19.868  0.00  0.00    +0.004 A 
ATOM     34  C   UNL     1      -7.769 -10.377  18.395  0.00  0.00    +0.004 A 
ATOM     35  C   UNL     1      -7.419 -10.930  19.627  0.00  0.00    +0.000 A 
ENDBRANCH   5  25
ENDBRANCH  23   5
ENDBRANCH  20  23
TORSDOF 6
ENDMDL
MODEL 7
REMARK VINA RESULT:      -7.2     15.299     19.942
REMARK  Name = 7051458
REMARK  6 active torsions:
REMARK  status: ('A' for Active; 'I' for Inactive)
REMARK    1  A    between atoms: S_1  and  N_10
REMARK    2  A    between atoms: S_1  and  C_24
REMARK    3  A    between atoms: O_5  and  C_23
REMARK    4  A    between atoms: O_5  and  C_25
REMARK    5  A    between atoms: N_10  and  C_21
REMARK    6  A    between atoms: C_20  and  C_23
REMARK                            x       y       z     vdW  Elec       q    Type
REMARK                         _______ _______ _______ _____ _____    ______ ____
ROOT
ATOM      3  O   UNL     1       9.651   6.979   2.579  0.00  0.00    -0.266 OA
ATOM      4  O   UNL     1       9.341   4.383  -2.097  0.00  0.00    -0.272 OA
ATOM      8  N   UNL     1      10.681   6.270  -2.293  0.00  0.00    -0.298 N 
ATOM      9  N   UNL     1      10.828   7.546   0.634  0.00  0.00    -0.310 N 
ATOM     11  C   UNL     1       9.687   8.415  -1.486  0.00  0.00    +0.027 C 
ATOM     12  C   UNL     1      12.128   8.112  -1.451  0.00  0.00    +0.054 C 
ATOM     13  C   UNL     1      11.015   9.116  -1.745  0.00  0.00    +0.018 C 
ATOM     14  C   UNL     1       9.540   7.183  -2.395  0.00  0.00    +0.113 C 
ATOM     15  C   UNL     1       9.602   8.048   0.001  0.00  0.00    +0.130 C 
ATOM     16  C   UNL     1      12.002   6.907  -2.404  0.00  0.00    +0.117 C 
ATOM     17  C   UNL     1      12.070   7.637  -0.010  0.00  0.00    +0.027 A 
ATOM     18  C   UNL     1      13.197   7.279   0.630  0.00  0.00    +0.024 A 
ATOM     19  C   UNL     1      10.709   7.068   1.956  0.00  0.00    +0.274 A 
ATOM     20  C   UNL     1      10.459   4.897  -2.190  0.00  0.00    +0.253 C 
ATOM     21  C   UNL     1      11.985   6.667   2.601  0.00  0.00    +0.112 A 
ATOM     22  C   UNL     1      13.158   6.777   1.977  0.00  0.00    +0.031 A 
ENDROOT
BRANCH  21  10
ATOM     10  N   UNL     1      11.987   6.165   3.913  0.00  0.00    -0.211 N 
ATOM     36  H   UNL     1      12.608   5.349   4.014  0.00  0.00    +0.174 HD
BRANCH  10   1
ATOM      1  S   UNL     1      12.235   7.318   5.144  0.00  0.00    +0.073 S 
ATOM      6  O   UNL     1      13.422   6.979   5.908  0.00  0.00    -0.150 OA
ATOM      7  O   UNL     1      12.040   8.646   4.593  0.00  0.00    -0.150 OA
BRANCH   1  24
ATOM      2  F   UNL     1      10.276   5.385   9.427  0.00  0.00    -0.205 F 
ATOM     24  C   UNL     1      10.906   7.112   6.330  0.00  0.00    +0.111 A 
ATOM     26  C   UNL     1      11.129   6.316   7.424  0.00  0.00    +0.067 A 
ATOM     27  C   UNL     1       9.719   7.759   6.094  0.00  0.00    +0.029 A 
ATOM     30  C   UNL     1      10.095   6.155   8.346  0.00  0.00    +0.125 A 
ATOM     31  C   UNL     1       8.686   7.599   7.017  0.00  0.00    +0.005 A 
ATOM     32  C   UNL     1       8.874   6.797   8.142  0.00  0.00    +0.038 A 
ENDBRANCH   1  24
ENDBRANCH  10   1
ENDBRANCH  21  10
BRANCH  20  23
ATOM     23  C   UNL     1      11.680   4.013  -2.184  0.00  0.00    +0.324 C 
BRANCH  23   5
ATOM      5  O   UNL     1      11.792   3.491  -0.883  0.00  0.00    -0.483 OA
BRANCH   5  25
ATOM     25  C   UNL     1      13.015   3.603  -0.260  0.00  0.00    +0.121 A 
ATOM     28  C   UNL     1      13.131   3.264   1.080  0.00  0.00    +0.045 A 
ATOM     29  C   UNL     1      14.109   4.054  -0.982  0.00  0.00    +0.045 A 
ATOM     33  C   UNL     1      14.369   3.378   1.711  0.00  0.00    +0.004 A 
ATOM     34  C   UNL     1      15.348   4.168  -0.351  0.00  0.00    +0.004 A 
ATOM     35  C   UNL     1      15.478   3.829   0.996  0.00  0.00    +0.000 A 
ENDBRANCH   5  25
ENDBRANCH  23   5
ENDBRANCH  20  23
TORSDOF 6
ENDMDL
MODEL 8
REMARK VINA RESULT:      -7.2      9.060     11.151
REMARK  Name = 7051458
REMARK  6 active torsions:
REMARK  status: ('A' for Active; 'I' for Inactive)
REMARK    1  A    between atoms: S_1  and  N_10
REMARK    2  A    between atoms: S_1  and  C_24
REMARK    3  A    between atoms: O_5  and  C_23
REMARK    4  A    between atoms: O_5  and  C_25
REMARK    5  A    between atoms: N_10  and  C_21
REMARK    6  A    between atoms: C_20  and  C_23
REMARK                            x       y       z     vdW  Elec       q    Type
REMARK                         _______ _______ _______ _____ _____    ______ ____
ROOT
ATOM      3  O   UNL     1      20.886   4.066  20.358  0.00  0.00    -0.266 OA
ATOM      4  O   UNL     1      22.191   2.287  25.241  0.00  0.00    -0.272 OA
ATOM      8  N   UNL     1      24.098   2.748  23.998  0.00  0.00    -0.298 N 
ATOM      9  N   UNL     1      23.064   3.924  21.212  0.00  0.00    -0.310 N 
ATOM     11  C   UNL     1      24.217   1.699  21.734  0.00  0.00    +0.027 C 
ATOM     12  C   UNL     1      25.396   3.815  22.162  0.00  0.00    +0.054 C 
ATOM     13  C   UNL     1      25.506   2.464  21.459  0.00  0.00    +0.018 C 
ATOM     14  C   UNL     1      24.023   1.493  23.246  0.00  0.00    +0.113 C 
ATOM     15  C   UNL     1      23.045   2.460  21.100  0.00  0.00    +0.130 C 
ATOM     16  C   UNL     1      25.256   3.597  23.682  0.00  0.00    +0.117 C 
ATOM     17  C   UNL     1      24.209   4.606  21.644  0.00  0.00    +0.027 A 
ATOM     18  C   UNL     1      24.248   5.951  21.629  0.00  0.00    +0.024 A 
ATOM     19  C   UNL     1      21.914   4.608  20.764  0.00  0.00    +0.274 A 
ATOM     20  C   UNL     1      23.157   3.013  24.992  0.00  0.00    +0.253 C 
ATOM     21  C   UNL     1      22.009   6.089  20.793  0.00  0.00    +0.112 A 
ATOM     22  C   UNL     1      23.114   6.720  21.191  0.00  0.00    +0.031 A 
ENDROOT
BRANCH  21  10
ATOM     10  N   UNL     1      20.920   6.876  20.380  0.00  0.00    -0.211 N 
ATOM     36  H   UNL     1      20.486   6.515  19.519  0.00  0.00    +0.174 HD
BRANCH  10   1
ATOM      1  S   UNL     1      19.765   7.226  21.584  0.00  0.00    +0.073 S 
ATOM      6  O   UNL     1      19.851   6.247  22.652  0.00  0.00    -0.150 OA
ATOM      7  O   UNL     1      19.784   8.651  21.857  0.00  0.00    -0.150 OA
BRANCH   1  24
ATOM      2  F   UNL     1      16.737   5.422  17.910  0.00  0.00    -0.205 F 
ATOM     24  C   UNL     1      18.151   6.916  20.867  0.00  0.00    +0.111 A 
ATOM     26  C   UNL     1      18.091   6.281  19.652  0.00  0.00    +0.067 A 
ATOM     27  C   UNL     1      17.041   7.327  21.561  0.00  0.00    +0.029 A 
ATOM     30  C   UNL     1      16.836   6.040  19.094  0.00  0.00    +0.125 A 
ATOM     31  C   UNL     1      15.786   7.086  21.003  0.00  0.00    +0.005 A 
ATOM     32  C   UNL     1      15.684   6.443  19.769  0.00  0.00    +0.038 A 
ENDBRANCH   1  24
ENDBRANCH  10   1
ENDBRANCH  21  10
BRANCH  20  23
ATOM     23  C   UNL     1      23.352   4.279  25.788  0.00  0.00    +0.324 C 
BRANCH  23   5
ATOM      5  O   UNL     1      22.067   4.760  26.100  0.00  0.00    -0.483 OA
BRANCH   5  25
ATOM     25  C   UNL     1      21.786   6.068  25.778  0.00  0.00    +0.121 A 
ATOM     28  C   UNL     1      20.690   6.692  26.356  0.00  0.00    +0.045 A 
ATOM     29  C   UNL     1      22.603   6.740  24.882  0.00  0.00    +0.045 A 
ATOM     33  C   UNL     1      20.405   8.018  26.029  0.00  0.00    +0.004 A 
ATOM     34  C   UNL     1      22.319   8.066  24.556  0.00  0.00    +0.004 A 
ATOM     35  C   UNL     1      21.219   8.705  25.130  0.00  0.00    +0.000 A 
ENDBRANCH   5  25
ENDBRANCH  23   5
ENDBRANCH  20  23
TORSDOF 6
ENDMDL
MODEL 9
REMARK VINA RESULT:      -7.0     28.518     31.730
REMARK  Name = 7051458
REMARK  6 active torsions:
REMARK  status: ('A' for Active; 'I' for Inactive)
REMARK    1  A    between atoms: S_1  and  N_10
REMARK    2  A    between atoms: S_1  and  C_24
REMARK    3  A    between atoms: O_5  and  C_23
REMARK    4  A    between atoms: O_5  and  C_25
REMARK    5  A    between atoms: N_10  and  C_21
REMARK    6  A    between atoms: C_20  and  C_23
REMARK                            x       y       z     vdW  Elec       q    Type
REMARK                         _______ _______ _______ _____ _____    ______ ____
ROOT
ATOM      3  O   UNL     1     -15.975   1.708  25.040  0.00  0.00    -0.266 OA
ATOM      4  O   UNL     1     -14.722   4.996  21.000  0.00  0.00    -0.272 OA
ATOM      8  N   UNL     1     -16.872   5.423  21.769  0.00  0.00    -0.298 N 
ATOM      9  N   UNL     1     -17.319   3.456  24.249  0.00  0.00    -0.310 N 
ATOM     11  C   UNL     1     -18.396   3.450  21.927  0.00  0.00    +0.027 C 
ATOM     12  C   UNL     1     -18.732   5.374  23.422  0.00  0.00    +0.054 C 
ATOM     13  C   UNL     1     -19.457   4.335  22.570  0.00  0.00    +0.018 C 
ATOM     14  C   UNL     1     -17.454   4.289  21.047  0.00  0.00    +0.113 C 
ATOM     15  C   UNL     1     -17.639   2.701  23.031  0.00  0.00    +0.130 C 
ATOM     16  C   UNL     1     -17.832   6.244  22.522  0.00  0.00    +0.117 C 
ATOM     17  C   UNL     1     -17.894   4.710  24.499  0.00  0.00    +0.027 A 
ATOM     18  C   UNL     1     -17.681   5.335  25.672  0.00  0.00    +0.024 A 
ATOM     19  C   UNL     1     -16.494   2.813  25.195  0.00  0.00    +0.274 A 
ATOM     20  C   UNL     1     -15.511   5.699  21.636  0.00  0.00    +0.253 C 
ATOM     21  C   UNL     1     -16.278   3.562  26.459  0.00  0.00    +0.112 A 
ATOM     22  C   UNL     1     -16.847   4.746  26.685  0.00  0.00    +0.031 A 
ENDROOT
BRANCH  21  10
ATOM     10  N   UNL     1     -15.464   3.024  27.470  0.00  0.00    -0.211 N 
ATOM     36  H   UNL     1     -14.866   3.740  27.906  0.00  0.00    +0.174 HD
BRANCH  10   1
ATOM      1  S   UNL     1     -16.265   2.062  28.627  0.00  0.00    +0.073 S 
ATOM      6  O   UNL     1     -17.619   2.547  28.823  0.00  0.00    -0.150 OA
ATOM      7  O   UNL     1     -15.990   0.665  28.351  0.00  0.00    -0.150 OA
BRANCH   1  24
ATOM      2  F   UNL     1     -14.638   0.609  33.228  0.00  0.00    -0.205 F 
ATOM     24  C   UNL     1     -15.478   2.382  30.207  0.00  0.00    +0.111 A 
ATOM     26  C   UNL     1     -15.372   1.346  31.101  0.00  0.00    +0.067 A 
ATOM     27  C   UNL     1     -15.015   3.649  30.458  0.00  0.00    +0.029 A 
ATOM     30  C   UNL     1     -14.760   1.595  32.330  0.00  0.00    +0.125 A 
ATOM     31  C   UNL     1     -14.404   3.896  31.687  0.00  0.00    +0.005 A 
ATOM     32  C   UNL     1     -14.277   2.869  32.623  0.00  0.00    +0.038 A 
ENDBRANCH   1  24
ENDBRANCH  10   1
ENDBRANCH  21  10
BRANCH  20  23
ATOM     23  C   UNL     1     -15.001   6.936  22.333  0.00  0.00    +0.324 C 
BRANCH  23   5
ATOM      5  O   UNL     1     -13.599   6.827  22.369  0.00  0.00    -0.483 OA
BRANCH   5  25
ATOM     25  C   UNL     1     -12.882   7.611  21.493  0.00  0.00    +0.121 A 
ATOM     28  C   UNL     1     -11.926   7.023  20.678  0.00  0.00    +0.045 A 
ATOM     29  C   UNL     1     -13.127   8.974  21.442  0.00  0.00    +0.045 A 
ATOM     33  C   UNL     1     -11.200   7.817  19.791  0.00  0.00    +0.004 A 
ATOM     34  C   UNL     1     -12.400   9.769  20.555  0.00  0.00    +0.004 A 
ATOM     35  C   UNL     1     -11.437   9.190  19.729  0.00  0.00    +0.000 A 
ENDBRANCH   5  25
ENDBRANCH  23   5
ENDBRANCH  20  23
TORSDOF 6
ENDMDL
MODEL 10
REMARK VINA RESULT:      -7.0     28.584     29.932
REMARK  Name = 7051458
REMARK  6 active torsions:
REMARK  status: ('A' for Active; 'I' for Inactive)
REMARK    1  A    between atoms: S_1  and  N_10
REMARK    2  A    between atoms: S_1  and  C_24
REMARK    3  A    between atoms: O_5  and  C_23
REMARK    4  A    between atoms: O_5  and  C_25
REMARK    5  A    between atoms: N_10  and  C_21
REMARK    6  A    between atoms: C_20  and  C_23
REMARK                            x       y       z     vdW  Elec       q    Type
REMARK                         _______ _______ _______ _____ _____    ______ ____
ROOT
ATOM      3  O   UNL     1      -6.306 -13.893  15.033  0.00  0.00    -0.266 OA
ATOM      4  O   UNL     1      -9.972 -10.715  17.307  0.00  0.00    -0.272 OA
ATOM      8  N   UNL     1      -7.910 -10.464  18.346  0.00  0.00    -0.298 N 
ATOM      9  N   UNL     1      -5.882 -12.331  16.728  0.00  0.00    -0.310 N 
ATOM     11  C   UNL     1      -6.797 -12.567  19.106  0.00  0.00    +0.027 C 
ATOM     12  C   UNL     1      -5.430 -10.609  18.514  0.00  0.00    +0.054 C 
ATOM     13  C   UNL     1      -5.569 -11.759  19.509  0.00  0.00    +0.018 C 
ATOM     14  C   UNL     1      -8.057 -11.686  19.139  0.00  0.00    +0.113 C 
ATOM     15  C   UNL     1      -6.555 -13.177  17.720  0.00  0.00    +0.130 C 
ATOM     16  C   UNL     1      -6.676  -9.703  18.594  0.00  0.00    +0.117 C 
ATOM     17  C   UNL     1      -5.263 -11.128  17.098  0.00  0.00    +0.027 A 
ATOM     18  C   UNL     1      -4.551 -10.424  16.199  0.00  0.00    +0.024 A 
ATOM     19  C   UNL     1      -5.798 -12.838  15.414  0.00  0.00    +0.274 A 
ATOM     20  C   UNL     1      -8.944 -10.061  17.502  0.00  0.00    +0.253 C 
ATOM     21  C   UNL     1      -5.019 -12.005  14.463  0.00  0.00    +0.112 A 
ATOM     22  C   UNL     1      -4.424 -10.873  14.839  0.00  0.00    +0.031 A 
ENDROOT
BRANCH  21  10
ATOM     10  N   UNL     1      -4.878 -12.405  13.124  0.00  0.00    -0.211 N 
ATOM     36  H   UNL     1      -4.755 -13.423  13.035  0.00  0.00    +0.174 HD
BRANCH  10   1
ATOM      1  S   UNL     1      -6.054 -11.802  12.046  0.00  0.00    +0.073 S 
ATOM      6  O   UNL     1      -6.483 -12.854  11.144  0.00  0.00    -0.150 OA
ATOM      7  O   UNL     1      -7.009 -11.001  12.789  0.00  0.00    -0.150 OA
BRANCH   1  24
ATOM      2  F   UNL     1      -1.947  -9.213  10.512  0.00  0.00    -0.205 F 
ATOM     24  C   UNL     1      -5.223 -10.639  10.962  0.00  0.00    +0.111 A 
ATOM     26  C   UNL     1      -3.892 -10.388  11.177  0.00  0.00    +0.067 A 
ATOM     27  C   UNL     1      -5.954 -10.048   9.962  0.00  0.00    +0.029 A 
ATOM     30  C   UNL     1      -3.247  -9.484  10.334  0.00  0.00    +0.125 A 
ATOM     31  C   UNL     1      -5.307  -9.144   9.120  0.00  0.00    +0.005 A 
ATOM     32  C   UNL     1      -3.954  -8.862   9.306  0.00  0.00    +0.038 A 
ENDBRANCH   1  24
ENDBRANCH  10   1
ENDBRANCH  21  10
BRANCH  20  23
ATOM     23  C   UNL     1      -8.761  -8.745  16.789  0.00  0.00    +0.324 C 
BRANCH  23   5
ATOM      5  O   UNL     1      -9.852  -7.936  17.153  0.00  0.00    -0.483 OA
BRANCH   5  25
ATOM     25  C   UNL     1     -10.679  -7.496  16.143  0.00  0.00    +0.121 A 
ATOM     28  C   UNL     1     -11.282  -6.252  16.250  0.00  0.00    +0.045 A 
ATOM     29  C   UNL     1     -10.893  -8.305  15.038  0.00  0.00    +0.045 A 
ATOM     33  C   UNL     1     -12.120  -5.807  15.226  0.00  0.00    +0.004 A 
ATOM     34  C   UNL     1     -11.730  -7.860  14.015  0.00  0.00    +0.004 A 
ATOM     35  C   UNL     1     -12.343  -6.611  14.109  0.00  0.00    +0.000 A 
ENDBRANCH   5  25
ENDBRANCH  23   5
ENDBRANCH  20  23
TORSDOF 6
ENDMDL
