MODEL 1
REMARK VINA RESULT:      -6.6      0.000      0.000
REMARK  Name = 7134988
REMARK  11 active torsions:
REMARK  status: ('A' for Active; 'I' for Inactive)
REMARK    1  A    between atoms: O_2  and  C_15
REMARK    2  A    between atoms: O_3  and  C_20
REMARK    3  A    between atoms: O_6  and  C_38
REMARK    4  A    between atoms: O_6  and  C_39
REMARK    5  A    between atoms: C_10  and  C_18
REMARK    6  A    between atoms: C_12  and  C_20
REMARK    7  A    between atoms: C_12  and  C_21
REMARK    8  A    between atoms: C_13  and  C_23
REMARK    9  A    between atoms: C_23  and  C_24
REMARK   10  A    between atoms: C_30  and  C_31
REMARK   11  A    between atoms: C_32  and  C_33
REMARK                            x       y       z     vdW  Elec       q    Type
REMARK                         _______ _______ _______ _____ _____    ______ ____
ROOT
ATOM      1  S   UNL     1      -4.105  -9.668   9.898  0.00  0.00    -0.057 S 
ATOM      5  O   UNL     1      -8.646  -9.056   9.076  0.00  0.00    -0.270 OA
ATOM      7  N   UNL     1      -6.469  -9.774  10.945  0.00  0.00    -0.229 NA
ATOM      9  N   UNL     1      -6.333  -9.121   8.628  0.00  0.00    -0.261 N 
ATOM     10  C   UNL     1      -4.854 -11.240  14.125  0.00  0.00    -0.019 C 
ATOM     11  C   UNL     1      -3.494 -10.443  13.896  0.00  0.00    +0.011 C 
ATOM     12  C   UNL     1      -2.310 -10.747  14.893  0.00  0.00    +0.021 C 
ATOM     13  C   UNL     1      -6.009 -10.482  13.322  0.00  0.00    +0.054 C 
ATOM     14  C   UNL     1      -5.214 -11.222  15.633  0.00  0.00    +0.010 C 
ATOM     15  C   UNL     1      -2.853 -10.736  16.351  0.00  0.00    +0.123 C 
ATOM     16  C   UNL     1      -3.071 -10.458  12.398  0.00  0.00    +0.049 C 
ATOM     17  C   UNL     1      -4.068 -11.635  16.546  0.00  0.00    +0.032 C 
ATOM     18  C   UNL     1      -4.776 -12.711  13.649  0.00  0.00    +0.012 C 
ATOM     19  C   UNL     1      -5.563 -10.140  11.923  0.00  0.00    +0.058 A 
ATOM     21  C   UNL     1      -1.252  -9.612  14.785  0.00  0.00    +0.016 C 
ATOM     22  C   UNL     1      -4.239 -10.117  11.535  0.00  0.00    +0.015 A 
ATOM     25  C   UNL     1      -5.814  -9.510   9.834  0.00  0.00    +0.165 A 
ATOM     32  C   UNL     1      -7.689  -8.920   8.322  0.00  0.00    +0.250 C 
ATOM     42  H   UNL     1      -5.626  -8.934   7.925  0.00  0.00    +0.157 HD
ENDROOT
BRANCH  32  33
ATOM     33  C   UNL     1      -7.967  -8.466   6.933  0.00  0.00    +0.037 A 
ATOM     34  C   UNL     1      -9.099  -7.695   6.667  0.00  0.00    +0.016 A 
ATOM     35  C   UNL     1      -7.097  -8.809   5.900  0.00  0.00    +0.016 A 
ATOM     36  C   UNL     1      -9.360  -7.269   5.364  0.00  0.00    +0.046 A 
ATOM     37  C   UNL     1      -7.358  -8.383   4.597  0.00  0.00    +0.046 A 
ATOM     38  C   UNL     1      -8.489  -7.613   4.330  0.00  0.00    +0.120 A 
BRANCH  38   6
ATOM      6  O   UNL     1      -8.743  -7.194   3.060  0.00  0.00    -0.495 OA
ATOM     39  C   UNL     1      -8.082  -7.888   2.004  0.00  0.00    +0.277 C 
ENDBRANCH  38   6
ENDBRANCH  32  33
BRANCH  15   2
ATOM      2  O   UNL     1      -1.834 -11.135  17.268  0.00  0.00    -0.391 OA
ATOM     40  H   UNL     1      -2.168 -11.903  17.763  0.00  0.00    +0.210 HD
ENDBRANCH  15   2
BRANCH  12  20
ATOM     20  C   UNL     1      -1.545 -12.056  14.599  0.00  0.00    +0.165 C 
BRANCH  20   3
ATOM      3  O   UNL     1      -0.281 -11.965  15.219  0.00  0.00    -0.394 OA
ATOM     41  H   UNL     1      -0.092 -11.020  15.352  0.00  0.00    +0.209 HD
ENDBRANCH  20   3
ENDBRANCH  12  20
BRANCH  13  23
ATOM     23  C   UNL     1      -7.363 -11.205  13.319  0.00  0.00    +0.106 C 
BRANCH  23  24
ATOM      4  O   UNL     1      -8.654  -9.231  13.547  0.00  0.00    -0.276 OA
ATOM      8  N   UNL     1      -9.016 -10.894  15.128  0.00  0.00    -0.301 N 
ATOM     24  C   UNL     1      -8.401 -10.351  14.002  0.00  0.00    +0.216 C 
ATOM     26  C   UNL     1      -8.737 -12.221  15.691  0.00  0.00    +0.108 C 
ATOM     27  C   UNL     1     -10.062 -10.143  15.823  0.00  0.00    +0.108 C 
ATOM     28  C   UNL     1      -8.380 -12.115  17.173  0.00  0.00    +0.022 C 
ATOM     29  C   UNL     1      -9.731  -9.993  17.306  0.00  0.00    +0.022 C 
ATOM     30  C   UNL     1      -9.463 -11.358  17.956  0.00  0.00    -0.011 C 
ATOM     31  C   UNL     1      -9.062 -11.195  19.420  0.00  0.00    +0.007 C 
ENDBRANCH  23  24
ENDBRANCH  13  23
TORSDOF 7
ENDMDL
MODEL 2
REMARK VINA RESULT:      -6.4      2.704      4.168
REMARK  Name = 7134988
REMARK  11 active torsions:
REMARK  status: ('A' for Active; 'I' for Inactive)
REMARK    1  A    between atoms: O_2  and  C_15
REMARK    2  A    between atoms: O_3  and  C_20
REMARK    3  A    between atoms: O_6  and  C_38
REMARK    4  A    between atoms: O_6  and  C_39
REMARK    5  A    between atoms: C_10  and  C_18
REMARK    6  A    between atoms: C_12  and  C_20
REMARK    7  A    between atoms: C_12  and  C_21
REMARK    8  A    between atoms: C_13  and  C_23
REMARK    9  A    between atoms: C_23  and  C_24
REMARK   10  A    between atoms: C_30  and  C_31
REMARK   11  A    between atoms: C_32  and  C_33
REMARK                            x       y       z     vdW  Elec       q    Type
REMARK                         _______ _______ _______ _____ _____    ______ ____
ROOT
ATOM      1  S   UNL     1      -5.708 -10.970  12.491  0.00  0.00    -0.057 S 
ATOM      5  O   UNL     1      -8.925  -8.356  10.373  0.00  0.00    -0.270 OA
ATOM      7  N   UNL     1      -7.837  -9.545  12.853  0.00  0.00    -0.229 NA
ATOM      9  N   UNL     1      -7.021  -9.728  10.592  0.00  0.00    -0.261 N 
ATOM     10  C   UNL     1      -7.819 -10.686  16.537  0.00  0.00    -0.019 C 
ATOM     11  C   UNL     1      -6.231 -10.806  16.573  0.00  0.00    +0.011 C 
ATOM     12  C   UNL     1      -5.587 -11.388  17.891  0.00  0.00    +0.021 C 
ATOM     13  C   UNL     1      -8.210  -9.698  15.343  0.00  0.00    +0.054 C 
ATOM     14  C   UNL     1      -8.320 -10.068  17.867  0.00  0.00    +0.010 C 
ATOM     15  C   UNL     1      -6.233 -10.695  19.125  0.00  0.00    +0.123 C 
ATOM     16  C   UNL     1      -5.680 -11.452  15.268  0.00  0.00    +0.049 C 
ATOM     17  C   UNL     1      -7.757 -10.742  19.111  0.00  0.00    +0.032 C 
ATOM     18  C   UNL     1      -8.521 -12.050  16.326  0.00  0.00    +0.012 C 
ATOM     19  C   UNL     1      -7.452 -10.039  14.086  0.00  0.00    +0.058 A 
ATOM     21  C   UNL     1      -4.071 -11.045  17.908  0.00  0.00    +0.016 C 
ATOM     22  C   UNL     1      -6.309 -10.812  14.077  0.00  0.00    +0.015 A 
ATOM     25  C   UNL     1      -6.995  -9.977  11.938  0.00  0.00    +0.165 A 
ATOM     32  C   UNL     1      -7.962  -8.949   9.899  0.00  0.00    +0.250 C 
ATOM     42  H   UNL     1      -6.239 -10.137  10.090  0.00  0.00    +0.157 HD
ENDROOT
BRANCH  32  33
ATOM     33  C   UNL     1      -7.729  -8.822   8.436  0.00  0.00    +0.037 A 
ATOM     34  C   UNL     1      -6.819  -9.667   7.800  0.00  0.00    +0.016 A 
ATOM     35  C   UNL     1      -8.421  -7.861   7.700  0.00  0.00    +0.016 A 
ATOM     36  C   UNL     1      -6.601  -9.548   6.427  0.00  0.00    +0.046 A 
ATOM     37  C   UNL     1      -8.203  -7.742   6.327  0.00  0.00    +0.046 A 
ATOM     38  C   UNL     1      -7.293  -8.585   5.691  0.00  0.00    +0.120 A 
BRANCH  38   6
ATOM      6  O   UNL     1      -7.082  -8.472   4.351  0.00  0.00    -0.495 OA
ATOM     39  C   UNL     1      -8.186  -8.047   3.554  0.00  0.00    +0.277 C 
ENDBRANCH  38   6
ENDBRANCH  32  33
BRANCH  15   2
ATOM      2  O   UNL     1      -5.766 -11.290  20.335  0.00  0.00    -0.391 OA
ATOM     40  H   UNL     1      -6.488 -11.240  20.985  0.00  0.00    +0.210 HD
ENDBRANCH  15   2
BRANCH  12  20
ATOM     20  C   UNL     1      -5.667 -12.925  18.018  0.00  0.00    +0.165 C 
BRANCH  20   3
ATOM      3  O   UNL     1      -4.457 -13.373  18.589  0.00  0.00    -0.394 OA
ATOM     41  H   UNL     1      -4.673 -14.118  19.176  0.00  0.00    +0.209 HD
ENDBRANCH  20   3
ENDBRANCH  12  20
BRANCH  13  23
ATOM     23  C   UNL     1      -9.718  -9.585  15.077  0.00  0.00    +0.106 C 
BRANCH  23  24
ATOM      4  O   UNL     1      -9.655  -7.559  16.305  0.00  0.00    -0.276 OA
ATOM      8  N   UNL     1     -11.218  -7.684  14.591  0.00  0.00    -0.301 N 
ATOM     24  C   UNL     1     -10.188  -8.186  15.384  0.00  0.00    +0.216 C 
ATOM     26  C   UNL     1     -11.871  -8.404  13.490  0.00  0.00    +0.108 C 
ATOM     27  C   UNL     1     -11.703  -6.319  14.801  0.00  0.00    +0.108 C 
ATOM     28  C   UNL     1     -13.386  -8.433  13.686  0.00  0.00    +0.022 C 
ATOM     29  C   UNL     1     -13.213  -6.306  15.026  0.00  0.00    +0.022 C 
ATOM     30  C   UNL     1     -13.951  -7.018  13.882  0.00  0.00    -0.011 C 
ATOM     31  C   UNL     1     -15.453  -7.065  14.149  0.00  0.00    +0.007 C 
ENDBRANCH  23  24
ENDBRANCH  13  23
TORSDOF 7
ENDMDL
MODEL 3
REMARK VINA RESULT:      -6.4     30.480     32.890
REMARK  Name = 7134988
REMARK  11 active torsions:
REMARK  status: ('A' for Active; 'I' for Inactive)
REMARK    1  A    between atoms: O_2  and  C_15
REMARK    2  A    between atoms: O_3  and  C_20
REMARK    3  A    between atoms: O_6  and  C_38
REMARK    4  A    between atoms: O_6  and  C_39
REMARK    5  A    between atoms: C_10  and  C_18
REMARK    6  A    between atoms: C_12  and  C_20
REMARK    7  A    between atoms: C_12  and  C_21
REMARK    8  A    between atoms: C_13  and  C_23
REMARK    9  A    between atoms: C_23  and  C_24
REMARK   10  A    between atoms: C_30  and  C_31
REMARK   11  A    between atoms: C_32  and  C_33
REMARK                            x       y       z     vdW  Elec       q    Type
REMARK                         _______ _______ _______ _____ _____    ______ ____
ROOT
ATOM      1  S   UNL     1      -5.050  11.875  34.534  0.00  0.00    -0.057 S 
ATOM      5  O   UNL     1      -6.542   8.896  37.785  0.00  0.00    -0.270 OA
ATOM      7  N   UNL     1      -4.374  10.562  36.659  0.00  0.00    -0.229 NA
ATOM      9  N   UNL     1      -6.635  10.272  35.874  0.00  0.00    -0.261 N 
ATOM     10  C   UNL     1      -0.766  11.817  36.130  0.00  0.00    -0.019 C 
ATOM     11  C   UNL     1      -1.255  13.178  35.461  0.00  0.00    +0.011 C 
ATOM     12  C   UNL     1      -0.139  14.133  34.885  0.00  0.00    +0.021 C 
ATOM     13  C   UNL     1      -1.970  11.242  37.009  0.00  0.00    +0.054 C 
ATOM     14  C   UNL     1       0.432  12.107  37.071  0.00  0.00    +0.010 C 
ATOM     15  C   UNL     1       1.002  14.276  35.932  0.00  0.00    +0.123 C 
ATOM     16  C   UNL     1      -2.439  12.936  34.480  0.00  0.00    +0.049 C 
ATOM     17  C   UNL     1       1.534  12.937  36.428  0.00  0.00    +0.032 C 
ATOM     18  C   UNL     1      -0.336  10.755  35.090  0.00  0.00    +0.012 C 
ATOM     19  C   UNL     1      -3.268  11.281  36.244  0.00  0.00    +0.058 A 
ATOM     21  C   UNL     1      -0.746  15.548  34.666  0.00  0.00    +0.016 C 
ATOM     22  C   UNL     1      -3.463  12.062  35.123  0.00  0.00    +0.015 A 
ATOM     25  C   UNL     1      -5.369  10.792  35.828  0.00  0.00    +0.165 A 
ATOM     32  C   UNL     1      -7.141   9.374  36.827  0.00  0.00    +0.250 C 
ATOM     42  H   UNL     1      -7.245  10.630  35.146  0.00  0.00    +0.157 HD
ENDROOT
BRANCH  32  33
ATOM     33  C   UNL     1      -8.568   8.995  36.650  0.00  0.00    +0.037 A 
ATOM     34  C   UNL     1      -9.151   8.058  37.503  0.00  0.00    +0.016 A 
ATOM     35  C   UNL     1      -9.324   9.579  35.634  0.00  0.00    +0.016 A 
ATOM     36  C   UNL     1     -10.490   7.703  37.338  0.00  0.00    +0.046 A 
ATOM     37  C   UNL     1     -10.663   9.224  35.469  0.00  0.00    +0.046 A 
ATOM     38  C   UNL     1     -11.245   8.287  36.320  0.00  0.00    +0.120 A 
BRANCH  38   6
ATOM      6  O   UNL     1     -12.553   7.943  36.162  0.00  0.00    -0.495 OA
ATOM     39  C   UNL     1     -13.024   7.783  34.825  0.00  0.00    +0.277 C 
ENDBRANCH  38   6
ENDBRANCH  32  33
BRANCH  15   2
ATOM      2  O   UNL     1       2.088  15.030  35.392  0.00  0.00    -0.391 OA
ATOM     40  H   UNL     1       2.446  14.531  34.638  0.00  0.00    +0.210 HD
ENDBRANCH  15   2
BRANCH  12  20
ATOM     20  C   UNL     1       0.424  13.706  33.511  0.00  0.00    +0.165 C 
BRANCH  20   3
ATOM      3  O   UNL     1       0.778  14.876  32.808  0.00  0.00    -0.394 OA
ATOM     41  H   UNL     1       0.207  15.593  33.134  0.00  0.00    +0.209 HD
ENDBRANCH  20   3
ENDBRANCH  12  20
BRANCH  13  23
ATOM     23  C   UNL     1      -1.714   9.853  37.611  0.00  0.00    +0.106 C 
BRANCH  23  24
ATOM      4  O   UNL     1      -1.630  10.935  39.718  0.00  0.00    -0.276 OA
ATOM      8  N   UNL     1      -2.395   8.741  39.709  0.00  0.00    -0.301 N 
ATOM     24  C   UNL     1      -1.907   9.899  39.105  0.00  0.00    +0.216 C 
ATOM     26  C   UNL     1      -2.733   7.496  39.008  0.00  0.00    +0.108 C 
ATOM     27  C   UNL     1      -2.647   8.720  41.150  0.00  0.00    +0.108 C 
ATOM     28  C   UNL     1      -1.999   6.309  39.629  0.00  0.00    +0.022 C 
ATOM     29  C   UNL     1      -1.910   7.560  41.815  0.00  0.00    +0.022 C 
ATOM     30  C   UNL     1      -2.255   6.223  41.142  0.00  0.00    -0.011 C 
ATOM     31  C   UNL     1      -1.459   5.078  41.764  0.00  0.00    +0.007 C 
ENDBRANCH  23  24
ENDBRANCH  13  23
TORSDOF 7
ENDMDL
MODEL 4
REMARK VINA RESULT:      -6.4     19.534     22.897
REMARK  Name = 7134988
REMARK  11 active torsions:
REMARK  status: ('A' for Active; 'I' for Inactive)
REMARK    1  A    between atoms: O_2  and  C_15
REMARK    2  A    between atoms: O_3  and  C_20
REMARK    3  A    between atoms: O_6  and  C_38
REMARK    4  A    between atoms: O_6  and  C_39
REMARK    5  A    between atoms: C_10  and  C_18
REMARK    6  A    between atoms: C_12  and  C_20
REMARK    7  A    between atoms: C_12  and  C_21
REMARK    8  A    between atoms: C_13  and  C_23
REMARK    9  A    between atoms: C_23  and  C_24
REMARK   10  A    between atoms: C_30  and  C_31
REMARK   11  A    between atoms: C_32  and  C_33
REMARK                            x       y       z     vdW  Elec       q    Type
REMARK                         _______ _______ _______ _____ _____    ______ ____
ROOT
ATOM      1  S   UNL     1     -12.818   5.377  22.345  0.00  0.00    -0.057 S 
ATOM      5  O   UNL     1     -17.264   4.607  23.490  0.00  0.00    -0.270 OA
ATOM      7  N   UNL     1     -15.273   5.952  21.765  0.00  0.00    -0.229 NA
ATOM      9  N   UNL     1     -14.917   4.428  23.599  0.00  0.00    -0.261 N 
ATOM     10  C   UNL     1     -13.935   8.520  19.219  0.00  0.00    -0.019 C 
ATOM     11  C   UNL     1     -12.625   7.663  18.925  0.00  0.00    +0.011 C 
ATOM     12  C   UNL     1     -11.547   8.308  17.971  0.00  0.00    +0.021 C 
ATOM     13  C   UNL     1     -15.043   7.536  19.815  0.00  0.00    +0.054 C 
ATOM     14  C   UNL     1     -14.471   9.113  17.891  0.00  0.00    +0.010 C 
ATOM     15  C   UNL     1     -12.257   8.892  16.717  0.00  0.00    +0.123 C 
ATOM     16  C   UNL     1     -12.028   7.070  20.235  0.00  0.00    +0.049 C 
ATOM     17  C   UNL     1     -13.412   9.826  17.061  0.00  0.00    +0.032 C 
ATOM     18  C   UNL     1     -13.685   9.678  20.216  0.00  0.00    +0.012 C 
ATOM     19  C   UNL     1     -14.463   6.654  20.891  0.00  0.00    +0.058 A 
ATOM     21  C   UNL     1     -10.577   7.196  17.478  0.00  0.00    +0.016 C 
ATOM     22  C   UNL     1     -13.109   6.444  21.050  0.00  0.00    +0.015 A 
ATOM     25  C   UNL     1     -14.515   5.251  22.581  0.00  0.00    +0.165 A 
ATOM     32  C   UNL     1     -16.238   4.157  23.988  0.00  0.00    +0.250 C 
ATOM     42  H   UNL     1     -14.148   3.958  24.066  0.00  0.00    +0.157 HD
ENDROOT
BRANCH  32  33
ATOM     33  C   UNL     1     -16.385   3.195  25.113  0.00  0.00    +0.037 A 
ATOM     34  C   UNL     1     -16.138   3.611  26.422  0.00  0.00    +0.016 A 
ATOM     35  C   UNL     1     -16.771   1.879  24.860  0.00  0.00    +0.016 A 
ATOM     36  C   UNL     1     -16.277   2.709  27.477  0.00  0.00    +0.046 A 
ATOM     37  C   UNL     1     -16.910   0.977  25.915  0.00  0.00    +0.046 A 
ATOM     38  C   UNL     1     -16.663   1.392  27.223  0.00  0.00    +0.120 A 
BRANCH  38   6
ATOM      6  O   UNL     1     -16.801   0.514  28.254  0.00  0.00    -0.495 OA
ATOM     39  C   UNL     1     -16.153   0.846  29.480  0.00  0.00    +0.277 C 
ENDBRANCH  38   6
ENDBRANCH  32  33
BRANCH  15   2
ATOM      2  O   UNL     1     -11.327   9.596  15.895  0.00  0.00    -0.391 OA
ATOM     40  H   UNL     1     -11.829  10.238  15.365  0.00  0.00    +0.210 HD
ENDBRANCH  15   2
BRANCH  12  20
ATOM     20  C   UNL     1     -10.651   9.372  18.643  0.00  0.00    +0.165 C 
BRANCH  20   3
ATOM      3  O   UNL     1      -9.405   9.365  17.982  0.00  0.00    -0.394 OA
ATOM     41  H   UNL     1      -9.252  10.264  17.645  0.00  0.00    +0.209 HD
ENDBRANCH  20   3
ENDBRANCH  12  20
BRANCH  13  23
ATOM     23  C   UNL     1     -16.326   8.233  20.290  0.00  0.00    +0.106 C 
BRANCH  23  24
ATOM      4  O   UNL     1     -17.764   6.558  19.428  0.00  0.00    -0.276 OA
ATOM      8  N   UNL     1     -18.218   8.744  18.786  0.00  0.00    -0.301 N 
ATOM     24  C   UNL     1     -17.498   7.763  19.466  0.00  0.00    +0.216 C 
ATOM     26  C   UNL     1     -17.927  10.183  18.813  0.00  0.00    +0.108 C 
ATOM     27  C   UNL     1     -19.393   8.372  17.997  0.00  0.00    +0.108 C 
ATOM     28  C   UNL     1     -17.774  10.730  17.394  0.00  0.00    +0.022 C 
ATOM     29  C   UNL     1     -19.269   8.880  16.562  0.00  0.00    +0.022 C 
ATOM     30  C   UNL     1     -18.998  10.391  16.530  0.00  0.00    -0.011 C 
ATOM     31  C   UNL     1     -18.803  10.879  15.097  0.00  0.00    +0.007 C 
ENDBRANCH  23  24
ENDBRANCH  13  23
TORSDOF 7
ENDMDL
MODEL 5
REMARK VINA RESULT:      -6.2      2.284      3.438
REMARK  Name = 7134988
REMARK  11 active torsions:
REMARK  status: ('A' for Active; 'I' for Inactive)
REMARK    1  A    between atoms: O_2  and  C_15
REMARK    2  A    between atoms: O_3  and  C_20
REMARK    3  A    between atoms: O_6  and  C_38
REMARK    4  A    between atoms: O_6  and  C_39
REMARK    5  A    between atoms: C_10  and  C_18
REMARK    6  A    between atoms: C_12  and  C_20
REMARK    7  A    between atoms: C_12  and  C_21
REMARK    8  A    between atoms: C_13  and  C_23
REMARK    9  A    between atoms: C_23  and  C_24
REMARK   10  A    between atoms: C_30  and  C_31
REMARK   11  A    between atoms: C_32  and  C_33
REMARK                            x       y       z     vdW  Elec       q    Type
REMARK                         _______ _______ _______ _____ _____    ______ ____
ROOT
ATOM      1  S   UNL     1      -5.622 -10.707  12.592  0.00  0.00    -0.057 S 
ATOM      5  O   UNL     1      -9.184  -8.672  10.392  0.00  0.00    -0.270 OA
ATOM      7  N   UNL     1      -7.997  -9.724  12.889  0.00  0.00    -0.229 NA
ATOM      9  N   UNL     1      -7.065  -9.666  10.666  0.00  0.00    -0.261 N 
ATOM     10  C   UNL     1      -7.921 -10.977  16.535  0.00  0.00    -0.019 C 
ATOM     11  C   UNL     1      -6.342 -10.796  16.646  0.00  0.00    +0.011 C 
ATOM     12  C   UNL     1      -5.657 -11.294  17.977  0.00  0.00    +0.021 C 
ATOM     13  C   UNL     1      -8.441 -10.037  15.352  0.00  0.00    +0.054 C 
ATOM     14  C   UNL     1      -8.587 -10.514  17.856  0.00  0.00    +0.010 C 
ATOM     15  C   UNL     1      -6.475 -10.781  19.197  0.00  0.00    +0.123 C 
ATOM     16  C   UNL     1      -5.622 -11.277  15.353  0.00  0.00    +0.049 C 
ATOM     17  C   UNL     1      -7.960 -11.114  19.106  0.00  0.00    +0.032 C 
ATOM     18  C   UNL     1      -8.340 -12.440  16.252  0.00  0.00    +0.012 C 
ATOM     19  C   UNL     1      -7.578 -10.182  14.124  0.00  0.00    +0.058 A 
ATOM     21  C   UNL     1      -4.236 -10.671  18.079  0.00  0.00    +0.016 C 
ATOM     22  C   UNL     1      -6.310 -10.724  14.150  0.00  0.00    +0.015 A 
ATOM     25  C   UNL     1      -7.050  -9.956  12.004  0.00  0.00    +0.165 A 
ATOM     32  C   UNL     1      -8.106  -9.054   9.950  0.00  0.00    +0.250 C 
ATOM     42  H   UNL     1      -6.199  -9.901  10.192  0.00  0.00    +0.157 HD
ENDROOT
BRANCH  32  33
ATOM     33  C   UNL     1      -7.839  -8.832   8.504  0.00  0.00    +0.037 A 
ATOM     34  C   UNL     1      -8.484  -7.796   7.828  0.00  0.00    +0.016 A 
ATOM     35  C   UNL     1      -6.943  -9.657   7.825  0.00  0.00    +0.016 A 
ATOM     36  C   UNL     1      -8.233  -7.586   6.472  0.00  0.00    +0.046 A 
ATOM     37  C   UNL     1      -6.692  -9.447   6.468  0.00  0.00    +0.046 A 
ATOM     38  C   UNL     1      -7.337  -8.413   5.792  0.00  0.00    +0.120 A 
BRANCH  38   6
ATOM      6  O   UNL     1      -7.091  -8.206   4.470  0.00  0.00    -0.495 OA
ATOM     39  C   UNL     1      -8.223  -8.052   3.616  0.00  0.00    +0.277 C 
ENDBRANCH  38   6
ENDBRANCH  32  33
BRANCH  15   2
ATOM      2  O   UNL     1      -5.956 -11.322  20.412  0.00  0.00    -0.391 OA
ATOM     40  H   UNL     1      -6.015 -10.628  21.091  0.00  0.00    +0.210 HD
ENDBRANCH  15   2
BRANCH  12  20
ATOM     20  C   UNL     1      -5.447 -12.822  18.057  0.00  0.00    +0.165 C 
BRANCH  20   3
ATOM      3  O   UNL     1      -4.178 -13.054  18.627  0.00  0.00    -0.394 OA
ATOM     41  H   UNL     1      -4.322 -13.487  19.486  0.00  0.00    +0.209 HD
ENDBRANCH  20   3
ENDBRANCH  12  20
BRANCH  13  23
ATOM     23  C   UNL     1      -9.930 -10.201  15.015  0.00  0.00    +0.106 C 
BRANCH  23  24
ATOM      4  O   UNL     1     -10.542  -8.076  15.868  0.00  0.00    -0.276 OA
ATOM      8  N   UNL     1     -11.725  -9.901  16.685  0.00  0.00    -0.301 N 
ATOM     24  C   UNL     1     -10.755  -9.292  15.890  0.00  0.00    +0.216 C 
ATOM     26  C   UNL     1     -12.003 -11.342  16.733  0.00  0.00    +0.108 C 
ATOM     27  C   UNL     1     -12.593  -9.083  17.532  0.00  0.00    +0.108 C 
ATOM     28  C   UNL     1     -11.935 -11.858  18.170  0.00  0.00    +0.022 C 
ATOM     29  C   UNL     1     -12.537  -9.551  18.985  0.00  0.00    +0.022 C 
ATOM     30  C   UNL     1     -12.854 -11.050  19.097  0.00  0.00    -0.011 C 
ATOM     31  C   UNL     1     -12.724 -11.527  20.542  0.00  0.00    +0.007 C 
ENDBRANCH  23  24
ENDBRANCH  13  23
TORSDOF 7
ENDMDL
MODEL 6
REMARK VINA RESULT:      -6.2     32.410     34.229
REMARK  Name = 7134988
REMARK  11 active torsions:
REMARK  status: ('A' for Active; 'I' for Inactive)
REMARK    1  A    between atoms: O_2  and  C_15
REMARK    2  A    between atoms: O_3  and  C_20
REMARK    3  A    between atoms: O_6  and  C_38
REMARK    4  A    between atoms: O_6  and  C_39
REMARK    5  A    between atoms: C_10  and  C_18
REMARK    6  A    between atoms: C_12  and  C_20
REMARK    7  A    between atoms: C_12  and  C_21
REMARK    8  A    between atoms: C_13  and  C_23
REMARK    9  A    between atoms: C_23  and  C_24
REMARK   10  A    between atoms: C_30  and  C_31
REMARK   11  A    between atoms: C_32  and  C_33
REMARK                            x       y       z     vdW  Elec       q    Type
REMARK                         _______ _______ _______ _____ _____    ______ ____
ROOT
ATOM      1  S   UNL     1      -5.741  10.378  38.836  0.00  0.00    -0.057 S 
ATOM      5  O   UNL     1      -1.246   9.552  37.954  0.00  0.00    -0.270 OA
ATOM      7  N   UNL     1      -3.704   8.913  39.469  0.00  0.00    -0.229 NA
ATOM      9  N   UNL     1      -3.357  10.582  37.764  0.00  0.00    -0.261 N 
ATOM     10  C   UNL     1      -5.846   7.378  42.285  0.00  0.00    -0.019 C 
ATOM     11  C   UNL     1      -7.198   7.559  41.461  0.00  0.00    +0.011 C 
ATOM     12  C   UNL     1      -8.541   7.187  42.201  0.00  0.00    +0.021 C 
ATOM     13  C   UNL     1      -4.633   7.381  41.244  0.00  0.00    +0.054 C 
ATOM     14  C   UNL     1      -5.864   6.009  43.011  0.00  0.00    +0.010 C 
ATOM     15  C   UNL     1      -8.370   5.813  42.911  0.00  0.00    +0.123 C 
ATOM     16  C   UNL     1      -7.242   8.936  40.737  0.00  0.00    +0.049 C 
ATOM     17  C   UNL     1      -7.137   5.748  43.805  0.00  0.00    +0.032 C 
ATOM     18  C   UNL     1      -5.626   8.495  43.334  0.00  0.00    +0.012 C 
ATOM     19  C   UNL     1      -4.768   8.511  40.257  0.00  0.00    +0.058 A 
ATOM     21  C   UNL     1      -9.672   7.025  41.146  0.00  0.00    +0.016 C 
ATOM     22  C   UNL     1      -5.952   9.182  40.031  0.00  0.00    +0.015 A 
ATOM     25  C   UNL     1      -4.100   9.896  38.688  0.00  0.00    +0.165 A 
ATOM     32  C   UNL     1      -2.003  10.377  37.455  0.00  0.00    +0.250 C 
ATOM     42  H   UNL     1      -3.891  11.273  37.249  0.00  0.00    +0.157 HD
ENDROOT
BRANCH  32  33
ATOM     33  C   UNL     1      -1.456  11.251  36.383  0.00  0.00    +0.037 A 
ATOM     34  C   UNL     1      -2.286  12.171  35.742  0.00  0.00    +0.016 A 
ATOM     35  C   UNL     1      -0.113  11.151  36.019  0.00  0.00    +0.016 A 
ATOM     36  C   UNL     1      -1.773  12.991  34.737  0.00  0.00    +0.046 A 
ATOM     37  C   UNL     1       0.400  11.971  35.013  0.00  0.00    +0.046 A 
ATOM     38  C   UNL     1      -0.430  12.890  34.373  0.00  0.00    +0.120 A 
BRANCH  38   6
ATOM      6  O   UNL     1       0.071  13.692  33.394  0.00  0.00    -0.495 OA
ATOM     39  C   UNL     1       1.082  13.138  32.555  0.00  0.00    +0.277 C 
ENDBRANCH  38   6
ENDBRANCH  32  33
BRANCH  15   2
ATOM      2  O   UNL     1      -9.523   5.508  43.696  0.00  0.00    -0.391 OA
ATOM     40  H   UNL     1      -9.400   5.916  44.570  0.00  0.00    +0.210 HD
ENDBRANCH  15   2
BRANCH  12  20
ATOM     20  C   UNL     1      -9.047   8.260  43.190  0.00  0.00    +0.165 C 
BRANCH  20   3
ATOM      3  O   UNL     1     -10.457   8.238  43.166  0.00  0.00    -0.394 OA
ATOM     41  H   UNL     1     -10.725   7.811  42.334  0.00  0.00    +0.209 HD
ENDBRANCH  20   3
ENDBRANCH  12  20
BRANCH  13  23
ATOM     23  C   UNL     1      -3.240   7.360  41.889  0.00  0.00    +0.106 C 
BRANCH  23  24
ATOM      4  O   UNL     1      -2.893   5.143  41.129  0.00  0.00    -0.276 OA
ATOM      8  N   UNL     1      -1.108   6.610  40.893  0.00  0.00    -0.301 N 
ATOM     24  C   UNL     1      -2.405   6.268  41.270  0.00  0.00    +0.216 C 
ATOM     26  C   UNL     1      -0.500   7.938  41.047  0.00  0.00    +0.108 C 
ATOM     27  C   UNL     1      -0.249   5.616  40.248  0.00  0.00    +0.108 C 
ATOM     28  C   UNL     1       0.819   7.843  41.812  0.00  0.00    +0.022 C 
ATOM     29  C   UNL     1       1.075   5.472  40.997  0.00  0.00    +0.022 C 
ATOM     30  C   UNL     1       1.772   6.831  41.157  0.00  0.00    -0.011 C 
ATOM     31  C   UNL     1       3.057   6.691  41.969  0.00  0.00    +0.007 C 
ENDBRANCH  23  24
ENDBRANCH  13  23
TORSDOF 7
ENDMDL
MODEL 7
REMARK VINA RESULT:      -6.1      3.629      5.825
REMARK  Name = 7134988
REMARK  11 active torsions:
REMARK  status: ('A' for Active; 'I' for Inactive)
REMARK    1  A    between atoms: O_2  and  C_15
REMARK    2  A    between atoms: O_3  and  C_20
REMARK    3  A    between atoms: O_6  and  C_38
REMARK    4  A    between atoms: O_6  and  C_39
REMARK    5  A    between atoms: C_10  and  C_18
REMARK    6  A    between atoms: C_12  and  C_20
REMARK    7  A    between atoms: C_12  and  C_21
REMARK    8  A    between atoms: C_13  and  C_23
REMARK    9  A    between atoms: C_23  and  C_24
REMARK   10  A    between atoms: C_30  and  C_31
REMARK   11  A    between atoms: C_32  and  C_33
REMARK                            x       y       z     vdW  Elec       q    Type
REMARK                         _______ _______ _______ _____ _____    ______ ____
ROOT
ATOM      1  S   UNL     1      -3.707 -13.177   9.438  0.00  0.00    -0.057 S 
ATOM      5  O   UNL     1      -5.455 -10.672   5.925  0.00  0.00    -0.270 OA
ATOM      7  N   UNL     1      -5.166 -11.127   8.833  0.00  0.00    -0.229 NA
ATOM      9  N   UNL     1      -4.245 -12.388   6.996  0.00  0.00    -0.261 N 
ATOM     10  C   UNL     1      -5.971 -10.754  12.586  0.00  0.00    -0.019 C 
ATOM     11  C   UNL     1      -4.560 -11.346  13.027  0.00  0.00    +0.011 C 
ATOM     12  C   UNL     1      -4.327 -11.565  14.572  0.00  0.00    +0.021 C 
ATOM     13  C   UNL     1      -5.831 -10.214  11.088  0.00  0.00    +0.054 C 
ATOM     14  C   UNL     1      -6.339  -9.561  13.504  0.00  0.00    +0.010 C 
ATOM     15  C   UNL     1      -4.790 -10.297  15.344  0.00  0.00    +0.123 C 
ATOM     16  C   UNL     1      -4.158 -12.571  12.153  0.00  0.00    +0.049 C 
ATOM     17  C   UNL     1      -6.208  -9.862  14.990  0.00  0.00    +0.032 C 
ATOM     18  C   UNL     1      -7.109 -11.801  12.650  0.00  0.00    +0.012 C 
ATOM     19  C   UNL     1      -5.129 -11.220  10.212  0.00  0.00    +0.058 A 
ATOM     21  C   UNL     1      -2.804 -11.738  14.836  0.00  0.00    +0.016 C 
ATOM     22  C   UNL     1      -4.369 -12.258  10.710  0.00  0.00    +0.015 A 
ATOM     25  C   UNL     1      -4.458 -12.111   8.320  0.00  0.00    +0.165 A 
ATOM     32  C   UNL     1      -4.743 -11.670   5.897  0.00  0.00    +0.250 C 
ATOM     42  H   UNL     1      -3.627 -13.178   6.842  0.00  0.00    +0.157 HD
ENDROOT
BRANCH  32  33
ATOM     33  C   UNL     1      -4.326 -12.179   4.563  0.00  0.00    +0.037 A 
ATOM     34  C   UNL     1      -2.974 -12.391   4.290  0.00  0.00    +0.016 A 
ATOM     35  C   UNL     1      -5.285 -12.444   3.586  0.00  0.00    +0.016 A 
ATOM     36  C   UNL     1      -2.582 -12.868   3.039  0.00  0.00    +0.046 A 
ATOM     37  C   UNL     1      -4.893 -12.922   2.335  0.00  0.00    +0.046 A 
ATOM     38  C   UNL     1      -3.543 -13.133   2.062  0.00  0.00    +0.120 A 
BRANCH  38   6
ATOM      6  O   UNL     1      -3.160 -13.602   0.842  0.00  0.00    -0.495 OA
ATOM     39  C   UNL     1      -3.670 -12.922  -0.303  0.00  0.00    +0.277 C 
ENDBRANCH  38   6
ENDBRANCH  32  33
BRANCH  15   2
ATOM      2  O   UNL     1      -4.714 -10.512  16.753  0.00  0.00    -0.391 OA
ATOM     40  H   UNL     1      -4.952 -11.439  16.923  0.00  0.00    +0.210 HD
ENDBRANCH  15   2
BRANCH  12  20
ATOM     20  C   UNL     1      -4.994 -12.835  15.147  0.00  0.00    +0.165 C 
BRANCH  20   3
ATOM      3  O   UNL     1      -4.085 -13.430  16.045  0.00  0.00    -0.394 OA
ATOM     41  H   UNL     1      -4.357 -14.357  16.161  0.00  0.00    +0.209 HD
ENDBRANCH  20   3
ENDBRANCH  12  20
BRANCH  13  23
ATOM     23  C   UNL     1      -7.147  -9.739  10.456  0.00  0.00    +0.106 C 
BRANCH  23  24
ATOM      4  O   UNL     1      -5.800  -7.935   9.716  0.00  0.00    -0.276 OA
ATOM      8  N   UNL     1      -7.986  -7.986   8.931  0.00  0.00    -0.301 N 
ATOM     24  C   UNL     1      -6.910  -8.474   9.671  0.00  0.00    +0.216 C 
ATOM     26  C   UNL     1      -9.315  -8.604   8.857  0.00  0.00    +0.108 C 
ATOM     27  C   UNL     1      -7.823  -6.785   8.111  0.00  0.00    +0.108 C 
ATOM     28  C   UNL     1     -10.403  -7.595   9.224  0.00  0.00    +0.022 C 
ATOM     29  C   UNL     1      -8.878  -5.738   8.464  0.00  0.00    +0.022 C 
ATOM     30  C   UNL     1     -10.295  -6.323   8.368  0.00  0.00    -0.011 C 
ATOM     31  C   UNL     1     -11.339  -5.293   8.792  0.00  0.00    +0.007 C 
ENDBRANCH  23  24
ENDBRANCH  13  23
TORSDOF 7
ENDMDL
MODEL 8
REMARK VINA RESULT:      -6.0      5.787      6.900
REMARK  Name = 7134988
REMARK  11 active torsions:
REMARK  status: ('A' for Active; 'I' for Inactive)
REMARK    1  A    between atoms: O_2  and  C_15
REMARK    2  A    between atoms: O_3  and  C_20
REMARK    3  A    between atoms: O_6  and  C_38
REMARK    4  A    between atoms: O_6  and  C_39
REMARK    5  A    between atoms: C_10  and  C_18
REMARK    6  A    between atoms: C_12  and  C_20
REMARK    7  A    between atoms: C_12  and  C_21
REMARK    8  A    between atoms: C_13  and  C_23
REMARK    9  A    between atoms: C_23  and  C_24
REMARK   10  A    between atoms: C_30  and  C_31
REMARK   11  A    between atoms: C_32  and  C_33
REMARK                            x       y       z     vdW  Elec       q    Type
REMARK                         _______ _______ _______ _____ _____    ______ ____
ROOT
ATOM      1  S   UNL     1      -9.029  -9.186  14.195  0.00  0.00    -0.057 S 
ATOM      5  O   UNL     1     -13.245  -8.658  16.097  0.00  0.00    -0.270 OA
ATOM      7  N   UNL     1     -10.460  -9.632  16.305  0.00  0.00    -0.229 NA
ATOM      9  N   UNL     1     -11.547  -8.507  14.471  0.00  0.00    -0.261 N 
ATOM     10  C   UNL     1      -7.495 -11.639  17.736  0.00  0.00    -0.019 C 
ATOM     11  C   UNL     1      -6.420 -10.741  16.977  0.00  0.00    +0.011 C 
ATOM     12  C   UNL     1      -4.909 -11.182  17.092  0.00  0.00    +0.021 C 
ATOM     13  C   UNL     1      -8.845 -10.793  17.856  0.00  0.00    +0.054 C 
ATOM     14  C   UNL     1      -6.986 -11.954  19.166  0.00  0.00    +0.010 C 
ATOM     15  C   UNL     1      -4.582 -11.503  18.578  0.00  0.00    +0.123 C 
ATOM     16  C   UNL     1      -6.871 -10.423  15.521  0.00  0.00    +0.049 C 
ATOM     17  C   UNL     1      -5.561 -12.486  19.211  0.00  0.00    +0.032 C 
ATOM     18  C   UNL     1      -7.787 -12.973  17.007  0.00  0.00    +0.012 C 
ATOM     19  C   UNL     1      -9.198 -10.145  16.541  0.00  0.00    +0.058 A 
ATOM     21  C   UNL     1      -4.001  -9.995  16.663  0.00  0.00    +0.016 C 
ATOM     22  C   UNL     1      -8.293  -9.972  15.515  0.00  0.00    +0.015 A 
ATOM     25  C   UNL     1     -10.489  -9.110  15.097  0.00  0.00    +0.165 A 
ATOM     32  C   UNL     1     -12.837  -8.318  14.992  0.00  0.00    +0.250 C 
ATOM     42  H   UNL     1     -11.318  -8.140  13.552  0.00  0.00    +0.157 HD
ENDROOT
BRANCH  32  33
ATOM     33  C   UNL     1     -13.786  -7.601  14.099  0.00  0.00    +0.037 A 
ATOM     34  C   UNL     1     -14.003  -6.233  14.269  0.00  0.00    +0.016 A 
ATOM     35  C   UNL     1     -14.457  -8.295  13.093  0.00  0.00    +0.016 A 
ATOM     36  C   UNL     1     -14.893  -5.560  13.431  0.00  0.00    +0.046 A 
ATOM     37  C   UNL     1     -15.347  -7.622  12.256  0.00  0.00    +0.046 A 
ATOM     38  C   UNL     1     -15.565  -6.256  12.425  0.00  0.00    +0.120 A 
BRANCH  38   6
ATOM      6  O   UNL     1     -16.431  -5.598  11.606  0.00  0.00    -0.495 OA
ATOM     39  C   UNL     1     -15.873  -4.642  10.706  0.00  0.00    +0.277 C 
ENDBRANCH  38   6
ENDBRANCH  32  33
BRANCH  15   2
ATOM      2  O   UNL     1      -3.260 -12.029  18.698  0.00  0.00    -0.391 OA
ATOM     40  H   UNL     1      -3.197 -12.473  19.561  0.00  0.00    +0.210 HD
ENDBRANCH  15   2
BRANCH  12  20
ATOM     20  C   UNL     1      -4.515 -12.360  16.174  0.00  0.00    +0.165 C 
BRANCH  20   3
ATOM      3  O   UNL     1      -3.175 -12.167  15.777  0.00  0.00    -0.394 OA
ATOM     41  H   UNL     1      -2.732 -11.670  16.487  0.00  0.00    +0.209 HD
ENDBRANCH  20   3
ENDBRANCH  12  20
BRANCH  13  23
ATOM     23  C   UNL     1     -10.035 -11.570  18.437  0.00  0.00    +0.106 C 
BRANCH  23  24
ATOM      4  O   UNL     1      -9.891 -10.360  20.470  0.00  0.00    -0.276 OA
ATOM      8  N   UNL     1     -12.019 -10.643  19.580  0.00  0.00    -0.301 N 
ATOM     24  C   UNL     1     -10.634 -10.802  19.588  0.00  0.00    +0.216 C 
ATOM     26  C   UNL     1     -12.927 -11.156  18.547  0.00  0.00    +0.108 C 
ATOM     27  C   UNL     1     -12.671  -9.876  20.641  0.00  0.00    +0.108 C 
ATOM     28  C   UNL     1     -14.033 -12.004  19.172  0.00  0.00    +0.022 C 
ATOM     29  C   UNL     1     -13.771 -10.698  21.311  0.00  0.00    +0.022 C 
ATOM     30  C   UNL     1     -14.772 -11.233  20.276  0.00  0.00    -0.011 C 
ATOM     31  C   UNL     1     -15.826 -12.113  20.943  0.00  0.00    +0.007 C 
ENDBRANCH  23  24
ENDBRANCH  13  23
TORSDOF 7
ENDMDL
MODEL 9
REMARK VINA RESULT:      -6.0     23.601     27.991
REMARK  Name = 7134988
REMARK  11 active torsions:
REMARK  status: ('A' for Active; 'I' for Inactive)
REMARK    1  A    between atoms: O_2  and  C_15
REMARK    2  A    between atoms: O_3  and  C_20
REMARK    3  A    between atoms: O_6  and  C_38
REMARK    4  A    between atoms: O_6  and  C_39
REMARK    5  A    between atoms: C_10  and  C_18
REMARK    6  A    between atoms: C_12  and  C_20
REMARK    7  A    between atoms: C_12  and  C_21
REMARK    8  A    between atoms: C_13  and  C_23
REMARK    9  A    between atoms: C_23  and  C_24
REMARK   10  A    between atoms: C_30  and  C_31
REMARK   11  A    between atoms: C_32  and  C_33
REMARK                            x       y       z     vdW  Elec       q    Type
REMARK                         _______ _______ _______ _____ _____    ______ ____
ROOT
ATOM      1  S   UNL     1      10.460  -5.095  35.884  0.00  0.00    -0.057 S 
ATOM      5  O   UNL     1      11.206  -6.987  31.696  0.00  0.00    -0.270 OA
ATOM      7  N   UNL     1       9.524  -6.738  34.116  0.00  0.00    -0.229 NA
ATOM      9  N   UNL     1      11.604  -5.640  33.588  0.00  0.00    -0.261 N 
ATOM     10  C   UNL     1       6.769  -7.686  36.643  0.00  0.00    -0.019 C 
ATOM     11  C   UNL     1       6.764  -6.235  37.300  0.00  0.00    +0.011 C 
ATOM     12  C   UNL     1       5.847  -6.026  38.567  0.00  0.00    +0.021 C 
ATOM     13  C   UNL     1       7.386  -7.558  35.175  0.00  0.00    +0.054 C 
ATOM     14  C   UNL     1       5.313  -8.201  36.519  0.00  0.00    +0.010 C 
ATOM     15  C   UNL     1       4.444  -6.639  38.289  0.00  0.00    +0.123 C 
ATOM     16  C   UNL     1       8.210  -5.685  37.476  0.00  0.00    +0.049 C 
ATOM     17  C   UNL     1       4.504  -8.082  37.803  0.00  0.00    +0.032 C 
ATOM     18  C   UNL     1       7.592  -8.712  37.459  0.00  0.00    +0.012 C 
ATOM     19  C   UNL     1       8.647  -6.732  35.185  0.00  0.00    +0.058 A 
ATOM     21  C   UNL     1       5.648  -4.502  38.803  0.00  0.00    +0.016 C 
ATOM     22  C   UNL     1       8.987  -5.884  36.219  0.00  0.00    +0.015 A 
ATOM     25  C   UNL     1      10.520  -5.918  34.378  0.00  0.00    +0.165 A 
ATOM     32  C   UNL     1      11.881  -6.176  32.321  0.00  0.00    +0.250 C 
ATOM     42  H   UNL     1      12.224  -4.940  33.984  0.00  0.00    +0.157 HD
ENDROOT
BRANCH  32  33
ATOM     33  C   UNL     1      13.120  -5.670  31.672  0.00  0.00    +0.037 A 
ATOM     34  C   UNL     1      13.782  -4.562  32.203  0.00  0.00    +0.016 A 
ATOM     35  C   UNL     1      13.621  -6.303  30.535  0.00  0.00    +0.016 A 
ATOM     36  C   UNL     1      14.944  -4.088  31.596  0.00  0.00    +0.046 A 
ATOM     37  C   UNL     1      14.784  -5.829  29.928  0.00  0.00    +0.046 A 
ATOM     38  C   UNL     1      15.445  -4.722  30.458  0.00  0.00    +0.120 A 
BRANCH  38   6
ATOM      6  O   UNL     1      16.581  -4.260  29.867  0.00  0.00    -0.495 OA
ATOM     39  C   UNL     1      16.929  -2.898  30.107  0.00  0.00    +0.277 C 
ENDBRANCH  38   6
ENDBRANCH  32  33
BRANCH  15   2
ATOM      2  O   UNL     1       3.631  -6.582  39.461  0.00  0.00    -0.391 OA
ATOM     40  H   UNL     1       3.206  -5.708  39.482  0.00  0.00    +0.210 HD
ENDBRANCH  15   2
BRANCH  12  20
ATOM     20  C   UNL     1       6.438  -6.576  39.884  0.00  0.00    +0.165 C 
BRANCH  20   3
ATOM      3  O   UNL     1       6.031  -5.722  40.929  0.00  0.00    -0.394 OA
ATOM     41  H   UNL     1       6.828  -5.475  41.428  0.00  0.00    +0.209 HD
ENDBRANCH  20   3
ENDBRANCH  12  20
BRANCH  13  23
ATOM     23  C   UNL     1       7.598  -8.896  34.453  0.00  0.00    +0.106 C 
BRANCH  23  24
ATOM      4  O   UNL     1       5.708  -8.406  33.109  0.00  0.00    -0.276 OA
ATOM      8  N   UNL     1       7.479  -9.479  32.056  0.00  0.00    -0.301 N 
ATOM     24  C   UNL     1       6.839  -8.901  33.150  0.00  0.00    +0.216 C 
ATOM     26  C   UNL     1       8.821 -10.074  32.073  0.00  0.00    +0.108 C 
ATOM     27  C   UNL     1       6.824  -9.487  30.747  0.00  0.00    +0.108 C 
ATOM     28  C   UNL     1       8.786 -11.505  31.537  0.00  0.00    +0.022 C 
ATOM     29  C   UNL     1       6.746 -10.905  30.185  0.00  0.00    +0.022 C 
ATOM     30  C   UNL     1       8.133 -11.565  30.148  0.00  0.00    -0.011 C 
ATOM     31  C   UNL     1       8.037 -13.006  29.654  0.00  0.00    +0.007 C 
ENDBRANCH  23  24
ENDBRANCH  13  23
TORSDOF 7
ENDMDL
MODEL 10
REMARK VINA RESULT:      -5.9      3.990      6.376
REMARK  Name = 7134988
REMARK  11 active torsions:
REMARK  status: ('A' for Active; 'I' for Inactive)
REMARK    1  A    between atoms: O_2  and  C_15
REMARK    2  A    between atoms: O_3  and  C_20
REMARK    3  A    between atoms: O_6  and  C_38
REMARK    4  A    between atoms: O_6  and  C_39
REMARK    5  A    between atoms: C_10  and  C_18
REMARK    6  A    between atoms: C_12  and  C_20
REMARK    7  A    between atoms: C_12  and  C_21
REMARK    8  A    between atoms: C_13  and  C_23
REMARK    9  A    between atoms: C_23  and  C_24
REMARK   10  A    between atoms: C_30  and  C_31
REMARK   11  A    between atoms: C_32  and  C_33
REMARK                            x       y       z     vdW  Elec       q    Type
REMARK                         _______ _______ _______ _____ _____    ______ ____
ROOT
ATOM      1  S   UNL     1      -6.680 -10.665   5.542  0.00  0.00    -0.057 S 
ATOM      5  O   UNL     1      -9.628  -7.350   4.131  0.00  0.00    -0.270 OA
ATOM      7  N   UNL     1      -8.120  -8.658   6.314  0.00  0.00    -0.229 NA
ATOM      9  N   UNL     1      -8.184  -9.205   3.967  0.00  0.00    -0.261 N 
ATOM     10  C   UNL     1      -7.167  -9.535   9.946  0.00  0.00    -0.019 C 
ATOM     11  C   UNL     1      -5.747 -10.115   9.516  0.00  0.00    +0.011 C 
ATOM     12  C   UNL     1      -4.874 -10.782  10.648  0.00  0.00    +0.021 C 
ATOM     13  C   UNL     1      -7.665  -8.548   8.792  0.00  0.00    +0.054 C 
ATOM     14  C   UNL     1      -7.016  -8.720  11.256  0.00  0.00    +0.010 C 
ATOM     15  C   UNL     1      -4.867  -9.858  11.900  0.00  0.00    +0.123 C 
ATOM     16  C   UNL     1      -5.851 -10.970   8.219  0.00  0.00    +0.049 C 
ATOM     17  C   UNL     1      -6.264  -9.455  12.357  0.00  0.00    +0.032 C 
ATOM     18  C   UNL     1      -8.226 -10.642  10.168  0.00  0.00    +0.012 C 
ATOM     19  C   UNL     1      -7.486  -9.170   7.431  0.00  0.00    +0.058 A 
ATOM     21  C   UNL     1      -3.405 -10.899  10.151  0.00  0.00    +0.016 C 
ATOM     22  C   UNL     1      -6.653 -10.244   7.193  0.00  0.00    +0.015 A 
ATOM     25  C   UNL     1      -7.775  -9.372   5.263  0.00  0.00    +0.165 A 
ATOM     32  C   UNL     1      -9.067  -8.227   3.483  0.00  0.00    +0.250 C 
ATOM     42  H   UNL     1      -7.750  -9.854   3.319  0.00  0.00    +0.157 HD
ENDROOT
BRANCH  32  33
ATOM     33  C   UNL     1      -9.313  -8.260   2.016  0.00  0.00    +0.037 A 
ATOM     34  C   UNL     1      -8.531  -9.075   1.198  0.00  0.00    +0.016 A 
ATOM     35  C   UNL     1     -10.325  -7.478   1.461  0.00  0.00    +0.016 A 
ATOM     36  C   UNL     1      -8.761  -9.107  -0.178  0.00  0.00    +0.046 A 
ATOM     37  C   UNL     1     -10.555  -7.510   0.085  0.00  0.00    +0.046 A 
ATOM     38  C   UNL     1      -9.774  -8.324  -0.733  0.00  0.00    +0.120 A 
BRANCH  38   6
ATOM      6  O   UNL     1     -10.000  -8.357  -2.075  0.00  0.00    -0.495 OA
ATOM     39  C   UNL     1     -11.111  -7.609  -2.565  0.00  0.00    +0.277 C 
ENDBRANCH  38   6
ENDBRANCH  32  33
BRANCH  15   2
ATOM      2  O   UNL     1      -4.193 -10.492  12.987  0.00  0.00    -0.391 OA
ATOM     40  H   UNL     1      -4.233 -11.452  12.838  0.00  0.00    +0.210 HD
ENDBRANCH  15   2
BRANCH  12  20
ATOM     20  C   UNL     1      -5.301 -12.217  11.024  0.00  0.00    +0.165 C 
BRANCH  20   3
ATOM      3  O   UNL     1      -4.130 -12.968  11.258  0.00  0.00    -0.394 OA
ATOM     41  H   UNL     1      -3.447 -12.634  10.650  0.00  0.00    +0.209 HD
ENDBRANCH  20   3
ENDBRANCH  12  20
BRANCH  13  23
ATOM     23  C   UNL     1      -9.091  -8.012   8.983  0.00  0.00    +0.106 C 
BRANCH  23  24
ATOM      4  O   UNL     1      -8.116  -5.990   8.225  0.00  0.00    -0.276 OA
ATOM      8  N   UNL     1     -10.340  -5.883   8.889  0.00  0.00    -0.301 N 
ATOM     24  C   UNL     1      -9.131  -6.540   8.662  0.00  0.00    +0.216 C 
ATOM     26  C   UNL     1     -11.563  -6.509   9.408  0.00  0.00    +0.108 C 
ATOM     27  C   UNL     1     -10.471  -4.462   8.565  0.00  0.00    +0.108 C 
ATOM     28  C   UNL     1     -12.075  -5.759  10.636  0.00  0.00    +0.022 C 
ATOM     29  C   UNL     1     -10.959  -3.670   9.776  0.00  0.00    +0.022 C 
ATOM     30  C   UNL     1     -12.259  -4.263  10.340  0.00  0.00    -0.011 C 
ATOM     31  C   UNL     1     -12.702  -3.511  11.593  0.00  0.00    +0.007 C 
ENDBRANCH  23  24
ENDBRANCH  13  23
TORSDOF 7
ENDMDL
