MODEL 1
REMARK VINA RESULT:      -6.9      0.000      0.000
REMARK  Name = 11879507
REMARK  10 active torsions:
REMARK  status: ('A' for Active; 'I' for Inactive)
REMARK    1  A    between atoms: O_4  and  C_17
REMARK    2  A    between atoms: O_5  and  C_22
REMARK    3  A    between atoms: N_9  and  C_28
REMARK    4  A    between atoms: C_12  and  C_20
REMARK    5  A    between atoms: C_14  and  C_22
REMARK    6  A    between atoms: C_14  and  C_23
REMARK    7  A    between atoms: C_15  and  C_25
REMARK    8  A    between atoms: C_25  and  C_26
REMARK    9  A    between atoms: C_28  and  C_30
REMARK   10  A    between atoms: C_29  and  C_31
REMARK                            x       y       z     vdW  Elec       q    Type
REMARK                         _______ _______ _______ _____ _____    ______ ____
ROOT
ATOM      1  S   UNL     1      15.224   8.328   6.270  0.00  0.00    -0.057 S 
ATOM      7  O   UNL     1      12.398   6.926   2.845  0.00  0.00    -0.270 OA
ATOM      8  N   UNL     1      15.100   7.710   3.761  0.00  0.00    -0.229 NA
ATOM     10  N   UNL     1      13.046   7.577   5.016  0.00  0.00    -0.261 N 
ATOM     12  C   UNL     1      18.777   8.824   3.436  0.00  0.00    -0.019 C 
ATOM     13  C   UNL     1      19.118   8.403   4.933  0.00  0.00    +0.011 C 
ATOM     14  C   UNL     1      20.563   8.750   5.462  0.00  0.00    +0.021 C 
ATOM     15  C   UNL     1      17.480   8.011   2.979  0.00  0.00    +0.054 C 
ATOM     16  C   UNL     1      19.954   8.429   2.507  0.00  0.00    +0.010 C 
ATOM     17  C   UNL     1      21.614   8.331   4.395  0.00  0.00    +0.123 C 
ATOM     18  C   UNL     1      17.978   8.807   5.912  0.00  0.00    +0.049 C 
ATOM     19  C   UNL     1      21.316   8.889   3.007  0.00  0.00    +0.032 C 
ATOM     20  C   UNL     1      18.512  10.343   3.285  0.00  0.00    +0.012 C 
ATOM     21  C   UNL     1      16.408   8.061   4.038  0.00  0.00    +0.058 A 
ATOM     23  C   UNL     1      20.848   7.915   6.742  0.00  0.00    +0.016 C 
ATOM     24  C   UNL     1      16.657   8.402   5.352  0.00  0.00    +0.015 A 
ATOM     27  C   UNL     1      14.385   7.820   4.859  0.00  0.00    +0.165 A 
ATOM     29  C   UNL     1      12.147   7.153   4.024  0.00  0.00    +0.255 C 
ATOM     44  H   UNL     1      12.707   7.710   5.965  0.00  0.00    +0.157 HD
ENDROOT
BRANCH  29  31
ATOM      2  F   UNL     1      10.378   9.279   4.587  0.00  0.00    -0.205 F 
ATOM      3  F   UNL     1      11.050   4.582   4.402  0.00  0.00    -0.205 F 
ATOM     31  C   UNL     1      10.750   6.936   4.483  0.00  0.00    +0.107 A 
ATOM     34  C   UNL     1       9.923   8.028   4.745  0.00  0.00    +0.138 A 
ATOM     35  C   UNL     1      10.266   5.639   4.652  0.00  0.00    +0.138 A 
ATOM     37  C   UNL     1       8.613   7.825   5.176  0.00  0.00    +0.039 A 
ATOM     38  C   UNL     1       8.954   5.435   5.082  0.00  0.00    +0.039 A 
ATOM     40  C   UNL     1       8.129   6.527   5.345  0.00  0.00    +0.006 A 
ENDBRANCH  29  31
BRANCH  17   4
ATOM      4  O   UNL     1      22.922   8.749   4.785  0.00  0.00    -0.391 OA
ATOM     41  H   UNL     1      22.900   9.714   4.903  0.00  0.00    +0.210 HD
ENDBRANCH  17   4
BRANCH  14  22
ATOM     22  C   UNL     1      20.756  10.225   5.877  0.00  0.00    +0.165 C 
BRANCH  22   5
ATOM      5  O   UNL     1      21.628  10.251   6.985  0.00  0.00    -0.394 OA
ATOM     42  H   UNL     1      22.102  11.099   6.962  0.00  0.00    +0.209 HD
ENDBRANCH  22   5
ENDBRANCH  14  22
BRANCH  15  25
ATOM     25  C   UNL     1      16.928   8.411   1.604  0.00  0.00    +0.106 C 
BRANCH  25  26
ATOM      6  O   UNL     1      17.594   7.110  -0.325  0.00  0.00    -0.276 OA
ATOM      9  N   UNL     1      15.880   6.339   1.042  0.00  0.00    -0.311 N 
ATOM     26  C   UNL     1      16.865   7.236   0.655  0.00  0.00    +0.214 C 
ATOM     43  H   UNL     1      15.333   6.533   1.876  0.00  0.00    +0.149 HD
BRANCH   9  28
ATOM     28  C   UNL     1      15.592   5.122   0.318  0.00  0.00    +0.141 C 
BRANCH  28  30
ATOM     11  N   UNL     1      11.837   4.778   0.038  0.00  0.00    -0.263 NA
ATOM     30  C   UNL     1      14.193   4.639   0.565  0.00  0.00    -0.012 A 
ATOM     32  C   UNL     1      13.932   3.647   1.504  0.00  0.00    +0.008 A 
ATOM     33  C   UNL     1      13.120   5.167  -0.136  0.00  0.00    +0.115 A 
ATOM     36  C   UNL     1      12.624   3.219   1.711  0.00  0.00    +0.020 A 
ATOM     39  C   UNL     1      11.623   3.812   0.960  0.00  0.00    +0.111 A 
ENDBRANCH  28  30
ENDBRANCH   9  28
ENDBRANCH  25  26
ENDBRANCH  15  25
TORSDOF 8
ENDMDL
MODEL 2
REMARK VINA RESULT:      -6.8     17.110     20.785
REMARK  Name = 11879507
REMARK  10 active torsions:
REMARK  status: ('A' for Active; 'I' for Inactive)
REMARK    1  A    between atoms: O_4  and  C_17
REMARK    2  A    between atoms: O_5  and  C_22
REMARK    3  A    between atoms: N_9  and  C_28
REMARK    4  A    between atoms: C_12  and  C_20
REMARK    5  A    between atoms: C_14  and  C_22
REMARK    6  A    between atoms: C_14  and  C_23
REMARK    7  A    between atoms: C_15  and  C_25
REMARK    8  A    between atoms: C_25  and  C_26
REMARK    9  A    between atoms: C_28  and  C_30
REMARK   10  A    between atoms: C_29  and  C_31
REMARK                            x       y       z     vdW  Elec       q    Type
REMARK                         _______ _______ _______ _____ _____    ______ ____
ROOT
ATOM      1  S   UNL     1      17.984   6.630  20.609  0.00  0.00    -0.057 S 
ATOM      7  O   UNL     1      20.493   9.369  23.416  0.00  0.00    -0.270 OA
ATOM      8  N   UNL     1      17.984   8.849  21.938  0.00  0.00    -0.229 NA
ATOM     10  N   UNL     1      19.983   7.509  22.061  0.00  0.00    -0.261 N 
ATOM     12  C   UNL     1      14.570   9.658  20.338  0.00  0.00    -0.019 C 
ATOM     13  C   UNL     1      14.164   8.121  20.240  0.00  0.00    +0.011 C 
ATOM     14  C   UNL     1      12.808   7.785  19.507  0.00  0.00    +0.021 C 
ATOM     15  C   UNL     1      15.695   9.800  21.463  0.00  0.00    +0.054 C 
ATOM     16  C   UNL     1      13.337  10.492  20.771  0.00  0.00    +0.010 C 
ATOM     17  C   UNL     1      11.695   8.739  20.025  0.00  0.00    +0.123 C 
ATOM     18  C   UNL     1      15.363   7.244  19.777  0.00  0.00    +0.049 C 
ATOM     19  C   UNL     1      12.084  10.211  19.954  0.00  0.00    +0.032 C 
ATOM     20  C   UNL     1      15.107  10.223  18.999  0.00  0.00    +0.012 C 
ATOM     21  C   UNL     1      16.763   8.748  21.298  0.00  0.00    +0.058 A 
ATOM     23  C   UNL     1      12.381   6.335  19.871  0.00  0.00    +0.016 C 
ATOM     24  C   UNL     1      16.585   7.600  20.553  0.00  0.00    +0.015 A 
ATOM     27  C   UNL     1      18.711   7.794  21.642  0.00  0.00    +0.165 A 
ATOM     29  C   UNL     1      20.786   8.294  22.905  0.00  0.00    +0.255 C 
ATOM     44  H   UNL     1      20.345   6.622  21.721  0.00  0.00    +0.157 HD
ENDROOT
BRANCH  29  31
ATOM      2  F   UNL     1      21.251   6.656  25.156  0.00  0.00    -0.205 F 
ATOM      3  F   UNL     1      23.061   8.762  21.304  0.00  0.00    -0.205 F 
ATOM     31  C   UNL     1      22.122   7.724  23.222  0.00  0.00    +0.107 A 
ATOM     34  C   UNL     1      22.289   6.921  24.350  0.00  0.00    +0.138 A 
ATOM     35  C   UNL     1      23.209   7.992  22.390  0.00  0.00    +0.138 A 
ATOM     37  C   UNL     1      23.542   6.386  24.647  0.00  0.00    +0.039 A 
ATOM     38  C   UNL     1      24.463   7.457  22.687  0.00  0.00    +0.039 A 
ATOM     40  C   UNL     1      24.629   6.655  23.816  0.00  0.00    +0.006 A 
ENDBRANCH  29  31
BRANCH  17   4
ATOM      4  O   UNL     1      10.487   8.548  19.288  0.00  0.00    -0.391 OA
ATOM     41  H   UNL     1      10.516   9.138  18.516  0.00  0.00    +0.210 HD
ENDBRANCH  17   4
BRANCH  14  22
ATOM     22  C   UNL     1      12.889   7.818  17.965  0.00  0.00    +0.165 C 
BRANCH  22   5
ATOM      5  O   UNL     1      11.893   6.957  17.462  0.00  0.00    -0.394 OA
ATOM     42  H   UNL     1      11.385   6.626  18.221  0.00  0.00    +0.209 HD
ENDBRANCH  22   5
ENDBRANCH  14  22
BRANCH  15  25
ATOM     25  C   UNL     1      16.305  11.203  21.582  0.00  0.00    +0.106 C 
BRANCH  25  26
ATOM      6  O   UNL     1      16.018  13.111  23.043  0.00  0.00    -0.276 OA
ATOM      9  N   UNL     1      15.244  11.025  23.716  0.00  0.00    -0.311 N 
ATOM     26  C   UNL     1      15.854  11.911  22.839  0.00  0.00    +0.214 C 
ATOM     43  H   UNL     1      15.151  10.050  23.449  0.00  0.00    +0.149 HD
BRANCH   9  28
ATOM     28  C   UNL     1      14.717  11.424  25.001  0.00  0.00    +0.141 C 
BRANCH  28  30
ATOM     11  N   UNL     1      11.549  13.376  25.673  0.00  0.00    -0.263 NA
ATOM     30  C   UNL     1      13.293  11.888  24.905  0.00  0.00    -0.012 A 
ATOM     32  C   UNL     1      12.407  11.302  24.006  0.00  0.00    +0.008 A 
ATOM     33  C   UNL     1      12.819  12.912  25.708  0.00  0.00    +0.115 A 
ATOM     36  C   UNL     1      11.092  11.752  23.940  0.00  0.00    +0.020 A 
ATOM     39  C   UNL     1      10.717  12.782  24.788  0.00  0.00    +0.111 A 
ENDBRANCH  28  30
ENDBRANCH   9  28
ENDBRANCH  25  26
ENDBRANCH  15  25
TORSDOF 8
ENDMDL
MODEL 3
REMARK VINA RESULT:      -6.6     27.866     30.607
REMARK  Name = 11879507
REMARK  10 active torsions:
REMARK  status: ('A' for Active; 'I' for Inactive)
REMARK    1  A    between atoms: O_4  and  C_17
REMARK    2  A    between atoms: O_5  and  C_22
REMARK    3  A    between atoms: N_9  and  C_28
REMARK    4  A    between atoms: C_12  and  C_20
REMARK    5  A    between atoms: C_14  and  C_22
REMARK    6  A    between atoms: C_14  and  C_23
REMARK    7  A    between atoms: C_15  and  C_25
REMARK    8  A    between atoms: C_25  and  C_26
REMARK    9  A    between atoms: C_28  and  C_30
REMARK   10  A    between atoms: C_29  and  C_31
REMARK                            x       y       z     vdW  Elec       q    Type
REMARK                         _______ _______ _______ _____ _____    ______ ____
ROOT
ATOM      1  S   UNL     1      -7.458 -11.428  12.482  0.00  0.00    -0.057 S 
ATOM      7  O   UNL     1      -3.420 -11.311  10.166  0.00  0.00    -0.270 OA
ATOM      8  N   UNL     1      -4.885 -11.356  12.736  0.00  0.00    -0.229 NA
ATOM     10  N   UNL     1      -5.754 -11.374  10.488  0.00  0.00    -0.261 N 
ATOM     12  C   UNL     1      -5.400 -10.978  16.539  0.00  0.00    -0.019 C 
ATOM     13  C   UNL     1      -6.750 -11.823  16.519  0.00  0.00    +0.011 C 
ATOM     14  C   UNL     1      -7.550 -11.925  17.874  0.00  0.00    +0.021 C 
ATOM     15  C   UNL     1      -4.557 -11.365  15.238  0.00  0.00    +0.054 C 
ATOM     16  C   UNL     1      -4.570 -11.361  17.791  0.00  0.00    +0.010 C 
ATOM     17  C   UNL     1      -6.564 -12.269  19.026  0.00  0.00    +0.123 C 
ATOM     18  C   UNL     1      -7.635 -11.452  15.294  0.00  0.00    +0.049 C 
ATOM     19  C   UNL     1      -5.363 -11.331  19.090  0.00  0.00    +0.032 C 
ATOM     20  C   UNL     1      -5.649  -9.449  16.555  0.00  0.00    +0.012 C 
ATOM     21  C   UNL     1      -5.428 -11.363  14.007  0.00  0.00    +0.058 A 
ATOM     23  C   UNL     1      -8.569 -13.095  17.774  0.00  0.00    +0.016 C 
ATOM     24  C   UNL     1      -6.806 -11.422  14.055  0.00  0.00    +0.015 A 
ATOM     27  C   UNL     1      -5.859 -11.380  11.854  0.00  0.00    +0.165 A 
ATOM     29  C   UNL     1      -4.568 -11.341   9.737  0.00  0.00    +0.255 C 
ATOM     44  H   UNL     1      -6.645 -11.417  10.001  0.00  0.00    +0.157 HD
ENDROOT
BRANCH  29  31
ATOM      2  F   UNL     1      -5.667  -9.183   8.286  0.00  0.00    -0.205 F 
ATOM      3  F   UNL     1      -3.841 -13.566   8.162  0.00  0.00    -0.205 F 
ATOM     31  C   UNL     1      -4.750 -11.374   8.261  0.00  0.00    +0.107 A 
ATOM     34  C   UNL     1      -5.299 -10.275   7.601  0.00  0.00    +0.138 A 
ATOM     35  C   UNL     1      -4.370 -12.504   7.538  0.00  0.00    +0.138 A 
ATOM     37  C   UNL     1      -5.469 -10.306   6.217  0.00  0.00    +0.039 A 
ATOM     38  C   UNL     1      -4.539 -12.535   6.153  0.00  0.00    +0.039 A 
ATOM     40  C   UNL     1      -5.089 -11.437   5.494  0.00  0.00    +0.006 A 
ENDBRANCH  29  31
BRANCH  17   4
ATOM      4  O   UNL     1      -7.234 -12.241  20.287  0.00  0.00    -0.391 OA
ATOM     41  H   UNL     1      -7.357 -13.161  20.576  0.00  0.00    +0.210 HD
ENDBRANCH  17   4
BRANCH  14  22
ATOM     22  C   UNL     1      -8.387 -10.674  18.220  0.00  0.00    +0.165 C 
BRANCH  22   5
ATOM      5  O   UNL     1      -9.542 -11.103  18.904  0.00  0.00    -0.394 OA
ATOM     42  H   UNL     1      -9.379 -12.013  19.207  0.00  0.00    +0.209 HD
ENDBRANCH  22   5
ENDBRANCH  14  22
BRANCH  15  25
ATOM     25  C   UNL     1      -3.288 -10.527  15.028  0.00  0.00    +0.106 C 
BRANCH  25  26
ATOM      6  O   UNL     1      -1.049 -11.219  15.632  0.00  0.00    -0.276 OA
ATOM      9  N   UNL     1      -2.202 -12.380  13.981  0.00  0.00    -0.311 N 
ATOM     26  C   UNL     1      -2.050 -11.389  14.940  0.00  0.00    +0.214 C 
ATOM     43  H   UNL     1      -3.075 -12.440  13.465  0.00  0.00    +0.149 HD
BRANCH   9  28
ATOM     28  C   UNL     1      -1.174 -13.349  13.678  0.00  0.00    +0.141 C 
BRANCH  28  30
ATOM     11  N   UNL     1      -1.331 -17.117  13.400  0.00  0.00    -0.263 NA
ATOM     30  C   UNL     1      -1.676 -14.758  13.803  0.00  0.00    -0.012 A 
ATOM     32  C   UNL     1      -2.898 -15.033  14.408  0.00  0.00    +0.008 A 
ATOM     33  C   UNL     1      -0.936 -15.826  13.321  0.00  0.00    +0.115 A 
ATOM     36  C   UNL     1      -3.338 -16.348  14.509  0.00  0.00    +0.020 A 
ATOM     39  C   UNL     1      -2.524 -17.345  13.994  0.00  0.00    +0.111 A 
ENDBRANCH  28  30
ENDBRANCH   9  28
ENDBRANCH  25  26
ENDBRANCH  15  25
TORSDOF 8
ENDMDL
MODEL 4
REMARK VINA RESULT:      -6.5     14.550     17.187
REMARK  Name = 11879507
REMARK  10 active torsions:
REMARK  status: ('A' for Active; 'I' for Inactive)
REMARK    1  A    between atoms: O_4  and  C_17
REMARK    2  A    between atoms: O_5  and  C_22
REMARK    3  A    between atoms: N_9  and  C_28
REMARK    4  A    between atoms: C_12  and  C_20
REMARK    5  A    between atoms: C_14  and  C_22
REMARK    6  A    between atoms: C_14  and  C_23
REMARK    7  A    between atoms: C_15  and  C_25
REMARK    8  A    between atoms: C_25  and  C_26
REMARK    9  A    between atoms: C_28  and  C_30
REMARK   10  A    between atoms: C_29  and  C_31
REMARK                            x       y       z     vdW  Elec       q    Type
REMARK                         _______ _______ _______ _____ _____    ______ ____
ROOT
ATOM      1  S   UNL     1      21.170  -5.170   0.854  0.00  0.00    -0.057 S 
ATOM      7  O   UNL     1      18.469  -6.270  -2.775  0.00  0.00    -0.270 OA
ATOM      8  N   UNL     1      19.869  -7.085  -0.299  0.00  0.00    -0.229 NA
ATOM     10  N   UNL     1      19.786  -4.922  -1.359  0.00  0.00    -0.261 N 
ATOM     12  C   UNL     1      21.382  -9.503   2.295  0.00  0.00    -0.019 C 
ATOM     13  C   UNL     1      21.448  -8.378   3.420  0.00  0.00    +0.011 C 
ATOM     14  C   UNL     1      22.139  -8.771   4.783  0.00  0.00    +0.021 C 
ATOM     15  C   UNL     1      20.290  -9.057   1.216  0.00  0.00    +0.054 C 
ATOM     16  C   UNL     1      20.923 -10.842   2.930  0.00  0.00    +0.010 C 
ATOM     17  C   UNL     1      21.601 -10.152   5.251  0.00  0.00    +0.123 C 
ATOM     18  C   UNL     1      21.934  -7.019   2.838  0.00  0.00    +0.049 C 
ATOM     19  C   UNL     1      21.701 -11.231   4.178  0.00  0.00    +0.032 C 
ATOM     20  C   UNL     1      22.742  -9.727   1.588  0.00  0.00    +0.012 C 
ATOM     21  C   UNL     1      20.472  -7.612   0.827  0.00  0.00    +0.058 A 
ATOM     23  C   UNL     1      21.744  -7.729   5.869  0.00  0.00    +0.016 C 
ATOM     24  C   UNL     1      21.198  -6.711   1.579  0.00  0.00    +0.015 A 
ATOM     27  C   UNL     1      20.172  -5.808  -0.389  0.00  0.00    +0.165 A 
ATOM     29  C   UNL     1      18.974  -5.194  -2.473  0.00  0.00    +0.255 C 
ATOM     44  H   UNL     1      20.125  -3.974  -1.217  0.00  0.00    +0.157 HD
ENDROOT
BRANCH  29  31
ATOM      2  F   UNL     1      20.830  -4.215  -4.361  0.00  0.00    -0.205 F 
ATOM      3  F   UNL     1      16.532  -3.785  -2.387  0.00  0.00    -0.205 F 
ATOM     31  C   UNL     1      18.688  -4.029  -3.352  0.00  0.00    +0.107 A 
ATOM     34  C   UNL     1      19.647  -3.592  -4.265  0.00  0.00    +0.138 A 
ATOM     35  C   UNL     1      17.460  -3.374  -3.261  0.00  0.00    +0.138 A 
ATOM     37  C   UNL     1      19.378  -2.500  -5.090  0.00  0.00    +0.039 A 
ATOM     38  C   UNL     1      17.192  -2.281  -4.086  0.00  0.00    +0.039 A 
ATOM     40  C   UNL     1      18.150  -1.844  -5.000  0.00  0.00    +0.006 A 
ENDBRANCH  29  31
BRANCH  17   4
ATOM      4  O   UNL     1      22.301 -10.596   6.414  0.00  0.00    -0.391 OA
ATOM     41  H   UNL     1      22.531  -9.810   6.938  0.00  0.00    +0.210 HD
ENDBRANCH  17   4
BRANCH  14  22
ATOM     22  C   UNL     1      23.683  -8.764   4.744  0.00  0.00    +0.165 C 
BRANCH  22   5
ATOM      5  O   UNL     1      24.144  -8.288   5.988  0.00  0.00    -0.394 OA
ATOM     42  H   UNL     1      24.371  -9.063   6.529  0.00  0.00    +0.209 HD
ENDBRANCH  22   5
ENDBRANCH  14  22
BRANCH  15  25
ATOM     25  C   UNL     1      20.206  -9.965  -0.018  0.00  0.00    +0.106 C 
BRANCH  25  26
ATOM      6  O   UNL     1      18.189  -9.769  -1.341  0.00  0.00    -0.276 OA
ATOM      9  N   UNL     1      18.230 -11.213   0.480  0.00  0.00    -0.311 N 
ATOM     26  C   UNL     1      18.776 -10.281  -0.392  0.00  0.00    +0.214 C 
ATOM     43  H   UNL     1      18.804 -11.582   1.233  0.00  0.00    +0.149 HD
BRANCH   9  28
ATOM     28  C   UNL     1      16.875 -11.700   0.366  0.00  0.00    +0.141 C 
BRANCH  28  30
ATOM     11  N   UNL     1      14.983 -13.614   3.023  0.00  0.00    -0.263 NA
ATOM     30  C   UNL     1      16.299 -12.076   1.701  0.00  0.00    -0.012 A 
ATOM     32  C   UNL     1      16.519 -11.287   2.825  0.00  0.00    +0.008 A 
ATOM     33  C   UNL     1      15.531 -13.219   1.852  0.00  0.00    +0.115 A 
ATOM     36  C   UNL     1      15.972 -11.660   4.048  0.00  0.00    +0.020 A 
ATOM     39  C   UNL     1      15.219 -12.821   4.093  0.00  0.00    +0.111 A 
ENDBRANCH  28  30
ENDBRANCH   9  28
ENDBRANCH  25  26
ENDBRANCH  15  25
TORSDOF 8
ENDMDL
MODEL 5
REMARK VINA RESULT:      -6.4     27.389     32.495
REMARK  Name = 11879507
REMARK  10 active torsions:
REMARK  status: ('A' for Active; 'I' for Inactive)
REMARK    1  A    between atoms: O_4  and  C_17
REMARK    2  A    between atoms: O_5  and  C_22
REMARK    3  A    between atoms: N_9  and  C_28
REMARK    4  A    between atoms: C_12  and  C_20
REMARK    5  A    between atoms: C_14  and  C_22
REMARK    6  A    between atoms: C_14  and  C_23
REMARK    7  A    between atoms: C_15  and  C_25
REMARK    8  A    between atoms: C_25  and  C_26
REMARK    9  A    between atoms: C_28  and  C_30
REMARK   10  A    between atoms: C_29  and  C_31
REMARK                            x       y       z     vdW  Elec       q    Type
REMARK                         _______ _______ _______ _____ _____    ______ ____
ROOT
ATOM      1  S   UNL     1     -10.114  -9.935  13.103  0.00  0.00    -0.057 S 
ATOM      7  O   UNL     1      -5.460  -9.956  13.227  0.00  0.00    -0.270 OA
ATOM      8  N   UNL     1      -8.049  -9.953  14.660  0.00  0.00    -0.229 NA
ATOM     10  N   UNL     1      -7.622  -9.938  12.288  0.00  0.00    -0.261 N 
ATOM     12  C   UNL     1     -10.456  -9.563  17.646  0.00  0.00    -0.019 C 
ATOM     13  C   UNL     1     -11.622 -10.361  16.910  0.00  0.00    +0.011 C 
ATOM     14  C   UNL     1     -13.013 -10.437  17.650  0.00  0.00    +0.021 C 
ATOM     15  C   UNL     1      -9.071  -9.977  16.966  0.00  0.00    +0.054 C 
ATOM     16  C   UNL     1     -10.411  -9.977  19.140  0.00  0.00    +0.010 C 
ATOM     17  C   UNL     1     -12.782 -10.817  19.140  0.00  0.00    +0.123 C 
ATOM     18  C   UNL     1     -11.730  -9.957  15.411  0.00  0.00    +0.049 C 
ATOM     19  C   UNL     1     -11.763  -9.922  19.837  0.00  0.00    +0.032 C 
ATOM     20  C   UNL     1     -10.633  -8.026  17.560  0.00  0.00    +0.012 C 
ATOM     21  C   UNL     1      -9.174  -9.944  15.462  0.00  0.00    +0.058 A 
ATOM     23  C   UNL     1     -13.865 -11.571  17.012  0.00  0.00    +0.016 C 
ATOM     24  C   UNL     1     -10.377  -9.954  14.786  0.00  0.00    +0.015 A 
ATOM     27  C   UNL     1      -8.422  -9.943  13.399  0.00  0.00    +0.165 A 
ATOM     29  C   UNL     1      -6.218  -9.945  12.263  0.00  0.00    +0.255 C 
ATOM     44  H   UNL     1      -8.130  -9.949  11.407  0.00  0.00    +0.157 HD
ENDROOT
BRANCH  29  31
ATOM      2  F   UNL     1      -5.056  -7.664  11.073  0.00  0.00    -0.205 F 
ATOM      3  F   UNL     1      -6.123 -12.275  10.676  0.00  0.00    -0.205 F 
ATOM     31  C   UNL     1      -5.605  -9.969  10.908  0.00  0.00    +0.107 A 
ATOM     34  C   UNL     1      -5.047  -8.809  10.374  0.00  0.00    +0.138 A 
ATOM     35  C   UNL     1      -5.590 -11.154  10.172  0.00  0.00    +0.138 A 
ATOM     37  C   UNL     1      -4.472  -8.832   9.103  0.00  0.00    +0.039 A 
ATOM     38  C   UNL     1      -5.015 -11.177   8.901  0.00  0.00    +0.039 A 
ATOM     40  C   UNL     1      -4.457 -10.016   8.367  0.00  0.00    +0.006 A 
ENDBRANCH  29  31
BRANCH  17   4
ATOM      4  O   UNL     1     -14.009 -10.768  19.868  0.00  0.00    -0.391 OA
ATOM     41  H   UNL     1     -13.824 -10.354  20.729  0.00  0.00    +0.210 HD
ENDBRANCH  17   4
BRANCH  14  22
ATOM     22  C   UNL     1     -13.871  -9.158  17.534  0.00  0.00    +0.165 C 
BRANCH  22   5
ATOM      5  O   UNL     1     -15.227  -9.546  17.544  0.00  0.00    -0.394 OA
ATOM     42  H   UNL     1     -15.551  -9.491  16.629  0.00  0.00    +0.209 HD
ENDBRANCH  22   5
ENDBRANCH  14  22
BRANCH  15  25
ATOM     25  C   UNL     1      -7.855  -9.184  17.463  0.00  0.00    +0.106 C 
BRANCH  25  26
ATOM      6  O   UNL     1      -6.928 -10.521  19.256  0.00  0.00    -0.276 OA
ATOM      9  N   UNL     1      -5.762 -10.318  17.255  0.00  0.00    -0.311 N 
ATOM     26  C   UNL     1      -6.824 -10.078  18.115  0.00  0.00    +0.214 C 
ATOM     43  H   UNL     1      -5.774  -9.909  16.326  0.00  0.00    +0.149 HD
BRANCH   9  28
ATOM     28  C   UNL     1      -4.627 -11.138  17.613  0.00  0.00    +0.141 C 
BRANCH  28  30
ATOM     11  N   UNL     1      -3.244 -12.522  14.378  0.00  0.00    -0.263 NA
ATOM     30  C   UNL     1      -3.707 -11.364  16.449  0.00  0.00    -0.012 A 
ATOM     32  C   UNL     1      -2.506 -10.672  16.339  0.00  0.00    +0.008 A 
ATOM     33  C   UNL     1      -4.027 -12.270  15.451  0.00  0.00    +0.115 A 
ATOM     36  C   UNL     1      -1.674 -10.903  15.249  0.00  0.00    +0.020 A 
ATOM     39  C   UNL     1      -2.085 -11.830  14.305  0.00  0.00    +0.111 A 
ENDBRANCH  28  30
ENDBRANCH   9  28
ENDBRANCH  25  26
ENDBRANCH  15  25
TORSDOF 8
ENDMDL
MODEL 6
REMARK VINA RESULT:      -6.4     38.745     41.940
REMARK  Name = 11879507
REMARK  10 active torsions:
REMARK  status: ('A' for Active; 'I' for Inactive)
REMARK    1  A    between atoms: O_4  and  C_17
REMARK    2  A    between atoms: O_5  and  C_22
REMARK    3  A    between atoms: N_9  and  C_28
REMARK    4  A    between atoms: C_12  and  C_20
REMARK    5  A    between atoms: C_14  and  C_22
REMARK    6  A    between atoms: C_14  and  C_23
REMARK    7  A    between atoms: C_15  and  C_25
REMARK    8  A    between atoms: C_25  and  C_26
REMARK    9  A    between atoms: C_28  and  C_30
REMARK   10  A    between atoms: C_29  and  C_31
REMARK                            x       y       z     vdW  Elec       q    Type
REMARK                         _______ _______ _______ _____ _____    ______ ____
ROOT
ATOM      1  S   UNL     1      -6.128   8.318  41.890  0.00  0.00    -0.057 S 
ATOM      7  O   UNL     1      -9.091  10.705  39.206  0.00  0.00    -0.270 OA
ATOM      8  N   UNL     1      -6.461   9.398  39.563  0.00  0.00    -0.229 NA
ATOM     10  N   UNL     1      -8.290   9.587  41.120  0.00  0.00    -0.261 N 
ATOM     12  C   UNL     1      -2.783   8.544  38.783  0.00  0.00    -0.019 C 
ATOM     13  C   UNL     1      -2.807   7.245  39.705  0.00  0.00    +0.011 C 
ATOM     14  C   UNL     1      -1.443   6.476  39.892  0.00  0.00    +0.021 C 
ATOM     15  C   UNL     1      -4.289   8.891  38.382  0.00  0.00    +0.054 C 
ATOM     16  C   UNL     1      -1.989   8.240  37.486  0.00  0.00    +0.010 C 
ATOM     17  C   UNL     1      -0.761   6.297  38.507  0.00  0.00    +0.123 C 
ATOM     18  C   UNL     1      -3.568   7.508  41.037  0.00  0.00    +0.049 C 
ATOM     19  C   UNL     1      -0.629   7.602  37.729  0.00  0.00    +0.032 C 
ATOM     20  C   UNL     1      -2.141   9.767  39.485  0.00  0.00    +0.012 C 
ATOM     21  C   UNL     1      -5.196   8.839  39.585  0.00  0.00    +0.058 A 
ATOM     23  C   UNL     1      -1.736   5.053  40.449  0.00  0.00    +0.016 C 
ATOM     24  C   UNL     1      -4.860   8.197  40.759  0.00  0.00    +0.015 A 
ATOM     27  C   UNL     1      -7.040   9.191  40.725  0.00  0.00    +0.165 A 
ATOM     29  C   UNL     1      -9.225  10.306  40.357  0.00  0.00    +0.255 C 
ATOM     44  H   UNL     1      -8.540   9.300  42.062  0.00  0.00    +0.157 HD
ENDROOT
BRANCH  29  31
ATOM      2  F   UNL     1     -11.168   8.304  40.784  0.00  0.00    -0.205 F 
ATOM      3  F   UNL     1      -9.942  12.862  41.313  0.00  0.00    -0.205 F 
ATOM     31  C   UNL     1     -10.523  10.576  41.031  0.00  0.00    +0.107 A 
ATOM     34  C   UNL     1     -11.443   9.545  41.213  0.00  0.00    +0.138 A 
ATOM     35  C   UNL     1     -10.819  11.863  41.481  0.00  0.00    +0.138 A 
ATOM     37  C   UNL     1     -12.660   9.798  41.844  0.00  0.00    +0.039 A 
ATOM     38  C   UNL     1     -12.037  12.117  42.114  0.00  0.00    +0.039 A 
ATOM     40  C   UNL     1     -12.956  11.084  42.295  0.00  0.00    +0.006 A 
ENDBRANCH  29  31
BRANCH  17   4
ATOM      4  O   UNL     1       0.537   5.719  38.655  0.00  0.00    -0.391 OA
ATOM     41  H   UNL     1       0.418   4.796  38.936  0.00  0.00    +0.210 HD
ENDBRANCH  17   4
BRANCH  14  22
ATOM     22  C   UNL     1      -0.474   7.126  40.904  0.00  0.00    +0.165 C 
BRANCH  22   5
ATOM      5  O   UNL     1       0.231   6.091  41.553  0.00  0.00    -0.394 OA
ATOM     42  H   UNL     1       1.145   6.398  41.679  0.00  0.00    +0.209 HD
ENDBRANCH  22   5
ENDBRANCH  14  22
BRANCH  15  25
ATOM     25  C   UNL     1      -4.456  10.207  37.610  0.00  0.00    +0.106 C 
BRANCH  25  26
ATOM      6  O   UNL     1      -4.721   9.871  35.228  0.00  0.00    -0.276 OA
ATOM      9  N   UNL     1      -6.605  10.038  36.579  0.00  0.00    -0.311 N 
ATOM     26  C   UNL     1      -5.240  10.018  36.331  0.00  0.00    +0.214 C 
ATOM     43  H   UNL     1      -6.934  10.160  37.532  0.00  0.00    +0.149 HD
BRANCH   9  28
ATOM     28  C   UNL     1      -7.597   9.884  35.540  0.00  0.00    +0.141 C 
BRANCH  28  30
ATOM     11  N   UNL     1     -11.252   9.031  35.997  0.00  0.00    -0.263 NA
ATOM     30  C   UNL     1      -8.843   9.217  36.046  0.00  0.00    -0.012 A 
ATOM     32  C   UNL     1      -8.777   8.203  36.997  0.00  0.00    +0.008 A 
ATOM     33  C   UNL     1     -10.093   9.590  35.582  0.00  0.00    +0.115 A 
ATOM     36  C   UNL     1      -9.947   7.603  37.449  0.00  0.00    +0.020 A 
ATOM     39  C   UNL     1     -11.149   8.050  36.922  0.00  0.00    +0.111 A 
ENDBRANCH  28  30
ENDBRANCH   9  28
ENDBRANCH  25  26
ENDBRANCH  15  25
TORSDOF 8
ENDMDL
MODEL 7
REMARK VINA RESULT:      -6.4     31.474     36.025
REMARK  Name = 11879507
REMARK  10 active torsions:
REMARK  status: ('A' for Active; 'I' for Inactive)
REMARK    1  A    between atoms: O_4  and  C_17
REMARK    2  A    between atoms: O_5  and  C_22
REMARK    3  A    between atoms: N_9  and  C_28
REMARK    4  A    between atoms: C_12  and  C_20
REMARK    5  A    between atoms: C_14  and  C_22
REMARK    6  A    between atoms: C_14  and  C_23
REMARK    7  A    between atoms: C_15  and  C_25
REMARK    8  A    between atoms: C_25  and  C_26
REMARK    9  A    between atoms: C_28  and  C_30
REMARK   10  A    between atoms: C_29  and  C_31
REMARK                            x       y       z     vdW  Elec       q    Type
REMARK                         _______ _______ _______ _____ _____    ______ ____
ROOT
ATOM      1  S   UNL     1     -12.922   5.059  22.556  0.00  0.00    -0.057 S 
ATOM      7  O   UNL     1     -17.049   5.209  24.706  0.00  0.00    -0.270 OA
ATOM      8  N   UNL     1     -15.101   6.424  22.840  0.00  0.00    -0.229 NA
ATOM     10  N   UNL     1     -14.927   4.378  24.103  0.00  0.00    -0.261 N 
ATOM     12  C   UNL     1     -13.505   9.181  20.669  0.00  0.00    -0.019 C 
ATOM     13  C   UNL     1     -12.647   8.133  19.831  0.00  0.00    +0.011 C 
ATOM     14  C   UNL     1     -11.625   8.721  18.783  0.00  0.00    +0.021 C 
ATOM     15  C   UNL     1     -14.740   8.401  21.315  0.00  0.00    +0.054 C 
ATOM     16  C   UNL     1     -14.060  10.272  19.716  0.00  0.00    +0.010 C 
ATOM     17  C   UNL     1     -12.329   9.827  17.947  0.00  0.00    +0.123 C 
ATOM     18  C   UNL     1     -12.040   7.032  20.749  0.00  0.00    +0.049 C 
ATOM     19  C   UNL     1     -13.009  10.888  18.805  0.00  0.00    +0.032 C 
ATOM     20  C   UNL     1     -12.686   9.869  21.790  0.00  0.00    +0.012 C 
ATOM     21  C   UNL     1     -14.292   7.112  21.956  0.00  0.00    +0.058 A 
ATOM     23  C   UNL     1     -11.206   7.594  17.797  0.00  0.00    +0.016 C 
ATOM     24  C   UNL     1     -13.085   6.506  21.673  0.00  0.00    +0.015 A 
ATOM     27  C   UNL     1     -14.480   5.331  23.227  0.00  0.00    +0.165 A 
ATOM     29  C   UNL     1     -16.158   4.370  24.779  0.00  0.00    +0.255 C 
ATOM     44  H   UNL     1     -14.284   3.603  24.241  0.00  0.00    +0.157 HD
ENDROOT
BRANCH  29  31
ATOM      2  F   UNL     1     -16.049   4.507  27.596  0.00  0.00    -0.205 F 
ATOM      3  F   UNL     1     -16.757   1.812  23.750  0.00  0.00    -0.205 F 
ATOM     31  C   UNL     1     -16.397   3.189  25.651  0.00  0.00    +0.107 A 
ATOM     34  C   UNL     1     -16.329   3.320  27.038  0.00  0.00    +0.138 A 
ATOM     35  C   UNL     1     -16.689   1.949  25.081  0.00  0.00    +0.138 A 
ATOM     37  C   UNL     1     -16.552   2.213  27.856  0.00  0.00    +0.039 A 
ATOM     38  C   UNL     1     -16.913   0.842  25.900  0.00  0.00    +0.039 A 
ATOM     40  C   UNL     1     -16.844   0.974  27.286  0.00  0.00    +0.006 A 
ENDBRANCH  29  31
BRANCH  17   4
ATOM      4  O   UNL     1     -11.397  10.470  17.077  0.00  0.00    -0.391 OA
ATOM     41  H   UNL     1     -11.156  11.322  17.479  0.00  0.00    +0.210 HD
ENDBRANCH  17   4
BRANCH  14  22
ATOM     22  C   UNL     1     -10.309   9.247  19.396  0.00  0.00    +0.165 C 
BRANCH  22   5
ATOM      5  O   UNL     1      -9.340   9.283  18.373  0.00  0.00    -0.394 OA
ATOM     42  H   UNL     1      -8.697   9.974  18.606  0.00  0.00    +0.209 HD
ENDBRANCH  22   5
ENDBRANCH  14  22
BRANCH  15  25
ATOM     25  C   UNL     1     -15.591   9.240  22.278  0.00  0.00    +0.106 C 
BRANCH  25  26
ATOM      6  O   UNL     1     -17.938   9.793  22.485  0.00  0.00    -0.276 OA
ATOM      9  N   UNL     1     -17.306   7.906  21.283  0.00  0.00    -0.311 N 
ATOM     26  C   UNL     1     -17.071   9.042  22.046  0.00  0.00    +0.214 C 
ATOM     43  H   UNL     1     -16.516   7.354  20.962  0.00  0.00    +0.149 HD
BRANCH   9  28
ATOM     28  C   UNL     1     -18.630   7.468  20.908  0.00  0.00    +0.141 C 
BRANCH  28  30
ATOM     11  N   UNL     1     -17.873   3.764  20.932  0.00  0.00    -0.263 NA
ATOM     30  C   UNL     1     -18.656   6.015  20.531  0.00  0.00    -0.012 A 
ATOM     32  C   UNL     1     -19.442   5.562  19.477  0.00  0.00    +0.008 A 
ATOM     33  C   UNL     1     -17.897   5.084  21.221  0.00  0.00    +0.115 A 
ATOM     36  C   UNL     1     -19.445   4.210  19.150  0.00  0.00    +0.020 A 
ATOM     39  C   UNL     1     -18.650   3.360  19.902  0.00  0.00    +0.111 A 
ENDBRANCH  28  30
ENDBRANCH   9  28
ENDBRANCH  25  26
ENDBRANCH  15  25
TORSDOF 8
ENDMDL
MODEL 8
REMARK VINA RESULT:      -6.3     16.965     19.728
REMARK  Name = 11879507
REMARK  10 active torsions:
REMARK  status: ('A' for Active; 'I' for Inactive)
REMARK    1  A    between atoms: O_4  and  C_17
REMARK    2  A    between atoms: O_5  and  C_22
REMARK    3  A    between atoms: N_9  and  C_28
REMARK    4  A    between atoms: C_12  and  C_20
REMARK    5  A    between atoms: C_14  and  C_22
REMARK    6  A    between atoms: C_14  and  C_23
REMARK    7  A    between atoms: C_15  and  C_25
REMARK    8  A    between atoms: C_25  and  C_26
REMARK    9  A    between atoms: C_28  and  C_30
REMARK   10  A    between atoms: C_29  and  C_31
REMARK                            x       y       z     vdW  Elec       q    Type
REMARK                         _______ _______ _______ _____ _____    ______ ____
ROOT
ATOM      1  S   UNL     1      18.957 -10.081  -1.622  0.00  0.00    -0.057 S 
ATOM      7  O   UNL     1      18.821 -14.285   0.376  0.00  0.00    -0.270 OA
ATOM      8  N   UNL     1      19.668 -11.451   0.454  0.00  0.00    -0.229 NA
ATOM     10  N   UNL     1      18.434 -12.624  -1.252  0.00  0.00    -0.261 N 
ATOM     12  C   UNL     1      21.644  -8.365   1.654  0.00  0.00    -0.019 C 
ATOM     13  C   UNL     1      20.627  -7.350   0.967  0.00  0.00    +0.011 C 
ATOM     14  C   UNL     1      21.000  -5.818   1.021  0.00  0.00    +0.021 C 
ATOM     15  C   UNL     1      20.883  -9.753   1.871  0.00  0.00    +0.054 C 
ATOM     16  C   UNL     1      22.063  -7.815   3.042  0.00  0.00    +0.010 C 
ATOM     17  C   UNL     1      21.439  -5.448   2.466  0.00  0.00    +0.123 C 
ATOM     18  C   UNL     1      20.199  -7.842  -0.446  0.00  0.00    +0.049 C 
ATOM     19  C   UNL     1      22.525  -6.365   3.018  0.00  0.00    +0.032 C 
ATOM     20  C   UNL     1      22.919  -8.603   0.807  0.00  0.00    +0.012 C 
ATOM     21  C   UNL     1      20.136 -10.162   0.626  0.00  0.00    +0.058 A 
ATOM     23  C   UNL     1      19.734  -4.976   0.694  0.00  0.00    +0.016 C 
ATOM     24  C   UNL     1      19.824  -9.284  -0.391  0.00  0.00    +0.015 A 
ATOM     27  C   UNL     1      19.038 -11.527  -0.698  0.00  0.00    +0.165 A 
ATOM     29  C   UNL     1      18.361 -13.913  -0.698  0.00  0.00    +0.255 C 
ATOM     44  H   UNL     1      17.988 -12.447  -2.148  0.00  0.00    +0.157 HD
ENDROOT
BRANCH  29  31
ATOM      2  F   UNL     1      19.509 -15.264  -2.894  0.00  0.00    -0.205 F 
ATOM      3  F   UNL     1      15.680 -14.610  -0.162  0.00  0.00    -0.205 F 
ATOM     31  C   UNL     1      17.613 -14.911  -1.507  0.00  0.00    +0.107 A 
ATOM     34  C   UNL     1      18.236 -15.546  -2.582  0.00  0.00    +0.138 A 
ATOM     35  C   UNL     1      16.288 -15.213  -1.192  0.00  0.00    +0.138 A 
ATOM     37  C   UNL     1      17.535 -16.483  -3.341  0.00  0.00    +0.039 A 
ATOM     38  C   UNL     1      15.587 -16.150  -1.951  0.00  0.00    +0.039 A 
ATOM     40  C   UNL     1      16.210 -16.784  -3.025  0.00  0.00    +0.006 A 
ENDBRANCH  29  31
BRANCH  17   4
ATOM      4  O   UNL     1      21.907  -4.100   2.520  0.00  0.00    -0.391 OA
ATOM     41  H   UNL     1      22.608  -4.058   3.193  0.00  0.00    +0.210 HD
ENDBRANCH  17   4
BRANCH  14  22
ATOM     22  C   UNL     1      22.066  -5.382  -0.007  0.00  0.00    +0.165 C 
BRANCH  22   5
ATOM      5  O   UNL     1      21.566  -4.258  -0.697  0.00  0.00    -0.394 OA
ATOM     42  H   UNL     1      20.730  -4.004  -0.270  0.00  0.00    +0.209 HD
ENDBRANCH  22   5
ENDBRANCH  14  22
BRANCH  15  25
ATOM     25  C   UNL     1      21.770 -10.892   2.392  0.00  0.00    +0.106 C 
BRANCH  25  26
ATOM      6  O   UNL     1      21.502 -11.226   4.774  0.00  0.00    -0.276 OA
ATOM      9  N   UNL     1      20.275 -12.527   3.288  0.00  0.00    -0.311 N 
ATOM     26  C   UNL     1      21.190 -11.540   3.628  0.00  0.00    +0.214 C 
ATOM     43  H   UNL     1      20.082 -12.706   2.307  0.00  0.00    +0.149 HD
BRANCH   9  28
ATOM     28  C   UNL     1      19.566 -13.316   4.269  0.00  0.00    +0.141 C 
BRANCH  28  30
ATOM     11  N   UNL     1      16.139 -12.286   3.047  0.00  0.00    -0.263 NA
ATOM     30  C   UNL     1      18.093 -13.029   4.262  0.00  0.00    -0.012 A 
ATOM     32  C   UNL     1      17.320 -13.221   5.402  0.00  0.00    +0.008 A 
ATOM     33  C   UNL     1      17.460 -12.565   3.120  0.00  0.00    +0.115 A 
ATOM     36  C   UNL     1      15.957 -12.946   5.367  0.00  0.00    +0.020 A 
ATOM     39  C   UNL     1      15.420 -12.484   4.176  0.00  0.00    +0.111 A 
ENDBRANCH  28  30
ENDBRANCH   9  28
ENDBRANCH  25  26
ENDBRANCH  15  25
TORSDOF 8
ENDMDL
MODEL 9
REMARK VINA RESULT:      -6.3     43.838     46.130
REMARK  Name = 11879507
REMARK  10 active torsions:
REMARK  status: ('A' for Active; 'I' for Inactive)
REMARK    1  A    between atoms: O_4  and  C_17
REMARK    2  A    between atoms: O_5  and  C_22
REMARK    3  A    between atoms: N_9  and  C_28
REMARK    4  A    between atoms: C_12  and  C_20
REMARK    5  A    between atoms: C_14  and  C_22
REMARK    6  A    between atoms: C_14  and  C_23
REMARK    7  A    between atoms: C_15  and  C_25
REMARK    8  A    between atoms: C_25  and  C_26
REMARK    9  A    between atoms: C_28  and  C_30
REMARK   10  A    between atoms: C_29  and  C_31
REMARK                            x       y       z     vdW  Elec       q    Type
REMARK                         _______ _______ _______ _____ _____    ______ ____
ROOT
ATOM      1  S   UNL     1      -5.841  -7.569  39.465  0.00  0.00    -0.057 S 
ATOM      7  O   UNL     1      -7.026 -11.959  38.463  0.00  0.00    -0.270 OA
ATOM      8  N   UNL     1      -7.823  -9.214  39.223  0.00  0.00    -0.229 NA
ATOM     10  N   UNL     1      -5.620 -10.100  38.812  0.00  0.00    -0.261 N 
ATOM     12  C   UNL     1     -10.134  -6.421  40.538  0.00  0.00    -0.019 C 
ATOM     13  C   UNL     1      -9.227  -5.270  39.914  0.00  0.00    +0.011 C 
ATOM     14  C   UNL     1      -9.634  -3.781  40.243  0.00  0.00    +0.021 C 
ATOM     15  C   UNL     1      -9.828  -7.773  39.744  0.00  0.00    +0.054 C 
ATOM     16  C   UNL     1     -11.630  -6.064  40.339  0.00  0.00    +0.010 C 
ATOM     17  C   UNL     1     -11.165  -3.611  40.036  0.00  0.00    +0.123 C 
ATOM     18  C   UNL     1      -7.712  -5.566  40.116  0.00  0.00    +0.049 C 
ATOM     19  C   UNL     1     -11.992  -4.653  40.780  0.00  0.00    +0.032 C 
ATOM     20  C   UNL     1      -9.871  -6.639  42.049  0.00  0.00    +0.012 C 
ATOM     21  C   UNL     1      -8.344  -7.986  39.587  0.00  0.00    +0.058 A 
ATOM     23  C   UNL     1      -8.923  -2.828  39.241  0.00  0.00    +0.016 C 
ATOM     24  C   UNL     1      -7.415  -6.977  39.740  0.00  0.00    +0.015 A 
ATOM     27  C   UNL     1      -6.515  -9.115  39.136  0.00  0.00    +0.165 A 
ATOM     29  C   UNL     1      -5.917 -11.436  38.500  0.00  0.00    +0.255 C 
ATOM     44  H   UNL     1      -4.652  -9.792  38.786  0.00  0.00    +0.157 HD
ENDROOT
BRANCH  29  31
ATOM      2  F   UNL     1      -4.204 -12.542  40.452  0.00  0.00    -0.205 F 
ATOM      3  F   UNL     1      -5.229 -12.071  35.839  0.00  0.00    -0.205 F 
ATOM     31  C   UNL     1      -4.746 -12.284  38.154  0.00  0.00    +0.107 A 
ATOM     34  C   UNL     1      -3.936 -12.802  39.164  0.00  0.00    +0.138 A 
ATOM     35  C   UNL     1      -4.457 -12.562  36.818  0.00  0.00    +0.138 A 
ATOM     37  C   UNL     1      -2.837 -13.597  38.840  0.00  0.00    +0.039 A 
ATOM     38  C   UNL     1      -3.358 -13.358  36.493  0.00  0.00    +0.039 A 
ATOM     40  C   UNL     1      -2.549 -13.875  37.504  0.00  0.00    +0.006 A 
ENDBRANCH  29  31
BRANCH  17   4
ATOM      4  O   UNL     1     -11.587  -2.311  40.450  0.00  0.00    -0.391 OA
ATOM     41  H   UNL     1     -12.551  -2.262  40.333  0.00  0.00    +0.210 HD
ENDBRANCH  17   4
BRANCH  14  22
ATOM     22  C   UNL     1      -9.209  -3.297  41.647  0.00  0.00    +0.165 C 
BRANCH  22   5
ATOM      5  O   UNL     1      -8.663  -2.005  41.511  0.00  0.00    -0.394 OA
ATOM     42  H   UNL     1      -8.523  -1.847  40.562  0.00  0.00    +0.209 HD
ENDBRANCH  22   5
ENDBRANCH  14  22
BRANCH  15  25
ATOM     25  C   UNL     1     -10.516  -9.019  40.319  0.00  0.00    +0.106 C 
BRANCH  25  26
ATOM      6  O   UNL     1     -12.771  -9.665  39.722  0.00  0.00    -0.276 OA
ATOM      9  N   UNL     1     -11.064  -9.878  38.158  0.00  0.00    -0.311 N 
ATOM     26  C   UNL     1     -11.592  -9.547  39.398  0.00  0.00    +0.214 C 
ATOM     43  H   UNL     1     -10.073  -9.737  37.987  0.00  0.00    +0.149 HD
BRANCH   9  28
ATOM     28  C   UNL     1     -11.863 -10.412  37.079  0.00  0.00    +0.141 C 
BRANCH  28  30
ATOM     11  N   UNL     1      -9.217 -12.907  36.042  0.00  0.00    -0.263 NA
ATOM     30  C   UNL     1     -11.216 -11.606  36.438  0.00  0.00    -0.012 A 
ATOM     32  C   UNL     1     -11.957 -12.497  35.670  0.00  0.00    +0.008 A 
ATOM     33  C   UNL     1      -9.861 -11.853  36.592  0.00  0.00    +0.115 A 
ATOM     36  C   UNL     1     -11.330 -13.594  35.088  0.00  0.00    +0.020 A 
ATOM     39  C   UNL     1      -9.971 -13.752  35.303  0.00  0.00    +0.111 A 
ENDBRANCH  28  30
ENDBRANCH   9  28
ENDBRANCH  25  26
ENDBRANCH  15  25
TORSDOF 8
ENDMDL
MODEL 10
REMARK VINA RESULT:      -6.2     34.916     38.789
REMARK  Name = 11879507
REMARK  10 active torsions:
REMARK  status: ('A' for Active; 'I' for Inactive)
REMARK    1  A    between atoms: O_4  and  C_17
REMARK    2  A    between atoms: O_5  and  C_22
REMARK    3  A    between atoms: N_9  and  C_28
REMARK    4  A    between atoms: C_12  and  C_20
REMARK    5  A    between atoms: C_14  and  C_22
REMARK    6  A    between atoms: C_14  and  C_23
REMARK    7  A    between atoms: C_15  and  C_25
REMARK    8  A    between atoms: C_25  and  C_26
REMARK    9  A    between atoms: C_28  and  C_30
REMARK   10  A    between atoms: C_29  and  C_31
REMARK                            x       y       z     vdW  Elec       q    Type
REMARK                         _______ _______ _______ _____ _____    ______ ____
ROOT
ATOM      1  S   UNL     1      -0.332  10.330  37.505  0.00  0.00    -0.057 S 
ATOM      7  O   UNL     1      -4.405   8.453  38.758  0.00  0.00    -0.270 OA
ATOM      8  N   UNL     1      -2.888  10.386  37.110  0.00  0.00    -0.229 NA
ATOM     10  N   UNL     1      -2.074   8.805  38.737  0.00  0.00    -0.261 N 
ATOM     12  C   UNL     1      -2.337  13.436  34.816  0.00  0.00    -0.019 C 
ATOM     13  C   UNL     1      -0.894  12.935  34.366  0.00  0.00    +0.011 C 
ATOM     14  C   UNL     1      -0.057  13.902  33.443  0.00  0.00    +0.021 C 
ATOM     15  C   UNL     1      -3.155  12.169  35.345  0.00  0.00    +0.054 C 
ATOM     16  C   UNL     1      -3.085  14.023  33.590  0.00  0.00    +0.010 C 
ATOM     17  C   UNL     1      -0.966  14.433  32.298  0.00  0.00    +0.123 C 
ATOM     18  C   UNL     1      -0.089  12.363  35.569  0.00  0.00    +0.049 C 
ATOM     19  C   UNL     1      -2.272  15.039  32.800  0.00  0.00    +0.032 C 
ATOM     20  C   UNL     1      -2.279  14.513  35.927  0.00  0.00    +0.012 C 
ATOM     21  C   UNL     1      -2.319  11.339  36.286  0.00  0.00    +0.058 A 
ATOM     23  C   UNL     1       1.097  13.098  32.780  0.00  0.00    +0.016 C 
ATOM     24  C   UNL     1      -0.944  11.429  36.356  0.00  0.00    +0.015 A 
ATOM     27  C   UNL     1      -1.938   9.797  37.802  0.00  0.00    +0.165 A 
ATOM     29  C   UNL     1      -3.272   8.201  39.153  0.00  0.00    +0.255 C 
ATOM     44  H   UNL     1      -1.196   8.484  39.135  0.00  0.00    +0.157 HD
ENDROOT
BRANCH  29  31
ATOM      2  F   UNL     1      -1.458   6.061  38.843  0.00  0.00    -0.205 F 
ATOM      3  F   UNL     1      -4.776   8.129  41.539  0.00  0.00    -0.205 F 
ATOM     31  C   UNL     1      -3.121   7.122  40.165  0.00  0.00    +0.107 A 
ATOM     34  C   UNL     1      -2.207   6.090  39.955  0.00  0.00    +0.138 A 
ATOM     35  C   UNL     1      -3.895   7.143  41.326  0.00  0.00    +0.138 A 
ATOM     37  C   UNL     1      -2.066   5.078  40.904  0.00  0.00    +0.039 A 
ATOM     38  C   UNL     1      -3.754   6.130  42.276  0.00  0.00    +0.039 A 
ATOM     40  C   UNL     1      -2.840   5.099  42.064  0.00  0.00    +0.006 A 
ENDBRANCH  29  31
BRANCH  17   4
ATOM      4  O   UNL     1      -0.276  15.411  31.521  0.00  0.00    -0.391 OA
ATOM     41  H   UNL     1      -0.881  16.160  31.384  0.00  0.00    +0.210 HD
ENDBRANCH  17   4
BRANCH  14  22
ATOM     22  C   UNL     1       0.626  15.068  34.190  0.00  0.00    +0.165 C 
BRANCH  22   5
ATOM      5  O   UNL     1       2.015  14.829  34.185  0.00  0.00    -0.394 OA
ATOM     42  H   UNL     1       2.144  13.866  34.163  0.00  0.00    +0.209 HD
ENDBRANCH  22   5
ENDBRANCH  14  22
BRANCH  15  25
ATOM     25  C   UNL     1      -4.523  12.504  35.956  0.00  0.00    +0.106 C 
BRANCH  25  26
ATOM      6  O   UNL     1      -6.206  11.937  34.313  0.00  0.00    -0.276 OA
ATOM      9  N   UNL     1      -5.897  10.560  36.160  0.00  0.00    -0.311 N 
ATOM     26  C   UNL     1      -5.629  11.663  35.362  0.00  0.00    +0.214 C 
ATOM     43  H   UNL     1      -5.357  10.420  37.008  0.00  0.00    +0.149 HD
BRANCH   9  28
ATOM     28  C   UNL     1      -6.912   9.582  35.839  0.00  0.00    +0.141 C 
BRANCH  28  30
ATOM     11  N   UNL     1      -8.316   9.635  39.349  0.00  0.00    -0.263 NA
ATOM     30  C   UNL     1      -7.785   9.270  37.019  0.00  0.00    -0.012 A 
ATOM     32  C   UNL     1      -8.837   8.366  36.914  0.00  0.00    +0.008 A 
ATOM     33  C   UNL     1      -7.569   9.873  38.248  0.00  0.00    +0.115 A 
ATOM     36  C   UNL     1      -9.629   8.096  38.025  0.00  0.00    +0.020 A 
ATOM     39  C   UNL     1      -9.329   8.751  39.208  0.00  0.00    +0.111 A 
ENDBRANCH  28  30
ENDBRANCH   9  28
ENDBRANCH  25  26
ENDBRANCH  15  25
TORSDOF 8
ENDMDL
