MODEL 1
REMARK VINA RESULT:      -8.3      0.000      0.000
REMARK  Name = 11885930
REMARK  5 active torsions:
REMARK  status: ('A' for Active; 'I' for Inactive)
REMARK    1  A    between atoms: O_5  and  C_31
REMARK    2  A    between atoms: O_5  and  C_36
REMARK    3  A    between atoms: N_8  and  C_23
REMARK    4  A    between atoms: N_9  and  C_21
REMARK    5  A    between atoms: N_10  and  C_30
REMARK                            x       y       z     vdW  Elec       q    Type
REMARK                         _______ _______ _______ _____ _____    ______ ____
ROOT
ATOM      2  O   UNL     1      12.142   9.228  16.991  0.00  0.00    -0.266 OA
ATOM      3  O   UNL     1      10.571   9.150  21.973  0.00  0.00    -0.252 OA
ATOM      6  N   UNL     1      12.761   8.409  21.895  0.00  0.00    -0.284 N 
ATOM      7  N   UNL     1      13.509   8.677  18.805  0.00  0.00    -0.310 N 
ATOM      8  N   UNL     1      12.268  10.625  22.539  0.00  0.00    -0.269 N 
ATOM     11  C   UNL     1      13.141   6.583  20.230  0.00  0.00    +0.027 C 
ATOM     12  C   UNL     1      14.971   8.128  20.782  0.00  0.00    +0.054 C 
ATOM     13  C   UNL     1      14.639   6.666  20.493  0.00  0.00    +0.018 C 
ATOM     14  C   UNL     1      12.355   7.069  21.460  0.00  0.00    +0.114 C 
ATOM     15  C   UNL     1      12.809   7.396  18.974  0.00  0.00    +0.130 C 
ATOM     16  C   UNL     1      14.216   8.596  22.045  0.00  0.00    +0.119 C 
ATOM     17  C   UNL     1      14.602   9.015  19.608  0.00  0.00    +0.027 A 
ATOM     18  C   UNL     1      15.300  10.137  19.361  0.00  0.00    +0.024 A 
ATOM     19  C   UNL     1      13.089   9.492  17.734  0.00  0.00    +0.273 A 
ATOM     20  C   UNL     1      11.772   9.391  22.121  0.00  0.00    +0.306 C 
ATOM     21  C   UNL     1      13.876  10.746  17.509  0.00  0.00    +0.100 A 
ATOM     22  C   UNL     1      14.926  11.018  18.292  0.00  0.00    +0.030 A 
ATOM     37  H   UNL     1      13.145  10.644  23.048  0.00  0.00    +0.156 HD
ENDROOT
BRANCH   8  23
ATOM      1  F   UNL     1       9.868  15.578  21.910  0.00  0.00    -0.205 F 
ATOM     23  C   UNL     1      11.656  11.893  22.378  0.00  0.00    +0.035 A 
ATOM     25  C   UNL     1      10.918  12.442  23.424  0.00  0.00    +0.026 A 
ATOM     26  C   UNL     1      11.792  12.580  21.176  0.00  0.00    +0.026 A 
ATOM     27  C   UNL     1      10.314  13.688  23.265  0.00  0.00    +0.040 A 
ATOM     28  C   UNL     1      11.188  13.828  21.017  0.00  0.00    +0.040 A 
ATOM     29  C   UNL     1      10.448  14.381  22.062  0.00  0.00    +0.124 A 
ENDBRANCH   8  23
BRANCH  21   9
ATOM      4  O   UNL     1      14.507  10.417  14.756  0.00  0.00    -0.252 OA
ATOM      9  N   UNL     1      13.491  11.569  16.493  0.00  0.00    -0.265 N 
ATOM     10  N   UNL     1      13.285  12.380  14.356  0.00  0.00    -0.266 N 
ATOM     24  C   UNL     1      13.829  11.364  15.149  0.00  0.00    +0.308 C 
ATOM     38  H   UNL     1      13.158  12.494  16.751  0.00  0.00    +0.157 HD
ATOM     39  H   UNL     1      12.747  13.096  14.838  0.00  0.00    +0.156 HD
BRANCH  10  30
ATOM     30  C   UNL     1      13.392  12.541  12.954  0.00  0.00    +0.077 A 
ATOM     31  C   UNL     1      12.286  12.324  12.146  0.00  0.00    +0.141 A 
ATOM     32  C   UNL     1      14.614  12.916  12.418  0.00  0.00    +0.027 A 
ATOM     33  C   UNL     1      12.407  12.488  10.766  0.00  0.00    +0.047 A 
ATOM     34  C   UNL     1      14.734  13.078  11.038  0.00  0.00    +0.002 A 
ATOM     35  C   UNL     1      13.631  12.864  10.212  0.00  0.00    +0.004 A 
BRANCH  31   5
ATOM      5  O   UNL     1      11.082  11.956  12.668  0.00  0.00    -0.493 OA
ATOM     36  C   UNL     1       9.967  11.952  11.779  0.00  0.00    +0.277 C 
ENDBRANCH  31   5
ENDBRANCH  10  30
ENDBRANCH  21   9
TORSDOF 4
ENDMDL
MODEL 2
REMARK VINA RESULT:      -7.9      5.065      9.044
REMARK  Name = 11885930
REMARK  5 active torsions:
REMARK  status: ('A' for Active; 'I' for Inactive)
REMARK    1  A    between atoms: O_5  and  C_31
REMARK    2  A    between atoms: O_5  and  C_36
REMARK    3  A    between atoms: N_8  and  C_23
REMARK    4  A    between atoms: N_9  and  C_21
REMARK    5  A    between atoms: N_10  and  C_30
REMARK                            x       y       z     vdW  Elec       q    Type
REMARK                         _______ _______ _______ _____ _____    ______ ____
ROOT
ATOM      2  O   UNL     1      15.449   5.900  19.691  0.00  0.00    -0.266 OA
ATOM      3  O   UNL     1      12.234   9.201  17.230  0.00  0.00    -0.252 OA
ATOM      6  N   UNL     1      12.200   9.709  19.486  0.00  0.00    -0.284 N 
ATOM      7  N   UNL     1      14.316   7.665  20.721  0.00  0.00    -0.310 N 
ATOM      8  N   UNL     1      13.488  10.998  17.987  0.00  0.00    -0.269 N 
ATOM     11  C   UNL     1      11.768   7.729  20.951  0.00  0.00    +0.027 C 
ATOM     12  C   UNL     1      13.117   9.600  21.800  0.00  0.00    +0.054 C 
ATOM     13  C   UNL     1      12.038   8.588  22.179  0.00  0.00    +0.018 C 
ATOM     14  C   UNL     1      11.283   8.604  19.782  0.00  0.00    +0.114 C 
ATOM     15  C   UNL     1      13.039   6.948  20.599  0.00  0.00    +0.130 C 
ATOM     16  C   UNL     1      12.606  10.506  20.659  0.00  0.00    +0.119 C 
ATOM     17  C   UNL     1      14.392   8.903  21.366  0.00  0.00    +0.027 A 
ATOM     18  C   UNL     1      15.586   9.486  21.570  0.00  0.00    +0.024 A 
ATOM     19  C   UNL     1      15.465   6.997  20.250  0.00  0.00    +0.273 A 
ATOM     20  C   UNL     1      12.623   9.917  18.156  0.00  0.00    +0.306 C 
ATOM     21  C   UNL     1      16.772   7.692  20.473  0.00  0.00    +0.100 A 
ATOM     22  C   UNL     1      16.798   8.868  21.112  0.00  0.00    +0.030 A 
ATOM     37  H   UNL     1      13.423  11.772  18.640  0.00  0.00    +0.156 HD
ENDROOT
BRANCH   8  23
ATOM      1  F   UNL     1      17.215  11.708  13.951  0.00  0.00    -0.205 F 
ATOM     23  C   UNL     1      14.442  11.179  16.956  0.00  0.00    +0.035 A 
ATOM     25  C   UNL     1      15.505  12.059  17.142  0.00  0.00    +0.026 A 
ATOM     26  C   UNL     1      14.311  10.477  15.761  0.00  0.00    +0.026 A 
ATOM     27  C   UNL     1      16.442  12.238  16.126  0.00  0.00    +0.040 A 
ATOM     28  C   UNL     1      15.249  10.655  14.744  0.00  0.00    +0.040 A 
ATOM     29  C   UNL     1      16.315  11.537  14.927  0.00  0.00    +0.124 A 
ENDBRANCH   8  23
BRANCH  21   9
ATOM      4  O   UNL     1      18.829   6.561  22.079  0.00  0.00    -0.252 OA
ATOM      9  N   UNL     1      17.905   7.087  20.017  0.00  0.00    -0.265 N 
ATOM     10  N   UNL     1      19.924   5.996  20.081  0.00  0.00    -0.266 N 
ATOM     24  C   UNL     1      18.892   6.543  20.851  0.00  0.00    +0.308 C 
ATOM     38  H   UNL     1      18.159   7.255  19.048  0.00  0.00    +0.157 HD
ATOM     39  H   UNL     1      19.825   6.065  19.071  0.00  0.00    +0.156 HD
BRANCH  10  30
ATOM     30  C   UNL     1      21.101   5.354  20.535  0.00  0.00    +0.077 A 
ATOM     31  C   UNL     1      22.294   6.057  20.594  0.00  0.00    +0.141 A 
ATOM     32  C   UNL     1      21.029   4.023  20.915  0.00  0.00    +0.027 A 
ATOM     33  C   UNL     1      23.445   5.412  21.045  0.00  0.00    +0.047 A 
ATOM     34  C   UNL     1      22.181   3.378  21.365  0.00  0.00    +0.002 A 
ATOM     35  C   UNL     1      23.389   4.073  21.430  0.00  0.00    +0.004 A 
BRANCH  31   5
ATOM      5  O   UNL     1      22.370   7.366  20.222  0.00  0.00    -0.493 OA
ATOM     36  C   UNL     1      22.444   8.332  21.268  0.00  0.00    +0.277 C 
ENDBRANCH  31   5
ENDBRANCH  10  30
ENDBRANCH  21   9
TORSDOF 4
ENDMDL
MODEL 3
REMARK VINA RESULT:      -7.9      1.244      2.143
REMARK  Name = 11885930
REMARK  5 active torsions:
REMARK  status: ('A' for Active; 'I' for Inactive)
REMARK    1  A    between atoms: O_5  and  C_31
REMARK    2  A    between atoms: O_5  and  C_36
REMARK    3  A    between atoms: N_8  and  C_23
REMARK    4  A    between atoms: N_9  and  C_21
REMARK    5  A    between atoms: N_10  and  C_30
REMARK                            x       y       z     vdW  Elec       q    Type
REMARK                         _______ _______ _______ _____ _____    ______ ____
ROOT
ATOM      2  O   UNL     1      12.331   9.580  17.149  0.00  0.00    -0.266 OA
ATOM      3  O   UNL     1      10.568   8.739  21.995  0.00  0.00    -0.252 OA
ATOM      6  N   UNL     1      12.785   8.084  21.909  0.00  0.00    -0.284 N 
ATOM      7  N   UNL     1      13.644   8.816  18.925  0.00  0.00    -0.310 N 
ATOM      8  N   UNL     1      12.186  10.168  22.839  0.00  0.00    -0.269 N 
ATOM     11  C   UNL     1      13.297   6.529  20.020  0.00  0.00    +0.027 C 
ATOM     12  C   UNL     1      15.046   8.033  20.866  0.00  0.00    +0.054 C 
ATOM     13  C   UNL     1      14.779   6.618  20.357  0.00  0.00    +0.018 C 
ATOM     14  C   UNL     1      12.445   6.809  21.270  0.00  0.00    +0.114 C 
ATOM     15  C   UNL     1      12.985   7.503  18.879  0.00  0.00    +0.130 C 
ATOM     16  C   UNL     1      14.225   8.291  22.148  0.00  0.00    +0.119 C 
ATOM     17  C   UNL     1      14.691   9.068  19.816  0.00  0.00    +0.027 A 
ATOM     18  C   UNL     1      15.357  10.235  19.762  0.00  0.00    +0.024 A 
ATOM     19  C   UNL     1      13.237   9.763  17.964  0.00  0.00    +0.273 A 
ATOM     20  C   UNL     1      11.752   8.992  22.229  0.00  0.00    +0.306 C 
ATOM     21  C   UNL     1      13.986  11.059  17.954  0.00  0.00    +0.100 A 
ATOM     22  C   UNL     1      14.994  11.249  18.813  0.00  0.00    +0.030 A 
ATOM     37  H   UNL     1      13.041  10.140  23.384  0.00  0.00    +0.156 HD
ENDROOT
BRANCH   8  23
ATOM      1  F   UNL     1       9.644  15.091  22.821  0.00  0.00    -0.205 F 
ATOM     23  C   UNL     1      11.535  11.426  22.834  0.00  0.00    +0.035 A 
ATOM     25  C   UNL     1      11.522  12.195  21.673  0.00  0.00    +0.026 A 
ATOM     26  C   UNL     1      10.913  11.888  23.990  0.00  0.00    +0.026 A 
ATOM     27  C   UNL     1      10.883  13.434  21.668  0.00  0.00    +0.040 A 
ATOM     28  C   UNL     1      10.273  13.128  23.986  0.00  0.00    +0.040 A 
ATOM     29  C   UNL     1      10.258  13.901  22.825  0.00  0.00    +0.124 A 
ENDBRANCH   8  23
BRANCH  21   9
ATOM      4  O   UNL     1      14.905  11.271  15.271  0.00  0.00    -0.252 OA
ATOM      9  N   UNL     1      13.612  12.008  17.049  0.00  0.00    -0.265 N 
ATOM     10  N   UNL     1      13.520  13.155  15.063  0.00  0.00    -0.266 N 
ATOM     24  C   UNL     1      14.095  12.070  15.735  0.00  0.00    +0.308 C 
ATOM     38  H   UNL     1      13.159  12.840  17.416  0.00  0.00    +0.157 HD
ATOM     39  H   UNL     1      12.866  13.725  15.593  0.00  0.00    +0.156 HD
BRANCH  10  30
ATOM     30  C   UNL     1      13.741  13.565  13.727  0.00  0.00    +0.077 A 
ATOM     31  C   UNL     1      14.824  14.373  13.420  0.00  0.00    +0.141 A 
ATOM     32  C   UNL     1      12.858  13.141  12.746  0.00  0.00    +0.027 A 
ATOM     33  C   UNL     1      15.029  14.767  12.098  0.00  0.00    +0.047 A 
ATOM     34  C   UNL     1      13.063  13.536  11.424  0.00  0.00    +0.002 A 
ATOM     35  C   UNL     1      14.149  14.349  11.100  0.00  0.00    +0.004 A 
BRANCH  31   5
ATOM      5  O   UNL     1      15.696  14.792  14.380  0.00  0.00    -0.493 OA
ATOM     36  C   UNL     1      17.001  14.219  14.363  0.00  0.00    +0.277 C 
ENDBRANCH  31   5
ENDBRANCH  10  30
ENDBRANCH  21   9
TORSDOF 4
ENDMDL
MODEL 4
REMARK VINA RESULT:      -7.7      4.987      9.136
REMARK  Name = 11885930
REMARK  5 active torsions:
REMARK  status: ('A' for Active; 'I' for Inactive)
REMARK    1  A    between atoms: O_5  and  C_31
REMARK    2  A    between atoms: O_5  and  C_36
REMARK    3  A    between atoms: N_8  and  C_23
REMARK    4  A    between atoms: N_9  and  C_21
REMARK    5  A    between atoms: N_10  and  C_30
REMARK                            x       y       z     vdW  Elec       q    Type
REMARK                         _______ _______ _______ _____ _____    ______ ____
ROOT
ATOM      2  O   UNL     1      15.634   6.147  19.171  0.00  0.00    -0.266 OA
ATOM      3  O   UNL     1      14.984  10.741  16.770  0.00  0.00    -0.252 OA
ATOM      6  N   UNL     1      13.234  10.448  18.254  0.00  0.00    -0.284 N 
ATOM      7  N   UNL     1      13.933   7.673  19.663  0.00  0.00    -0.310 N 
ATOM      8  N   UNL     1      15.063  11.829  18.815  0.00  0.00    -0.269 N 
ATOM     11  C   UNL     1      12.069   8.250  18.007  0.00  0.00    +0.027 C 
ATOM     12  C   UNL     1      12.135   9.353  20.203  0.00  0.00    +0.054 C 
ATOM     13  C   UNL     1      11.246   8.555  19.252  0.00  0.00    +0.018 C 
ATOM     14  C   UNL     1      12.523   9.556  17.333  0.00  0.00    +0.114 C 
ATOM     15  C   UNL     1      13.254   7.360  18.398  0.00  0.00    +0.130 C 
ATOM     16  C   UNL     1      12.549  10.684  19.539  0.00  0.00    +0.119 C 
ATOM     17  C   UNL     1      13.375   8.565  20.583  0.00  0.00    +0.027 A 
ATOM     18  C   UNL     1      13.953   8.749  21.782  0.00  0.00    +0.024 A 
ATOM     19  C   UNL     1      15.114   6.954  19.943  0.00  0.00    +0.273 A 
ATOM     20  C   UNL     1      14.479  10.989  17.868  0.00  0.00    +0.306 C 
ATOM     21  C   UNL     1      15.741   7.207  21.279  0.00  0.00    +0.100 A 
ATOM     22  C   UNL     1      15.160   8.056  22.134  0.00  0.00    +0.030 A 
ATOM     37  H   UNL     1      14.455  12.329  19.455  0.00  0.00    +0.156 HD
ENDROOT
BRANCH   8  23
ATOM      1  F   UNL     1      20.451  12.968  19.421  0.00  0.00    -0.205 F 
ATOM     23  C   UNL     1      16.441  12.119  18.969  0.00  0.00    +0.035 A 
ATOM     25  C   UNL     1      17.164  11.522  19.999  0.00  0.00    +0.026 A 
ATOM     26  C   UNL     1      17.065  13.001  18.092  0.00  0.00    +0.026 A 
ATOM     27  C   UNL     1      18.519  11.809  20.152  0.00  0.00    +0.040 A 
ATOM     28  C   UNL     1      18.422  13.288  18.244  0.00  0.00    +0.040 A 
ATOM     29  C   UNL     1      19.149  12.692  19.274  0.00  0.00    +0.124 A 
ENDBRANCH   8  23
BRANCH  21   9
ATOM      4  O   UNL     1      18.380   8.236  21.034  0.00  0.00    -0.252 OA
ATOM      9  N   UNL     1      16.893   6.543  21.581  0.00  0.00    -0.265 N 
ATOM     10  N   UNL     1      19.143   6.166  21.834  0.00  0.00    -0.266 N 
ATOM     24  C   UNL     1      18.173   7.096  21.442  0.00  0.00    +0.308 C 
ATOM     38  H   UNL     1      16.832   5.534  21.674  0.00  0.00    +0.157 HD
ATOM     39  H   UNL     1      18.805   5.259  22.147  0.00  0.00    +0.156 HD
BRANCH  10  30
ATOM     30  C   UNL     1      20.549   6.328  21.845  0.00  0.00    +0.077 A 
ATOM     31  C   UNL     1      21.217   6.490  23.049  0.00  0.00    +0.141 A 
ATOM     32  C   UNL     1      21.230   6.320  20.638  0.00  0.00    +0.027 A 
ATOM     33  C   UNL     1      22.603   6.648  23.044  0.00  0.00    +0.047 A 
ATOM     34  C   UNL     1      22.616   6.479  20.634  0.00  0.00    +0.002 A 
ATOM     35  C   UNL     1      23.302   6.643  21.838  0.00  0.00    +0.004 A 
BRANCH  31   5
ATOM      5  O   UNL     1      20.552   6.498  24.238  0.00  0.00    -0.493 OA
ATOM     36  C   UNL     1      21.272   6.963  25.378  0.00  0.00    +0.277 C 
ENDBRANCH  31   5
ENDBRANCH  10  30
ENDBRANCH  21   9
TORSDOF 4
ENDMDL
MODEL 5
REMARK VINA RESULT:      -7.5     12.335     16.618
REMARK  Name = 11885930
REMARK  5 active torsions:
REMARK  status: ('A' for Active; 'I' for Inactive)
REMARK    1  A    between atoms: O_5  and  C_31
REMARK    2  A    between atoms: O_5  and  C_36
REMARK    3  A    between atoms: N_8  and  C_23
REMARK    4  A    between atoms: N_9  and  C_21
REMARK    5  A    between atoms: N_10  and  C_30
REMARK                            x       y       z     vdW  Elec       q    Type
REMARK                         _______ _______ _______ _____ _____    ______ ____
ROOT
ATOM      2  O   UNL     1       9.397   8.168   2.643  0.00  0.00    -0.266 OA
ATOM      3  O   UNL     1      12.467   9.791   6.546  0.00  0.00    -0.252 OA
ATOM      6  N   UNL     1      11.175   8.038   7.326  0.00  0.00    -0.284 N 
ATOM      7  N   UNL     1       9.513   7.159   4.748  0.00  0.00    -0.310 N 
ATOM      8  N   UNL     1      13.417   7.681   6.686  0.00  0.00    -0.269 N 
ATOM     11  C   UNL     1       8.730   8.325   6.888  0.00  0.00    +0.027 C 
ATOM     12  C   UNL     1       9.687   6.065   7.011  0.00  0.00    +0.054 C 
ATOM     13  C   UNL     1       8.480   6.914   7.402  0.00  0.00    +0.018 C 
ATOM     14  C   UNL     1      10.008   8.905   7.517  0.00  0.00    +0.114 C 
ATOM     15  C   UNL     1       8.804   8.293   5.357  0.00  0.00    +0.130 C 
ATOM     16  C   UNL     1      10.959   6.624   7.685  0.00  0.00    +0.119 C 
ATOM     17  C   UNL     1       9.875   6.042   5.506  0.00  0.00    +0.027 A 
ATOM     18  C   UNL     1      10.418   4.967   4.907  0.00  0.00    +0.024 A 
ATOM     19  C   UNL     1       9.714   7.212   3.354  0.00  0.00    +0.273 A 
ATOM     20  C   UNL     1      12.371   8.592   6.821  0.00  0.00    +0.306 C 
ATOM     21  C   UNL     1      10.344   6.007   2.730  0.00  0.00    +0.100 A 
ATOM     22  C   UNL     1      10.657   4.952   3.492  0.00  0.00    +0.030 A 
ATOM     37  H   UNL     1      13.437   6.875   7.302  0.00  0.00    +0.156 HD
ENDROOT
BRANCH   8  23
ATOM      1  F   UNL     1      17.724   8.028   3.218  0.00  0.00    -0.205 F 
ATOM     23  C   UNL     1      14.519   7.768   5.799  0.00  0.00    +0.035 A 
ATOM     25  C   UNL     1      15.717   8.329   6.237  0.00  0.00    +0.026 A 
ATOM     26  C   UNL     1      14.398   7.295   4.496  0.00  0.00    +0.026 A 
ATOM     27  C   UNL     1      16.800   8.417   5.364  0.00  0.00    +0.040 A 
ATOM     28  C   UNL     1      15.482   7.382   3.622  0.00  0.00    +0.040 A 
ATOM     29  C   UNL     1      16.683   7.944   4.056  0.00  0.00    +0.124 A 
ENDBRANCH   8  23
BRANCH  21   9
ATOM      4  O   UNL     1       9.622   3.970   0.881  0.00  0.00    -0.252 OA
ATOM      9  N   UNL     1      10.570   6.025   1.386  0.00  0.00    -0.265 N 
ATOM     10  N   UNL     1      10.566   5.314  -0.797  0.00  0.00    -0.266 N 
ATOM     24  C   UNL     1      10.194   4.994   0.514  0.00  0.00    +0.308 C 
ATOM     38  H   UNL     1      11.253   6.696   1.043  0.00  0.00    +0.157 HD
ATOM     39  H   UNL     1      11.036   6.205  -0.933  0.00  0.00    +0.156 HD
BRANCH  10  30
ATOM     30  C   UNL     1      10.369   4.544  -1.968  0.00  0.00    +0.077 A 
ATOM     31  C   UNL     1      11.252   3.523  -2.282  0.00  0.00    +0.141 A 
ATOM     32  C   UNL     1       9.283   4.834  -2.780  0.00  0.00    +0.027 A 
ATOM     33  C   UNL     1      11.043   2.772  -3.439  0.00  0.00    +0.047 A 
ATOM     34  C   UNL     1       9.076   4.083  -3.937  0.00  0.00    +0.002 A 
ATOM     35  C   UNL     1       9.956   3.052  -4.267  0.00  0.00    +0.004 A 
BRANCH  31   5
ATOM      5  O   UNL     1      12.320   3.234  -1.487  0.00  0.00    -0.493 OA
ATOM     36  C   UNL     1      13.576   3.794  -1.864  0.00  0.00    +0.277 C 
ENDBRANCH  31   5
ENDBRANCH  10  30
ENDBRANCH  21   9
TORSDOF 4
ENDMDL
MODEL 6
REMARK VINA RESULT:      -7.5     12.956     15.931
REMARK  Name = 11885930
REMARK  5 active torsions:
REMARK  status: ('A' for Active; 'I' for Inactive)
REMARK    1  A    between atoms: O_5  and  C_31
REMARK    2  A    between atoms: O_5  and  C_36
REMARK    3  A    between atoms: N_8  and  C_23
REMARK    4  A    between atoms: N_9  and  C_21
REMARK    5  A    between atoms: N_10  and  C_30
REMARK                            x       y       z     vdW  Elec       q    Type
REMARK                         _______ _______ _______ _____ _____    ______ ____
ROOT
ATOM      2  O   UNL     1      13.210   8.256   7.219  0.00  0.00    -0.266 OA
ATOM      3  O   UNL     1      10.525   4.306   5.102  0.00  0.00    -0.252 OA
ATOM      6  N   UNL     1       9.290   6.243   4.836  0.00  0.00    -0.284 N 
ATOM      7  N   UNL     1      11.185   8.489   6.077  0.00  0.00    -0.310 N 
ATOM      8  N   UNL     1      10.559   5.376   3.046  0.00  0.00    -0.269 N 
ATOM     11  C   UNL     1       8.981   7.532   6.955  0.00  0.00    +0.027 C 
ATOM     12  C   UNL     1       9.023   8.720   4.804  0.00  0.00    +0.054 C 
ATOM     13  C   UNL     1       8.334   8.662   6.166  0.00  0.00    +0.018 C 
ATOM     14  C   UNL     1       8.803   6.194   6.218  0.00  0.00    +0.114 C 
ATOM     15  C   UNL     1      10.457   7.870   7.192  0.00  0.00    +0.130 C 
ATOM     16  C   UNL     1       8.801   7.391   4.049  0.00  0.00    +0.119 C 
ATOM     17  C   UNL     1      10.510   8.979   4.955  0.00  0.00    +0.027 A 
ATOM     18  C   UNL     1      11.182   9.645   4.000  0.00  0.00    +0.024 A 
ATOM     19  C   UNL     1      12.576   8.655   6.242  0.00  0.00    +0.273 A 
ATOM     20  C   UNL     1      10.165   5.236   4.376  0.00  0.00    +0.306 C 
ATOM     21  C   UNL     1      13.291   9.380   5.144  0.00  0.00    +0.100 A 
ATOM     22  C   UNL     1      12.599   9.847   4.098  0.00  0.00    +0.030 A 
ATOM     37  H   UNL     1       9.932   5.853   2.406  0.00  0.00    +0.156 HD
ENDROOT
BRANCH   8  23
ATOM      1  F   UNL     1      15.185   3.424   0.706  0.00  0.00    -0.205 F 
ATOM     23  C   UNL     1      11.741   4.877   2.446  0.00  0.00    +0.035 A 
ATOM     25  C   UNL     1      11.809   3.543   2.054  0.00  0.00    +0.026 A 
ATOM     26  C   UNL     1      12.830   5.723   2.254  0.00  0.00    +0.026 A 
ATOM     27  C   UNL     1      12.973   3.052   1.465  0.00  0.00    +0.040 A 
ATOM     28  C   UNL     1      13.995   5.232   1.664  0.00  0.00    +0.040 A 
ATOM     29  C   UNL     1      14.067   3.896   1.271  0.00  0.00    +0.124 A 
ENDBRANCH   8  23
BRANCH  21   9
ATOM      4  O   UNL     1      15.287   7.840   3.829  0.00  0.00    -0.252 OA
ATOM      9  N   UNL     1      14.639   9.546   5.259  0.00  0.00    -0.265 N 
ATOM     10  N   UNL     1      16.879   9.180   4.915  0.00  0.00    -0.266 N 
ATOM     24  C   UNL     1      15.584   8.760   4.588  0.00  0.00    +0.308 C 
ATOM     38  H   UNL     1      14.969  10.097   6.047  0.00  0.00    +0.157 HD
ATOM     39  H   UNL     1      16.954   9.959   5.565  0.00  0.00    +0.156 HD
BRANCH  10  30
ATOM     30  C   UNL     1      18.107   8.652   4.453  0.00  0.00    +0.077 A 
ATOM     31  C   UNL     1      19.108   8.332   5.358  0.00  0.00    +0.141 A 
ATOM     32  C   UNL     1      18.280   8.462   3.091  0.00  0.00    +0.027 A 
ATOM     33  C   UNL     1      20.312   7.810   4.888  0.00  0.00    +0.047 A 
ATOM     34  C   UNL     1      19.486   7.941   2.621  0.00  0.00    +0.002 A 
ATOM     35  C   UNL     1      20.502   7.615   3.520  0.00  0.00    +0.004 A 
BRANCH  31   5
ATOM      5  O   UNL     1      18.942   8.516   6.698  0.00  0.00    -0.493 OA
ATOM     36  C   UNL     1      20.084   8.945   7.438  0.00  0.00    +0.277 C 
ENDBRANCH  31   5
ENDBRANCH  10  30
ENDBRANCH  21   9
TORSDOF 4
ENDMDL
MODEL 7
REMARK VINA RESULT:      -7.3     28.057     30.570
REMARK  Name = 11885930
REMARK  5 active torsions:
REMARK  status: ('A' for Active; 'I' for Inactive)
REMARK    1  A    between atoms: O_5  and  C_31
REMARK    2  A    between atoms: O_5  and  C_36
REMARK    3  A    between atoms: N_8  and  C_23
REMARK    4  A    between atoms: N_9  and  C_21
REMARK    5  A    between atoms: N_10  and  C_30
REMARK                            x       y       z     vdW  Elec       q    Type
REMARK                         _______ _______ _______ _____ _____    ______ ____
ROOT
ATOM      2  O   UNL     1      -6.138  -8.650  11.602  0.00  0.00    -0.266 OA
ATOM      3  O   UNL     1      -8.384  -5.963   7.725  0.00  0.00    -0.252 OA
ATOM      6  N   UNL     1      -8.764  -8.215   7.357  0.00  0.00    -0.284 N 
ATOM      7  N   UNL     1      -7.425  -9.602   9.899  0.00  0.00    -0.310 N 
ATOM      8  N   UNL     1     -10.448  -6.853   8.294  0.00  0.00    -0.269 N 
ATOM     11  C   UNL     1      -6.691  -9.608   7.447  0.00  0.00    +0.027 C 
ATOM     12  C   UNL     1      -8.850 -10.598   8.076  0.00  0.00    +0.054 C 
ATOM     13  C   UNL     1      -7.540 -10.867   7.338  0.00  0.00    +0.018 C 
ATOM     14  C   UNL     1      -7.420  -8.414   6.809  0.00  0.00    +0.114 C 
ATOM     15  C   UNL     1      -6.355  -9.358   8.922  0.00  0.00    +0.130 C 
ATOM     16  C   UNL     1      -9.600  -9.429   7.401  0.00  0.00    +0.119 C 
ATOM     17  C   UNL     1      -8.599 -10.268   9.535  0.00  0.00    +0.027 A 
ATOM     18  C   UNL     1      -9.513 -10.584  10.468  0.00  0.00    +0.024 A 
ATOM     19  C   UNL     1      -7.164  -9.224  11.232  0.00  0.00    +0.273 A 
ATOM     20  C   UNL     1      -9.147  -6.929   7.798  0.00  0.00    +0.306 C 
ATOM     21  C   UNL     1      -8.218  -9.571  12.236  0.00  0.00    +0.100 A 
ATOM     22  C   UNL     1      -9.317 -10.226  11.845  0.00  0.00    +0.030 A 
ATOM     37  H   UNL     1     -11.137  -7.508   7.941  0.00  0.00    +0.156 HD
ENDROOT
BRANCH   8  23
ATOM      1  F   UNL     1     -12.438  -3.172  11.925  0.00  0.00    -0.205 F 
ATOM     23  C   UNL     1     -10.955  -5.911   9.224  0.00  0.00    +0.035 A 
ATOM     25  C   UNL     1     -11.664  -6.352  10.338  0.00  0.00    +0.026 A 
ATOM     26  C   UNL     1     -10.745  -4.551   9.016  0.00  0.00    +0.026 A 
ATOM     27  C   UNL     1     -12.166  -5.426  11.252  0.00  0.00    +0.040 A 
ATOM     28  C   UNL     1     -11.246  -3.624   9.930  0.00  0.00    +0.040 A 
ATOM     29  C   UNL     1     -11.957  -4.062  11.048  0.00  0.00    +0.124 A 
ENDBRANCH   8  23
BRANCH  21   9
ATOM      4  O   UNL     1      -7.241 -11.253  14.311  0.00  0.00    -0.252 OA
ATOM      9  N   UNL     1      -8.011  -9.208  13.534  0.00  0.00    -0.265 N 
ATOM     10  N   UNL     1      -7.424  -9.404  15.745  0.00  0.00    -0.266 N 
ATOM     24  C   UNL     1      -7.526 -10.076  14.521  0.00  0.00    +0.308 C 
ATOM     38  H   UNL     1      -8.455  -8.350  13.848  0.00  0.00    +0.157 HD
ATOM     39  H   UNL     1      -7.704  -8.426  15.752  0.00  0.00    +0.156 HD
BRANCH  10  30
ATOM     30  C   UNL     1      -6.980  -9.919  16.985  0.00  0.00    +0.077 A 
ATOM     31  C   UNL     1      -5.631 -10.165  17.189  0.00  0.00    +0.141 A 
ATOM     32  C   UNL     1      -7.916 -10.166  17.977  0.00  0.00    +0.027 A 
ATOM     33  C   UNL     1      -5.207 -10.672  18.417  0.00  0.00    +0.047 A 
ATOM     34  C   UNL     1      -7.491 -10.674  19.205  0.00  0.00    +0.002 A 
ATOM     35  C   UNL     1      -6.137 -10.926  19.425  0.00  0.00    +0.004 A 
BRANCH  31   5
ATOM      5  O   UNL     1      -4.707  -9.923  16.217  0.00  0.00    -0.493 OA
ATOM     36  C   UNL     1      -3.810 -10.985  15.899  0.00  0.00    +0.277 C 
ENDBRANCH  31   5
ENDBRANCH  10  30
ENDBRANCH  21   9
TORSDOF 4
ENDMDL
MODEL 8
REMARK VINA RESULT:      -7.3     27.029     29.848
REMARK  Name = 11885930
REMARK  5 active torsions:
REMARK  status: ('A' for Active; 'I' for Inactive)
REMARK    1  A    between atoms: O_5  and  C_31
REMARK    2  A    between atoms: O_5  and  C_36
REMARK    3  A    between atoms: N_8  and  C_23
REMARK    4  A    between atoms: N_9  and  C_21
REMARK    5  A    between atoms: N_10  and  C_30
REMARK                            x       y       z     vdW  Elec       q    Type
REMARK                         _______ _______ _______ _____ _____    ______ ____
ROOT
ATOM      2  O   UNL     1     -12.548   5.079  22.470  0.00  0.00    -0.266 OA
ATOM      3  O   UNL     1     -12.969  10.186  23.488  0.00  0.00    -0.252 OA
ATOM      6  N   UNL     1     -13.492   9.848  21.261  0.00  0.00    -0.284 N 
ATOM      7  N   UNL     1     -13.291   6.681  20.939  0.00  0.00    -0.310 N 
ATOM      8  N   UNL     1     -15.200  10.134  22.863  0.00  0.00    -0.269 N 
ATOM     11  C   UNL     1     -11.774   8.525  20.018  0.00  0.00    +0.027 C 
ATOM     12  C   UNL     1     -14.128   8.421  19.321  0.00  0.00    +0.054 C 
ATOM     13  C   UNL     1     -12.692   8.485  18.804  0.00  0.00    +0.018 C 
ATOM     14  C   UNL     1     -12.079   9.762  20.880  0.00  0.00    +0.114 C 
ATOM     15  C   UNL     1     -11.930   7.219  20.806  0.00  0.00    +0.130 C 
ATOM     16  C   UNL     1     -14.444   9.688  20.145  0.00  0.00    +0.119 C 
ATOM     17  C   UNL     1     -14.347   7.188  20.176  0.00  0.00    +0.027 A 
ATOM     18  C   UNL     1     -15.557   6.605  20.228  0.00  0.00    +0.024 A 
ATOM     19  C   UNL     1     -13.452   5.570  21.792  0.00  0.00    +0.273 A 
ATOM     20  C   UNL     1     -13.830  10.061  22.615  0.00  0.00    +0.306 C 
ATOM     21  C   UNL     1     -14.821   4.966  21.840  0.00  0.00    +0.100 A 
ATOM     22  C   UNL     1     -15.797   5.473  21.078  0.00  0.00    +0.030 A 
ATOM     37  H   UNL     1     -15.808  10.459  22.118  0.00  0.00    +0.156 HD
ENDROOT
BRANCH   8  23
ATOM      1  F   UNL     1     -17.799   9.016  27.626  0.00  0.00    -0.205 F 
ATOM     23  C   UNL     1     -15.867   9.849  24.081  0.00  0.00    +0.035 A 
ATOM     25  C   UNL     1     -15.695  10.690  25.177  0.00  0.00    +0.026 A 
ATOM     26  C   UNL     1     -16.687   8.728  24.175  0.00  0.00    +0.026 A 
ATOM     27  C   UNL     1     -16.348  10.408  26.376  0.00  0.00    +0.040 A 
ATOM     28  C   UNL     1     -17.342   8.447  25.374  0.00  0.00    +0.040 A 
ATOM     29  C   UNL     1     -17.172   9.287  26.475  0.00  0.00    +0.124 A 
ENDBRANCH   8  23
BRANCH  21   9
ATOM      4  O   UNL     1     -16.063   5.037  24.397  0.00  0.00    -0.252 OA
ATOM      9  N   UNL     1     -15.022   3.900  22.665  0.00  0.00    -0.265 N 
ATOM     10  N   UNL     1     -15.696   2.721  24.517  0.00  0.00    -0.266 N 
ATOM     24  C   UNL     1     -15.641   3.986  23.919  0.00  0.00    +0.308 C 
ATOM     38  H   UNL     1     -14.484   3.060  22.471  0.00  0.00    +0.157 HD
ATOM     39  H   UNL     1     -15.297   1.950  23.988  0.00  0.00    +0.156 HD
BRANCH  10  30
ATOM     30  C   UNL     1     -16.239   2.379  25.777  0.00  0.00    +0.077 A 
ATOM     31  C   UNL     1     -16.825   1.136  25.964  0.00  0.00    +0.141 A 
ATOM     32  C   UNL     1     -16.169   3.305  26.806  0.00  0.00    +0.027 A 
ATOM     33  C   UNL     1     -17.355   0.812  27.213  0.00  0.00    +0.047 A 
ATOM     34  C   UNL     1     -16.701   2.980  28.055  0.00  0.00    +0.002 A 
ATOM     35  C   UNL     1     -17.293   1.734  28.258  0.00  0.00    +0.004 A 
BRANCH  31   5
ATOM      5  O   UNL     1     -16.895   0.222  24.956  0.00  0.00    -0.493 OA
ATOM     36  C   UNL     1     -18.161   0.058  24.320  0.00  0.00    +0.277 C 
ENDBRANCH  31   5
ENDBRANCH  10  30
ENDBRANCH  21   9
TORSDOF 4
ENDMDL
MODEL 9
REMARK VINA RESULT:      -7.2     27.734     30.097
REMARK  Name = 11885930
REMARK  5 active torsions:
REMARK  status: ('A' for Active; 'I' for Inactive)
REMARK    1  A    between atoms: O_5  and  C_31
REMARK    2  A    between atoms: O_5  and  C_36
REMARK    3  A    between atoms: N_8  and  C_23
REMARK    4  A    between atoms: N_9  and  C_21
REMARK    5  A    between atoms: N_10  and  C_30
REMARK                            x       y       z     vdW  Elec       q    Type
REMARK                         _______ _______ _______ _____ _____    ______ ____
ROOT
ATOM      2  O   UNL     1      -8.190  -8.765  16.544  0.00  0.00    -0.266 OA
ATOM      3  O   UNL     1      -3.144 -10.098  16.307  0.00  0.00    -0.252 OA
ATOM      6  N   UNL     1      -4.341 -11.933  17.049  0.00  0.00    -0.284 N 
ATOM      7  N   UNL     1      -7.361 -10.907  16.977  0.00  0.00    -0.310 N 
ATOM      8  N   UNL     1      -3.653 -11.783  14.797  0.00  0.00    -0.269 N 
ATOM     11  C   UNL     1      -5.851 -11.429  18.976  0.00  0.00    +0.027 C 
ATOM     12  C   UNL     1      -6.447 -13.216  17.399  0.00  0.00    +0.054 C 
ATOM     13  C   UNL     1      -6.435 -12.832  18.876  0.00  0.00    +0.018 C 
ATOM     14  C   UNL     1      -4.420 -11.404  18.414  0.00  0.00    +0.114 C 
ATOM     15  C   UNL     1      -6.776 -10.450  18.245  0.00  0.00    +0.130 C 
ATOM     16  C   UNL     1      -5.003 -13.236  16.852  0.00  0.00    +0.119 C 
ATOM     17  C   UNL     1      -7.287 -12.247  16.588  0.00  0.00    +0.027 A 
ATOM     18  C   UNL     1      -7.928 -12.666  15.483  0.00  0.00    +0.024 A 
ATOM     19  C   UNL     1      -8.083  -9.952  16.232  0.00  0.00    +0.273 A 
ATOM     20  C   UNL     1      -3.674 -11.184  16.056  0.00  0.00    +0.306 C 
ATOM     21  C   UNL     1      -8.761 -10.453  14.995  0.00  0.00    +0.100 A 
ATOM     22  C   UNL     1      -8.677 -11.749  14.672  0.00  0.00    +0.030 A 
ATOM     37  H   UNL     1      -3.694 -12.795  14.745  0.00  0.00    +0.156 HD
ENDROOT
BRANCH   8  23
ATOM      1  F   UNL     1      -3.163  -9.247   9.896  0.00  0.00    -0.205 F 
ATOM     23  C   UNL     1      -3.528 -11.136  13.543  0.00  0.00    +0.035 A 
ATOM     25  C   UNL     1      -2.276 -11.024  12.944  0.00  0.00    +0.026 A 
ATOM     26  C   UNL     1      -4.657 -10.613  12.918  0.00  0.00    +0.026 A 
ATOM     27  C   UNL     1      -2.153 -10.385  11.710  0.00  0.00    +0.040 A 
ATOM     28  C   UNL     1      -4.534  -9.975  11.684  0.00  0.00    +0.040 A 
ATOM     29  C   UNL     1      -3.282  -9.860  11.080  0.00  0.00    +0.124 A 
ENDBRANCH   8  23
BRANCH  21   9
ATOM      4  O   UNL     1     -11.408  -9.540  15.489  0.00  0.00    -0.252 OA
ATOM      9  N   UNL     1      -9.456  -9.558  14.238  0.00  0.00    -0.265 N 
ATOM     10  N   UNL     1     -11.193  -8.218  13.561  0.00  0.00    -0.266 N 
ATOM     24  C   UNL     1     -10.762  -9.138  14.524  0.00  0.00    +0.308 C 
ATOM     38  H   UNL     1      -9.106  -9.378  13.301  0.00  0.00    +0.157 HD
ATOM     39  H   UNL     1     -10.534  -7.991  12.821  0.00  0.00    +0.156 HD
BRANCH  10  30
ATOM     30  C   UNL     1     -12.443  -7.559  13.488  0.00  0.00    +0.077 A 
ATOM     31  C   UNL     1     -12.609  -6.320  14.087  0.00  0.00    +0.141 A 
ATOM     32  C   UNL     1     -13.481  -8.176  12.808  0.00  0.00    +0.027 A 
ATOM     33  C   UNL     1     -13.847  -5.682  14.005  0.00  0.00    +0.047 A 
ATOM     34  C   UNL     1     -14.719  -7.538  12.726  0.00  0.00    +0.002 A 
ATOM     35  C   UNL     1     -14.902  -6.291  13.325  0.00  0.00    +0.004 A 
BRANCH  31   5
ATOM      5  O   UNL     1     -11.591  -5.710  14.757  0.00  0.00    -0.493 OA
ATOM     36  C   UNL     1     -11.512  -5.940  16.162  0.00  0.00    +0.277 C 
ENDBRANCH  31   5
ENDBRANCH  10  30
ENDBRANCH  21   9
TORSDOF 4
ENDMDL
MODEL 10
REMARK VINA RESULT:      -6.9     29.176     31.842
REMARK  Name = 11885930
REMARK  5 active torsions:
REMARK  status: ('A' for Active; 'I' for Inactive)
REMARK    1  A    between atoms: O_5  and  C_31
REMARK    2  A    between atoms: O_5  and  C_36
REMARK    3  A    between atoms: N_8  and  C_23
REMARK    4  A    between atoms: N_9  and  C_21
REMARK    5  A    between atoms: N_10  and  C_30
REMARK                            x       y       z     vdW  Elec       q    Type
REMARK                         _______ _______ _______ _____ _____    ______ ____
ROOT
ATOM      2  O   UNL     1     -12.004  -9.601  17.692  0.00  0.00    -0.266 OA
ATOM      3  O   UNL     1     -13.372 -10.512  12.733  0.00  0.00    -0.252 OA
ATOM      6  N   UNL     1     -14.120  -8.401  13.312  0.00  0.00    -0.284 N 
ATOM      7  N   UNL     1     -13.054  -8.047  16.298  0.00  0.00    -0.310 N 
ATOM      8  N   UNL     1     -12.145  -8.668  12.049  0.00  0.00    -0.269 N 
ATOM     11  C   UNL     1     -15.443  -8.354  15.433  0.00  0.00    +0.027 C 
ATOM     12  C   UNL     1     -14.148  -6.376  14.762  0.00  0.00    +0.054 C 
ATOM     13  C   UNL     1     -15.470  -6.833  15.373  0.00  0.00    +0.018 C 
ATOM     14  C   UNL     1     -15.284  -8.942  14.020  0.00  0.00    +0.114 C 
ATOM     15  C   UNL     1     -14.315  -8.797  16.373  0.00  0.00    +0.130 C 
ATOM     16  C   UNL     1     -14.016  -6.930  13.327  0.00  0.00    +0.119 C 
ATOM     17  C   UNL     1     -12.970  -6.840  15.599  0.00  0.00    +0.027 A 
ATOM     18  C   UNL     1     -11.840  -6.112  15.640  0.00  0.00    +0.024 A 
ATOM     19  C   UNL     1     -11.972  -8.552  17.048  0.00  0.00    +0.273 A 
ATOM     20  C   UNL     1     -13.210  -9.290  12.699  0.00  0.00    +0.306 C 
ATOM     21  C   UNL     1     -10.724  -7.725  17.048  0.00  0.00    +0.100 A 
ATOM     22  C   UNL     1     -10.696  -6.567  16.378  0.00  0.00    +0.030 A 
ATOM     37  H   UNL     1     -12.284  -7.733  11.683  0.00  0.00    +0.156 HD
ENDROOT
BRANCH   8  23
ATOM      1  F   UNL     1      -7.146 -10.821  11.011  0.00  0.00    -0.205 F 
ATOM     23  C   UNL     1     -10.866  -9.217  11.784  0.00  0.00    +0.035 A 
ATOM     25  C   UNL     1     -10.411  -9.310  10.471  0.00  0.00    +0.026 A 
ATOM     26  C   UNL     1     -10.072  -9.663  12.837  0.00  0.00    +0.026 A 
ATOM     27  C   UNL     1      -9.154  -9.853  10.210  0.00  0.00    +0.040 A 
ATOM     28  C   UNL     1      -8.813 -10.204  12.576  0.00  0.00    +0.040 A 
ATOM     29  C   UNL     1      -8.354 -10.300  11.262  0.00  0.00    +0.124 A 
ENDBRANCH   8  23
BRANCH  21   9
ATOM      4  O   UNL     1      -8.679  -9.430  16.047  0.00  0.00    -0.252 OA
ATOM      9  N   UNL     1      -9.649  -8.187  17.748  0.00  0.00    -0.265 N 
ATOM     10  N   UNL     1      -7.701  -9.322  18.178  0.00  0.00    -0.266 N 
ATOM     24  C   UNL     1      -8.666  -9.028  17.208  0.00  0.00    +0.308 C 
ATOM     38  H   UNL     1      -9.697  -8.120  18.760  0.00  0.00    +0.157 HD
ATOM     39  H   UNL     1      -7.837  -8.910  19.097  0.00  0.00    +0.156 HD
BRANCH  10  30
ATOM     30  C   UNL     1      -6.549 -10.132  18.039  0.00  0.00    +0.077 A 
ATOM     31  C   UNL     1      -6.312 -11.159  18.939  0.00  0.00    +0.141 A 
ATOM     32  C   UNL     1      -5.677  -9.876  16.992  0.00  0.00    +0.027 A 
ATOM     33  C   UNL     1      -5.173 -11.950  18.789  0.00  0.00    +0.047 A 
ATOM     34  C   UNL     1      -4.537 -10.666  16.843  0.00  0.00    +0.002 A 
ATOM     35  C   UNL     1      -4.285 -11.703  17.741  0.00  0.00    +0.004 A 
BRANCH  31   5
ATOM      5  O   UNL     1      -7.166 -11.416  19.969  0.00  0.00    -0.493 OA
ATOM     36  C   UNL     1      -8.011 -12.557  19.839  0.00  0.00    +0.277 C 
ENDBRANCH  31   5
ENDBRANCH  10  30
ENDBRANCH  21   9
TORSDOF 4
ENDMDL
