MODEL 1
REMARK VINA RESULT:      -6.1      0.000      0.000
REMARK  Name = 28962378
REMARK  10 active torsions:
REMARK  status: ('A' for Active; 'I' for Inactive)
REMARK    1  A    between atoms: O_2  and  C_10
REMARK    2  A    between atoms: O_3  and  C_18
REMARK    3  A    between atoms: N_5  and  C_8
REMARK    4  A    between atoms: N_6  and  C_17
REMARK    5  A    between atoms: N_7  and  C_21
REMARK    6  A    between atoms: C_9  and  C_17
REMARK    7  A    between atoms: C_11  and  C_18
REMARK    8  A    between atoms: C_14  and  C_19
REMARK    9  A    between atoms: C_21  and  C_22
REMARK   10  A    between atoms: C_21  and  C_23
REMARK                            x       y       z     vdW  Elec       q    Type
REMARK                         _______ _______ _______ _____ _____    ______ ____
ROOT
ATOM      1  O   UNL     1      11.018   7.945  20.090  0.00  0.00    -0.365 OA
ATOM      8  C   UNL     1      11.162   9.752  21.632  0.00  0.00    +0.118 C 
ATOM      9  C   UNL     1      11.294   9.362  20.155  0.00  0.00    +0.155 C 
ATOM     10  C   UNL     1      11.465   8.451  22.359  0.00  0.00    +0.165 C 
ATOM     11  C   UNL     1      10.802   7.446  21.425  0.00  0.00    +0.174 C 
ENDROOT
BRANCH   8   5
ATOM      5  N   UNL     1      11.942  10.900  22.065  0.00  0.00    -0.295 NA
ATOM     12  C   UNL     1      11.898  11.028  23.528  0.00  0.00    +0.085 C 
ATOM     13  C   UNL     1      11.461  12.124  21.411  0.00  0.00    +0.085 C 
ATOM     14  C   UNL     1      12.332  13.512  23.337  0.00  0.00    -0.012 C 
ATOM     15  C   UNL     1      12.759  12.200  24.005  0.00  0.00    +0.018 C 
ATOM     16  C   UNL     1      12.307  13.334  21.815  0.00  0.00    +0.018 C 
ATOM     19  C   UNL     1      13.257  14.658  23.740  0.00  0.00    +0.007 C 
ENDBRANCH   8   5
BRANCH  10   2
ATOM      2  O   UNL     1      12.864   8.209  22.433  0.00  0.00    -0.388 OA
ATOM     24  H   UNL     1      13.061   7.442  21.868  0.00  0.00    +0.210 HD
ENDBRANCH  10   2
BRANCH   9  17
ATOM     17  C   UNL     1      12.655   9.588  19.506  0.00  0.00    +0.139 C 
BRANCH  17   6
ATOM      4  O   UNL     1      15.530   9.432  19.682  0.00  0.00    -0.253 OA
ATOM      6  N   UNL     1      13.453   8.400  19.553  0.00  0.00    -0.297 N 
ATOM      7  N   UNL     1      15.370   7.117  19.668  0.00  0.00    -0.297 N 
ATOM     20  C   UNL     1      14.850   8.408  19.639  0.00  0.00    +0.300 C 
ATOM     25  H   UNL     1      12.980   7.502  19.508  0.00  0.00    +0.150 HD
ATOM     27  H   UNL     1      14.722   6.336  19.705  0.00  0.00    +0.150 HD
BRANCH   7  21
ATOM     21  C   UNL     1      16.785   6.846  19.754  0.00  0.00    +0.068 C 
ATOM     22  C   UNL     1      17.169   5.719  18.803  0.00  0.00    +0.027 C 
ATOM     23  C   UNL     1      17.181   6.516  21.189  0.00  0.00    +0.027 C 
ENDBRANCH   7  21
ENDBRANCH  17   6
ENDBRANCH   9  17
BRANCH  11  18
ATOM     18  C   UNL     1      11.324   6.024  21.518  0.00  0.00    +0.190 C 
BRANCH  18   3
ATOM      3  O   UNL     1      12.601   5.963  20.903  0.00  0.00    -0.392 OA
ATOM     26  H   UNL     1      12.620   5.156  20.362  0.00  0.00    +0.210 HD
ENDBRANCH  18   3
ENDBRANCH  11  18
TORSDOF 7
ENDMDL
MODEL 2
REMARK VINA RESULT:      -5.7     29.478     30.664
REMARK  Name = 28962378
REMARK  10 active torsions:
REMARK  status: ('A' for Active; 'I' for Inactive)
REMARK    1  A    between atoms: O_2  and  C_10
REMARK    2  A    between atoms: O_3  and  C_18
REMARK    3  A    between atoms: N_5  and  C_8
REMARK    4  A    between atoms: N_6  and  C_17
REMARK    5  A    between atoms: N_7  and  C_21
REMARK    6  A    between atoms: C_9  and  C_17
REMARK    7  A    between atoms: C_11  and  C_18
REMARK    8  A    between atoms: C_14  and  C_19
REMARK    9  A    between atoms: C_21  and  C_22
REMARK   10  A    between atoms: C_21  and  C_23
REMARK                            x       y       z     vdW  Elec       q    Type
REMARK                         _______ _______ _______ _____ _____    ______ ____
ROOT
ATOM      1  O   UNL     1     -15.497   0.122  29.100  0.00  0.00    -0.365 OA
ATOM      8  C   UNL     1     -15.171   1.712  30.841  0.00  0.00    +0.118 C 
ATOM      9  C   UNL     1     -15.982   1.396  29.578  0.00  0.00    +0.155 C 
ATOM     10  C   UNL     1     -13.877   0.943  30.618  0.00  0.00    +0.165 C 
ATOM     11  C   UNL     1     -14.410  -0.313  29.940  0.00  0.00    +0.174 C 
ENDROOT
BRANCH   8   5
ATOM      5  N   UNL     1     -15.007   3.119  31.164  0.00  0.00    -0.295 NA
ATOM     12  C   UNL     1     -14.005   3.290  32.225  0.00  0.00    +0.085 C 
ATOM     13  C   UNL     1     -16.295   3.711  31.551  0.00  0.00    +0.085 C 
ATOM     14  C   UNL     1     -15.094   5.462  32.923  0.00  0.00    -0.012 C 
ATOM     15  C   UNL     1     -13.781   4.770  32.539  0.00  0.00    +0.018 C 
ATOM     16  C   UNL     1     -16.150   5.206  31.842  0.00  0.00    +0.018 C 
ATOM     19  C   UNL     1     -14.882   6.959  33.138  0.00  0.00    +0.007 C 
ENDBRANCH   8   5
BRANCH  10   2
ATOM      2  O   UNL     1     -12.999   1.642  29.746  0.00  0.00    -0.388 OA
ATOM     24  H   UNL     1     -13.148   2.594  29.880  0.00  0.00    +0.210 HD
ENDBRANCH  10   2
BRANCH   9  17
ATOM     17  C   UNL     1     -15.865   2.386  28.425  0.00  0.00    +0.139 C 
BRANCH  17   6
ATOM      4  O   UNL     1     -15.735   3.377  25.718  0.00  0.00    -0.253 OA
ATOM      6  N   UNL     1     -16.688   1.991  27.321  0.00  0.00    -0.297 N 
ATOM      7  N   UNL     1     -17.486   1.963  25.153  0.00  0.00    -0.297 N 
ATOM     20  C   UNL     1     -16.562   2.522  26.032  0.00  0.00    +0.300 C 
ATOM     25  H   UNL     1     -17.413   1.299  27.486  0.00  0.00    +0.150 HD
ATOM     27  H   UNL     1     -18.077   1.208  25.490  0.00  0.00    +0.150 HD
BRANCH   7  21
ATOM     21  C   UNL     1     -17.567   2.338  23.762  0.00  0.00    +0.068 C 
ATOM     22  C   UNL     1     -18.487   3.540  23.589  0.00  0.00    +0.027 C 
ATOM     23  C   UNL     1     -18.035   1.159  22.916  0.00  0.00    +0.027 C 
ENDBRANCH   7  21
ENDBRANCH  17   6
ENDBRANCH   9  17
BRANCH  11  18
ATOM     18  C   UNL     1     -13.405  -1.079  29.100  0.00  0.00    +0.190 C 
BRANCH  18   3
ATOM      3  O   UNL     1     -12.269  -1.374  29.898  0.00  0.00    -0.392 OA
ATOM     26  H   UNL     1     -11.915  -2.224  29.589  0.00  0.00    +0.210 HD
ENDBRANCH  18   3
ENDBRANCH  11  18
TORSDOF 7
ENDMDL
MODEL 3
REMARK VINA RESULT:      -5.7      3.030      4.381
REMARK  Name = 28962378
REMARK  10 active torsions:
REMARK  status: ('A' for Active; 'I' for Inactive)
REMARK    1  A    between atoms: O_2  and  C_10
REMARK    2  A    between atoms: O_3  and  C_18
REMARK    3  A    between atoms: N_5  and  C_8
REMARK    4  A    between atoms: N_6  and  C_17
REMARK    5  A    between atoms: N_7  and  C_21
REMARK    6  A    between atoms: C_9  and  C_17
REMARK    7  A    between atoms: C_11  and  C_18
REMARK    8  A    between atoms: C_14  and  C_19
REMARK    9  A    between atoms: C_21  and  C_22
REMARK   10  A    between atoms: C_21  and  C_23
REMARK                            x       y       z     vdW  Elec       q    Type
REMARK                         _______ _______ _______ _____ _____    ______ ____
ROOT
ATOM      1  O   UNL     1      10.891   7.741  20.469  0.00  0.00    -0.365 OA
ATOM      8  C   UNL     1      12.909   8.794  21.164  0.00  0.00    +0.118 C 
ATOM      9  C   UNL     1      11.843   8.748  20.062  0.00  0.00    +0.155 C 
ATOM     10  C   UNL     1      12.843   7.397  21.763  0.00  0.00    +0.165 C 
ATOM     11  C   UNL     1      11.343   7.133  21.694  0.00  0.00    +0.174 C 
ENDROOT
BRANCH   8   5
ATOM      5  N   UNL     1      14.234   9.232  20.759  0.00  0.00    -0.295 NA
ATOM     12  C   UNL     1      15.244   8.776  21.723  0.00  0.00    +0.085 C 
ATOM     13  C   UNL     1      14.268  10.693  20.606  0.00  0.00    +0.085 C 
ATOM     14  C   UNL     1      16.753  10.697  21.074  0.00  0.00    -0.012 C 
ATOM     15  C   UNL     1      16.651   9.182  21.283  0.00  0.00    +0.018 C 
ATOM     16  C   UNL     1      15.642  11.165  20.127  0.00  0.00    +0.018 C 
ATOM     19  C   UNL     1      18.129  11.085  20.539  0.00  0.00    +0.007 C 
ENDBRANCH   8   5
BRANCH  10   2
ATOM      2  O   UNL     1      13.549   6.455  20.967  0.00  0.00    -0.388 OA
ATOM     24  H   UNL     1      14.066   5.891  21.567  0.00  0.00    +0.210 HD
ENDBRANCH  10   2
BRANCH   9  17
ATOM     17  C   UNL     1      12.322   8.378  18.663  0.00  0.00    +0.139 C 
BRANCH  17   6
ATOM      4  O   UNL     1      13.546   8.457  16.051  0.00  0.00    -0.253 OA
ATOM      6  N   UNL     1      12.701   9.544  17.922  0.00  0.00    -0.297 N 
ATOM      7  N   UNL     1      13.558  10.774  16.165  0.00  0.00    -0.297 N 
ATOM     20  C   UNL     1      13.293   9.498  16.655  0.00  0.00    +0.300 C 
ATOM     25  H   UNL     1      12.545  10.454  18.346  0.00  0.00    +0.150 HD
ATOM     27  H   UNL     1      13.242  11.575  16.706  0.00  0.00    +0.150 HD
BRANCH   7  21
ATOM     21  C   UNL     1      14.167  11.007  14.877  0.00  0.00    +0.068 C 
ATOM     22  C   UNL     1      15.682  11.098  15.016  0.00  0.00    +0.027 C 
ATOM     23  C   UNL     1      13.595  12.264  14.233  0.00  0.00    +0.027 C 
ENDBRANCH   7  21
ENDBRANCH  17   6
ENDBRANCH   9  17
BRANCH  11  18
ATOM     18  C   UNL     1      10.936   5.671  21.707  0.00  0.00    +0.190 C 
BRANCH  18   3
ATOM      3  O   UNL     1      11.190   5.112  20.428  0.00  0.00    -0.392 OA
ATOM     26  H   UNL     1      12.145   5.195  20.264  0.00  0.00    +0.210 HD
ENDBRANCH  18   3
ENDBRANCH  11  18
TORSDOF 7
ENDMDL
MODEL 4
REMARK VINA RESULT:      -5.4     27.802     30.160
REMARK  Name = 28962378
REMARK  10 active torsions:
REMARK  status: ('A' for Active; 'I' for Inactive)
REMARK    1  A    between atoms: O_2  and  C_10
REMARK    2  A    between atoms: O_3  and  C_18
REMARK    3  A    between atoms: N_5  and  C_8
REMARK    4  A    between atoms: N_6  and  C_17
REMARK    5  A    between atoms: N_7  and  C_21
REMARK    6  A    between atoms: C_9  and  C_17
REMARK    7  A    between atoms: C_11  and  C_18
REMARK    8  A    between atoms: C_14  and  C_19
REMARK    9  A    between atoms: C_21  and  C_22
REMARK   10  A    between atoms: C_21  and  C_23
REMARK                            x       y       z     vdW  Elec       q    Type
REMARK                         _______ _______ _______ _____ _____    ______ ____
ROOT
ATOM      1  O   UNL     1     -17.589   3.431  23.914  0.00  0.00    -0.365 OA
ATOM      8  C   UNL     1     -17.329   2.780  26.189  0.00  0.00    +0.118 C 
ATOM      9  C   UNL     1     -16.843   3.754  25.109  0.00  0.00    +0.155 C 
ATOM     10  C   UNL     1     -17.814   1.587  25.381  0.00  0.00    +0.165 C 
ATOM     11  C   UNL     1     -18.431   2.293  24.179  0.00  0.00    +0.174 C 
ENDROOT
BRANCH   8   5
ATOM      5  N   UNL     1     -16.382   2.468  27.246  0.00  0.00    -0.295 NA
ATOM     12  C   UNL     1     -16.836   1.303  28.016  0.00  0.00    +0.085 C 
ATOM     13  C   UNL     1     -16.182   3.635  28.117  0.00  0.00    +0.085 C 
ATOM     14  C   UNL     1     -15.541   2.112  30.031  0.00  0.00    -0.012 C 
ATOM     15  C   UNL     1     -15.823   0.928  29.099  0.00  0.00    +0.018 C 
ATOM     16  C   UNL     1     -15.146   3.340  29.204  0.00  0.00    +0.018 C 
ATOM     19  C   UNL     1     -14.457   1.763  31.048  0.00  0.00    +0.007 C 
ENDBRANCH   8   5
BRANCH  10   2
ATOM      2  O   UNL     1     -16.732   0.762  24.968  0.00  0.00    -0.388 OA
ATOM     24  H   UNL     1     -16.424   0.269  25.748  0.00  0.00    +0.210 HD
ENDBRANCH  10   2
BRANCH   9  17
ATOM     17  C   UNL     1     -15.363   3.693  24.748  0.00  0.00    +0.139 C 
BRANCH  17   6
ATOM      4  O   UNL     1     -14.766   4.258  21.983  0.00  0.00    -0.253 OA
ATOM      6  N   UNL     1     -14.913   4.937  24.200  0.00  0.00    -0.297 N 
ATOM      7  N   UNL     1     -14.222   6.433  22.581  0.00  0.00    -0.297 N 
ATOM     20  C   UNL     1     -14.644   5.132  22.840  0.00  0.00    +0.300 C 
ATOM     25  H   UNL     1     -14.768   5.717  24.834  0.00  0.00    +0.150 HD
ATOM     27  H   UNL     1     -14.226   7.103  23.345  0.00  0.00    +0.150 HD
BRANCH   7  21
ATOM     21  C   UNL     1     -13.880   6.895  21.257  0.00  0.00    +0.068 C 
ATOM     22  C   UNL     1     -12.385   6.733  21.009  0.00  0.00    +0.027 C 
ATOM     23  C   UNL     1     -14.317   8.343  21.066  0.00  0.00    +0.027 C 
ENDBRANCH   7  21
ENDBRANCH  17   6
ENDBRANCH   9  17
BRANCH  11  18
ATOM     18  C   UNL     1     -18.552   1.455  22.920  0.00  0.00    +0.190 C 
BRANCH  18   3
ATOM      3  O   UNL     1     -17.313   1.486  22.228  0.00  0.00    -0.392 OA
ATOM     26  H   UNL     1     -17.312   0.736  21.610  0.00  0.00    +0.210 HD
ENDBRANCH  18   3
ENDBRANCH  11  18
TORSDOF 7
ENDMDL
MODEL 5
REMARK VINA RESULT:      -5.4      2.655      6.426
REMARK  Name = 28962378
REMARK  10 active torsions:
REMARK  status: ('A' for Active; 'I' for Inactive)
REMARK    1  A    between atoms: O_2  and  C_10
REMARK    2  A    between atoms: O_3  and  C_18
REMARK    3  A    between atoms: N_5  and  C_8
REMARK    4  A    between atoms: N_6  and  C_17
REMARK    5  A    between atoms: N_7  and  C_21
REMARK    6  A    between atoms: C_9  and  C_17
REMARK    7  A    between atoms: C_11  and  C_18
REMARK    8  A    between atoms: C_14  and  C_19
REMARK    9  A    between atoms: C_21  and  C_22
REMARK   10  A    between atoms: C_21  and  C_23
REMARK                            x       y       z     vdW  Elec       q    Type
REMARK                         _______ _______ _______ _____ _____    ______ ____
ROOT
ATOM      1  O   UNL     1      12.423   8.499  21.774  0.00  0.00    -0.365 OA
ATOM      8  C   UNL     1      13.487   8.645  19.651  0.00  0.00    +0.118 C 
ATOM      9  C   UNL     1      13.014   9.453  20.865  0.00  0.00    +0.155 C 
ATOM     10  C   UNL     1      12.567   7.434  19.665  0.00  0.00    +0.165 C 
ATOM     11  C   UNL     1      12.443   7.193  21.165  0.00  0.00    +0.174 C 
ENDROOT
BRANCH   8   5
ATOM      5  N   UNL     1      13.550   9.360  18.387  0.00  0.00    -0.295 NA
ATOM     12  C   UNL     1      13.869   8.438  17.289  0.00  0.00    +0.085 C 
ATOM     13  C   UNL     1      14.528  10.454  18.464  0.00  0.00    +0.085 C 
ATOM     14  C   UNL     1      14.866  10.344  15.960  0.00  0.00    -0.012 C 
ATOM     15  C   UNL     1      13.885   9.166  15.945  0.00  0.00    +0.018 C 
ATOM     16  C   UNL     1      14.566  11.251  17.158  0.00  0.00    +0.018 C 
ATOM     19  C   UNL     1      14.804  11.127  14.651  0.00  0.00    +0.007 C 
ENDBRANCH   8   5
BRANCH  10   2
ATOM      2  O   UNL     1      11.296   7.739  19.106  0.00  0.00    -0.388 OA
ATOM     24  H   UNL     1      10.735   8.084  19.822  0.00  0.00    +0.210 HD
ENDBRANCH  10   2
BRANCH   9  17
ATOM     17  C   UNL     1      11.972  10.534  20.603  0.00  0.00    +0.139 C 
BRANCH  17   6
ATOM      4  O   UNL     1      11.861  13.246  21.581  0.00  0.00    -0.253 OA
ATOM      6  N   UNL     1      11.379  10.987  21.826  0.00  0.00    -0.297 N 
ATOM      7  N   UNL     1      10.728  12.486  23.458  0.00  0.00    -0.297 N 
ATOM     20  C   UNL     1      11.367  12.326  22.231  0.00  0.00    +0.300 C 
ATOM     25  H   UNL     1      10.958  10.296  22.440  0.00  0.00    +0.150 HD
ATOM     27  H   UNL     1      10.285  11.676  23.881  0.00  0.00    +0.150 HD
BRANCH   7  21
ATOM     21  C   UNL     1      10.579  13.770  24.100  0.00  0.00    +0.068 C 
ATOM     22  C   UNL     1      10.512  13.602  25.613  0.00  0.00    +0.027 C 
ATOM     23  C   UNL     1       9.346  14.494  23.571  0.00  0.00    +0.027 C 
ENDBRANCH   7  21
ENDBRANCH  17   6
ENDBRANCH   9  17
BRANCH  11  18
ATOM     18  C   UNL     1      11.215   6.418  21.603  0.00  0.00    +0.190 C 
BRANCH  18   3
ATOM      3  O   UNL     1      11.526   5.034  21.619  0.00  0.00    -0.392 OA
ATOM     26  H   UNL     1      11.399   4.722  22.530  0.00  0.00    +0.210 HD
ENDBRANCH  18   3
ENDBRANCH  11  18
TORSDOF 7
ENDMDL
MODEL 6
REMARK VINA RESULT:      -5.3     26.673     28.407
REMARK  Name = 28962378
REMARK  10 active torsions:
REMARK  status: ('A' for Active; 'I' for Inactive)
REMARK    1  A    between atoms: O_2  and  C_10
REMARK    2  A    between atoms: O_3  and  C_18
REMARK    3  A    between atoms: N_5  and  C_8
REMARK    4  A    between atoms: N_6  and  C_17
REMARK    5  A    between atoms: N_7  and  C_21
REMARK    6  A    between atoms: C_9  and  C_17
REMARK    7  A    between atoms: C_11  and  C_18
REMARK    8  A    between atoms: C_14  and  C_19
REMARK    9  A    between atoms: C_21  and  C_22
REMARK   10  A    between atoms: C_21  and  C_23
REMARK                            x       y       z     vdW  Elec       q    Type
REMARK                         _______ _______ _______ _____ _____    ______ ____
ROOT
ATOM      1  O   UNL     1      -1.516 -12.654  13.252  0.00  0.00    -0.365 OA
ATOM      8  C   UNL     1      -2.960 -11.854  11.537  0.00  0.00    +0.118 C 
ATOM      9  C   UNL     1      -1.955 -11.433  12.616  0.00  0.00    +0.155 C 
ATOM     10  C   UNL     1      -3.497 -13.175  12.066  0.00  0.00    +0.165 C 
ATOM     11  C   UNL     1      -2.235 -13.765  12.682  0.00  0.00    +0.174 C 
ENDROOT
BRANCH   8   5
ATOM      5  N   UNL     1      -3.971 -10.872  11.182  0.00  0.00    -0.295 NA
ATOM     12  C   UNL     1      -5.011 -11.484  10.345  0.00  0.00    +0.085 C 
ATOM     13  C   UNL     1      -3.355  -9.722  10.506  0.00  0.00    +0.085 C 
ATOM     14  C   UNL     1      -5.536  -9.232   9.324  0.00  0.00    -0.012 C 
ATOM     15  C   UNL     1      -6.112 -10.477  10.008  0.00  0.00    +0.018 C 
ATOM     16  C   UNL     1      -4.399  -8.654  10.173  0.00  0.00    +0.018 C 
ATOM     19  C   UNL     1      -6.623  -8.189   9.079  0.00  0.00    +0.007 C 
ENDBRANCH   8   5
BRANCH  10   2
ATOM      2  O   UNL     1      -4.488 -12.972  13.065  0.00  0.00    -0.388 OA
ATOM     24  H   UNL     1      -4.834 -13.845  13.317  0.00  0.00    +0.210 HD
ENDBRANCH  10   2
BRANCH   9  17
ATOM     17  C   UNL     1      -2.477 -10.513  13.715  0.00  0.00    +0.139 C 
BRANCH  17   6
ATOM      4  O   UNL     1      -4.590 -10.311  15.670  0.00  0.00    -0.253 OA
ATOM      6  N   UNL     1      -2.562 -11.203  14.967  0.00  0.00    -0.297 N 
ATOM      7  N   UNL     1      -3.455 -11.836  17.002  0.00  0.00    -0.297 N 
ATOM     20  C   UNL     1      -3.625 -11.050  15.865  0.00  0.00    +0.300 C 
ATOM     25  H   UNL     1      -1.803 -11.826  15.225  0.00  0.00    +0.150 HD
ATOM     27  H   UNL     1      -2.662 -12.470  17.036  0.00  0.00    +0.150 HD
BRANCH   7  21
ATOM     21  C   UNL     1      -4.410 -11.862  18.084  0.00  0.00    +0.068 C 
ATOM     22  C   UNL     1      -3.700 -12.098  19.412  0.00  0.00    +0.027 C 
ATOM     23  C   UNL     1      -5.475 -12.922  17.832  0.00  0.00    +0.027 C 
ENDBRANCH   7  21
ENDBRANCH  17   6
ENDBRANCH   9  17
BRANCH  11  18
ATOM     18  C   UNL     1      -2.460 -14.816  13.753  0.00  0.00    +0.190 C 
BRANCH  18   3
ATOM      3  O   UNL     1      -2.709 -14.167  14.989  0.00  0.00    -0.392 OA
ATOM     26  H   UNL     1      -1.879 -13.740  15.261  0.00  0.00    +0.210 HD
ENDBRANCH  18   3
ENDBRANCH  11  18
TORSDOF 7
ENDMDL
MODEL 7
REMARK VINA RESULT:      -5.3     17.102     19.899
REMARK  Name = 28962378
REMARK  10 active torsions:
REMARK  status: ('A' for Active; 'I' for Inactive)
REMARK    1  A    between atoms: O_2  and  C_10
REMARK    2  A    between atoms: O_3  and  C_18
REMARK    3  A    between atoms: N_5  and  C_8
REMARK    4  A    between atoms: N_6  and  C_17
REMARK    5  A    between atoms: N_7  and  C_21
REMARK    6  A    between atoms: C_9  and  C_17
REMARK    7  A    between atoms: C_11  and  C_18
REMARK    8  A    between atoms: C_14  and  C_19
REMARK    9  A    between atoms: C_21  and  C_22
REMARK   10  A    between atoms: C_21  and  C_23
REMARK                            x       y       z     vdW  Elec       q    Type
REMARK                         _______ _______ _______ _____ _____    ______ ____
ROOT
ATOM      1  O   UNL     1      12.999   7.232   3.565  0.00  0.00    -0.365 OA
ATOM      8  C   UNL     1      13.207   6.284   1.392  0.00  0.00    +0.118 C 
ATOM      9  C   UNL     1      12.243   6.519   2.562  0.00  0.00    +0.155 C 
ATOM     10  C   UNL     1      14.571   6.293   2.065  0.00  0.00    +0.165 C 
ATOM     11  C   UNL     1      14.359   7.379   3.114  0.00  0.00    +0.174 C 
ENDROOT
BRANCH   8   5
ATOM      5  N   UNL     1      12.935   5.124   0.559  0.00  0.00    -0.295 NA
ATOM     12  C   UNL     1      14.014   4.931  -0.420  0.00  0.00    +0.085 C 
ATOM     13  C   UNL     1      11.633   5.264  -0.107  0.00  0.00    +0.085 C 
ATOM     14  C   UNL     1      12.410   3.745  -1.973  0.00  0.00    -0.012 C 
ATOM     15  C   UNL     1      13.770   3.682  -1.269  0.00  0.00    +0.018 C 
ATOM     16  C   UNL     1      11.308   4.026  -0.946  0.00  0.00    +0.018 C 
ATOM     19  C   UNL     1      12.129   2.454  -2.739  0.00  0.00    +0.007 C 
ENDBRANCH   8   5
BRANCH  10   2
ATOM      2  O   UNL     1      14.852   5.048   2.691  0.00  0.00    -0.388 OA
ATOM     24  H   UNL     1      14.134   4.434   2.460  0.00  0.00    +0.210 HD
ENDBRANCH  10   2
BRANCH   9  17
ATOM     17  C   UNL     1      11.663   5.277   3.230  0.00  0.00    +0.139 C 
BRANCH  17   6
ATOM      4  O   UNL     1       9.258   5.115   4.816  0.00  0.00    -0.253 OA
ATOM      6  N   UNL     1      11.550   5.459   4.646  0.00  0.00    -0.297 N 
ATOM      7  N   UNL     1      10.517   5.585   6.709  0.00  0.00    -0.297 N 
ATOM     20  C   UNL     1      10.341   5.364   5.345  0.00  0.00    +0.300 C 
ATOM     25  H   UNL     1      12.391   5.684   5.170  0.00  0.00    +0.150 HD
ATOM     27  H   UNL     1      11.462   5.708   7.060  0.00  0.00    +0.150 HD
BRANCH   7  21
ATOM     21  C   UNL     1       9.427   5.544   7.654  0.00  0.00    +0.068 C 
ATOM     22  C   UNL     1       9.045   6.954   8.085  0.00  0.00    +0.027 C 
ATOM     23  C   UNL     1       9.793   4.680   8.855  0.00  0.00    +0.027 C 
ENDBRANCH   7  21
ENDBRANCH  17   6
ENDBRANCH   9  17
BRANCH  11  18
ATOM     18  C   UNL     1      15.292   7.323   4.309  0.00  0.00    +0.190 C 
BRANCH  18   3
ATOM      3  O   UNL     1      14.661   6.595   5.350  0.00  0.00    -0.392 OA
ATOM     26  H   UNL     1      13.733   6.469   5.090  0.00  0.00    +0.210 HD
ENDBRANCH  18   3
ENDBRANCH  11  18
TORSDOF 7
ENDMDL
MODEL 8
REMARK VINA RESULT:      -5.2     14.306     16.169
REMARK  Name = 28962378
REMARK  10 active torsions:
REMARK  status: ('A' for Active; 'I' for Inactive)
REMARK    1  A    between atoms: O_2  and  C_10
REMARK    2  A    between atoms: O_3  and  C_18
REMARK    3  A    between atoms: N_5  and  C_8
REMARK    4  A    between atoms: N_6  and  C_17
REMARK    5  A    between atoms: N_7  and  C_21
REMARK    6  A    between atoms: C_9  and  C_17
REMARK    7  A    between atoms: C_11  and  C_18
REMARK    8  A    between atoms: C_14  and  C_19
REMARK    9  A    between atoms: C_21  and  C_22
REMARK   10  A    between atoms: C_21  and  C_23
REMARK                            x       y       z     vdW  Elec       q    Type
REMARK                         _______ _______ _______ _____ _____    ______ ____
ROOT
ATOM      1  O   UNL     1      10.847   4.877   8.448  0.00  0.00    -0.365 OA
ATOM      8  C   UNL     1       9.677   5.608   6.508  0.00  0.00    +0.118 C 
ATOM      9  C   UNL     1      11.068   5.411   7.123  0.00  0.00    +0.155 C 
ATOM     10  C   UNL     1       8.786   5.791   7.727  0.00  0.00    +0.165 C 
ATOM     11  C   UNL     1       9.430   4.807   8.697  0.00  0.00    +0.174 C 
ENDROOT
BRANCH   8   5
ATOM      5  N   UNL     1       9.563   6.645   5.496  0.00  0.00    -0.295 NA
ATOM     12  C   UNL     1       8.151   6.972   5.253  0.00  0.00    +0.085 C 
ATOM     13  C   UNL     1      10.232   6.229   4.257  0.00  0.00    +0.085 C 
ATOM     14  C   UNL     1       8.720   7.747   2.914  0.00  0.00    -0.012 C 
ATOM     15  C   UNL     1       8.016   8.100   4.229  0.00  0.00    +0.018 C 
ATOM     16  C   UNL     1      10.168   7.332   3.198  0.00  0.00    +0.018 C 
ATOM     19  C   UNL     1       8.667   8.915   1.933  0.00  0.00    +0.007 C 
ENDBRANCH   8   5
BRANCH  10   2
ATOM      2  O   UNL     1       8.869   7.115   8.239  0.00  0.00    -0.388 OA
ATOM     24  H   UNL     1       8.583   7.721   7.534  0.00  0.00    +0.210 HD
ENDBRANCH  10   2
BRANCH   9  17
ATOM     17  C   UNL     1      11.931   6.659   7.276  0.00  0.00    +0.139 C 
BRANCH  17   6
ATOM      4  O   UNL     1      12.926   8.403   5.205  0.00  0.00    -0.253 OA
ATOM      6  N   UNL     1      13.161   6.527   6.555  0.00  0.00    -0.297 N 
ATOM      7  N   UNL     1      14.806   7.056   5.022  0.00  0.00    -0.297 N 
ATOM     20  C   UNL     1      13.574   7.420   5.559  0.00  0.00    +0.300 C 
ATOM     25  H   UNL     1      13.759   5.734   6.767  0.00  0.00    +0.150 HD
ATOM     27  H   UNL     1      15.299   6.269   5.434  0.00  0.00    +0.150 HD
BRANCH   7  21
ATOM     21  C   UNL     1      15.457   7.810   3.977  0.00  0.00    +0.068 C 
ATOM     22  C   UNL     1      15.259   7.128   2.629  0.00  0.00    +0.027 C 
ATOM     23  C   UNL     1      16.937   7.992   4.291  0.00  0.00    +0.027 C 
ENDBRANCH   7  21
ENDBRANCH  17   6
ENDBRANCH   9  17
BRANCH  11  18
ATOM     18  C   UNL     1       9.167   5.071  10.167  0.00  0.00    +0.190 C 
BRANCH  18   3
ATOM      3  O   UNL     1      10.159   4.410  10.938  0.00  0.00    -0.392 OA
ATOM     26  H   UNL     1      10.585   5.084  11.494  0.00  0.00    +0.210 HD
ENDBRANCH  18   3
ENDBRANCH  11  18
TORSDOF 7
ENDMDL
MODEL 9
REMARK VINA RESULT:      -5.2     25.708     28.222
REMARK  Name = 28962378
REMARK  10 active torsions:
REMARK  status: ('A' for Active; 'I' for Inactive)
REMARK    1  A    between atoms: O_2  and  C_10
REMARK    2  A    between atoms: O_3  and  C_18
REMARK    3  A    between atoms: N_5  and  C_8
REMARK    4  A    between atoms: N_6  and  C_17
REMARK    5  A    between atoms: N_7  and  C_21
REMARK    6  A    between atoms: C_9  and  C_17
REMARK    7  A    between atoms: C_11  and  C_18
REMARK    8  A    between atoms: C_14  and  C_19
REMARK    9  A    between atoms: C_21  and  C_22
REMARK   10  A    between atoms: C_21  and  C_23
REMARK                            x       y       z     vdW  Elec       q    Type
REMARK                         _______ _______ _______ _____ _____    ______ ____
ROOT
ATOM      1  O   UNL     1      -2.960 -12.135  15.092  0.00  0.00    -0.365 OA
ATOM      8  C   UNL     1      -4.347 -12.004  17.022  0.00  0.00    +0.118 C 
ATOM      9  C   UNL     1      -4.240 -12.572  15.601  0.00  0.00    +0.155 C 
ATOM     10  C   UNL     1      -3.446 -10.780  16.970  0.00  0.00    +0.165 C 
ATOM     11  C   UNL     1      -2.326 -11.293  16.073  0.00  0.00    +0.174 C 
ENDROOT
BRANCH   8   5
ATOM      5  N   UNL     1      -5.691 -11.764  17.518  0.00  0.00    -0.295 NA
ATOM     12  C   UNL     1      -5.646 -11.054  18.803  0.00  0.00    +0.085 C 
ATOM     13  C   UNL     1      -6.430 -13.029  17.636  0.00  0.00    +0.085 C 
ATOM     14  C   UNL     1      -7.895 -12.020  19.433  0.00  0.00    -0.012 C 
ATOM     15  C   UNL     1      -7.054 -10.745  19.313  0.00  0.00    +0.018 C 
ATOM     16  C   UNL     1      -7.866 -12.787  18.106  0.00  0.00    +0.018 C 
ATOM     19  C   UNL     1      -9.329 -11.695  19.846  0.00  0.00    +0.007 C 
ENDBRANCH   8   5
BRANCH  10   2
ATOM      2  O   UNL     1      -4.102  -9.676  16.361  0.00  0.00    -0.388 OA
ATOM     24  H   UNL     1      -4.158  -8.965  17.023  0.00  0.00    +0.210 HD
ENDBRANCH  10   2
BRANCH   9  17
ATOM     17  C   UNL     1      -5.301 -12.121  14.603  0.00  0.00    +0.139 C 
BRANCH  17   6
ATOM      4  O   UNL     1      -5.517 -11.851  11.739  0.00  0.00    -0.253 OA
ATOM      6  N   UNL     1      -4.827 -11.034  13.801  0.00  0.00    -0.297 N 
ATOM      7  N   UNL     1      -4.420  -9.811  11.884  0.00  0.00    -0.297 N 
ATOM     20  C   UNL     1      -4.971 -10.976  12.410  0.00  0.00    +0.300 C 
ATOM     25  H   UNL     1      -4.346 -10.269  14.266  0.00  0.00    +0.150 HD
ATOM     27  H   UNL     1      -4.058  -9.114  12.529  0.00  0.00    +0.150 HD
BRANCH   7  21
ATOM     21  C   UNL     1      -4.436  -9.506  10.473  0.00  0.00    +0.068 C 
ATOM     22  C   UNL     1      -3.039  -9.124   9.998  0.00  0.00    +0.027 C 
ATOM     23  C   UNL     1      -5.442  -8.401  10.175  0.00  0.00    +0.027 C 
ENDBRANCH   7  21
ENDBRANCH  17   6
ENDBRANCH   9  17
BRANCH  11  18
ATOM     18  C   UNL     1      -1.515 -10.223  15.365  0.00  0.00    +0.190 C 
BRANCH  18   3
ATOM      3  O   UNL     1      -2.134  -9.924  14.124  0.00  0.00    -0.392 OA
ATOM     26  H   UNL     1      -2.678  -9.131  14.260  0.00  0.00    +0.210 HD
ENDBRANCH  18   3
ENDBRANCH  11  18
TORSDOF 7
ENDMDL
MODEL 10
REMARK VINA RESULT:      -5.2      5.023      9.898
REMARK  Name = 28962378
REMARK  10 active torsions:
REMARK  status: ('A' for Active; 'I' for Inactive)
REMARK    1  A    between atoms: O_2  and  C_10
REMARK    2  A    between atoms: O_3  and  C_18
REMARK    3  A    between atoms: N_5  and  C_8
REMARK    4  A    between atoms: N_6  and  C_17
REMARK    5  A    between atoms: N_7  and  C_21
REMARK    6  A    between atoms: C_9  and  C_17
REMARK    7  A    between atoms: C_11  and  C_18
REMARK    8  A    between atoms: C_14  and  C_19
REMARK    9  A    between atoms: C_21  and  C_22
REMARK   10  A    between atoms: C_21  and  C_23
REMARK                            x       y       z     vdW  Elec       q    Type
REMARK                         _______ _______ _______ _____ _____    ______ ____
ROOT
ATOM      1  O   UNL     1      20.234   7.848  20.860  0.00  0.00    -0.365 OA
ATOM      8  C   UNL     1      21.734   6.320  21.899  0.00  0.00    +0.118 C 
ATOM      9  C   UNL     1      20.865   6.563  20.659  0.00  0.00    +0.155 C 
ATOM     10  C   UNL     1      21.041   7.146  22.971  0.00  0.00    +0.165 C 
ATOM     11  C   UNL     1      20.605   8.357  22.155  0.00  0.00    +0.174 C 
ENDROOT
BRANCH   8   5
ATOM      5  N   UNL     1      21.979   4.931  22.249  0.00  0.00    -0.295 NA
ATOM     12  C   UNL     1      22.606   4.837  23.574  0.00  0.00    +0.085 C 
ATOM     13  C   UNL     1      22.807   4.281  21.224  0.00  0.00    +0.085 C 
ATOM     14  C   UNL     1      23.655   2.627  22.938  0.00  0.00    -0.012 C 
ATOM     15  C   UNL     1      22.821   3.379  23.981  0.00  0.00    +0.018 C 
ATOM     16  C   UNL     1      23.029   2.802  21.550  0.00  0.00    +0.018 C 
ATOM     19  C   UNL     1      23.782   1.149  23.299  0.00  0.00    +0.007 C 
ENDBRANCH   8   5
BRANCH  10   2
ATOM      2  O   UNL     1      19.907   6.470  23.498  0.00  0.00    -0.388 OA
ATOM     24  H   UNL     1      19.442   7.090  24.086  0.00  0.00    +0.210 HD
ENDBRANCH  10   2
BRANCH   9  17
ATOM     17  C   UNL     1      19.755   5.552  20.392  0.00  0.00    +0.139 C 
BRANCH  17   6
ATOM      4  O   UNL     1      17.473   5.712  18.634  0.00  0.00    -0.253 OA
ATOM      6  N   UNL     1      18.469   6.104  20.697  0.00  0.00    -0.297 N 
ATOM      7  N   UNL     1      16.276   6.734  20.340  0.00  0.00    -0.297 N 
ATOM     20  C   UNL     1      17.408   6.145  19.784  0.00  0.00    +0.300 C 
ATOM     25  H   UNL     1      18.324   6.501  21.620  0.00  0.00    +0.150 HD
ATOM     27  H   UNL     1      16.298   6.991  21.323  0.00  0.00    +0.150 HD
BRANCH   7  21
ATOM     21  C   UNL     1      15.042   6.899  19.609  0.00  0.00    +0.068 C 
ATOM     22  C   UNL     1      15.006   8.263  18.931  0.00  0.00    +0.027 C 
ATOM     23  C   UNL     1      13.844   6.710  20.531  0.00  0.00    +0.027 C 
ENDBRANCH   7  21
ENDBRANCH  17   6
ENDBRANCH   9  17
BRANCH  11  18
ATOM     18  C   UNL     1      19.447   9.151  22.731  0.00  0.00    +0.190 C 
BRANCH  18   3
ATOM      3  O   UNL     1      18.229   8.541  22.333  0.00  0.00    -0.392 OA
ATOM     26  H   UNL     1      18.373   7.580  22.345  0.00  0.00    +0.210 HD
ENDBRANCH  18   3
ENDBRANCH  11  18
TORSDOF 7
ENDMDL
