REMARK  Name = 28961797
REMARK  10 active torsions:
REMARK  status: ('A' for Active; 'I' for Inactive)
REMARK    1  A    between atoms: O_4  and  C_13
REMARK    2  A    between atoms: O_5  and  C_19
REMARK    3  A    between atoms: O_5  and  C_22
REMARK    4  A    between atoms: O_6  and  C_20
REMARK    5  A    between atoms: N_8  and  C_10
REMARK    6  A    between atoms: N_9  and  C_18
REMARK    7  A    between atoms: C_11  and  C_19
REMARK    8  A    between atoms: C_12  and  C_18
REMARK    9  A    between atoms: C_15  and  C_20
REMARK   10  A    between atoms: C_21  and  C_23
REMARK                            x       y       z     vdW  Elec       q    Type
REMARK                         _______ _______ _______ _____ _____    ______ ____
ROOT
ATOM      3  O   UNL     1       0.641  -1.936   0.866  0.00  0.00    -0.365 OA
ATOM     10  C   UNL     1       2.573  -0.660   0.310  0.00  0.00    +0.118 C 
ATOM     12  C   UNL     1       1.039  -0.654   0.331  0.00  0.00    +0.155 C 
ATOM     13  C   UNL     1       2.908  -2.141   0.215  0.00  0.00    +0.165 C 
ATOM     15  C   UNL     1       1.818  -2.733   1.101  0.00  0.00    +0.174 C 
ENDROOT
BRANCH  10   8
ATOM      8  N   UNL     1       3.205   0.183  -0.690  0.00  0.00    -0.289 NA
ATOM     11  C   UNL     1       3.206   1.621  -0.397  0.00  0.00    +0.083 C 
ATOM     14  C   UNL     1       4.587  -0.200  -0.970  0.00  0.00    +0.085 C 
ATOM     16  C   UNL     1       4.158   2.134  -1.476  0.00  0.00    +0.022 C 
ATOM     17  C   UNL     1       5.188   1.023  -1.652  0.00  0.00    +0.017 C 
BRANCH  11  19
ATOM     19  C   UNL     1       3.678   2.023   1.004  0.00  0.00    +0.178 C 
BRANCH  19   5
ATOM      5  O   UNL     1       3.744   3.436   1.071  0.00  0.00    -0.381 OA
ATOM     22  C   UNL     1       4.177   3.882   2.351  0.00  0.00    +0.194 C 
ENDBRANCH  19   5
ENDBRANCH  11  19
ENDBRANCH  10   8
BRANCH  13   4
ATOM      4  O   UNL     1       2.778  -2.620  -1.117  0.00  0.00    -0.388 OA
ATOM     29  H   UNL     1       3.107  -3.535  -1.133  0.00  0.00    +0.210 HD
ENDBRANCH  13   4
BRANCH  12  18
ATOM     18  C   UNL     1       0.337  -0.488  -1.013  0.00  0.00    +0.137 C 
BRANCH  18   9
ATOM      7  O   UNL     1      -1.360   1.781  -0.548  0.00  0.00    -0.270 OA
ATOM      9  N   UNL     1      -1.086  -0.503  -0.856  0.00  0.00    -0.309 N 
ATOM     21  C   UNL     1      -1.834   0.651  -0.633  0.00  0.00    +0.244 C 
ATOM     30  H   UNL     1      -1.533  -1.413  -0.846  0.00  0.00    +0.149 HD
BRANCH  21  23
ATOM      1 CL   UNL     1      -6.319   2.333   1.371  0.00  0.00    -0.081 Cl
ATOM      2  F   UNL     1      -7.369  -0.069  -0.012  0.00  0.00    -0.204 F 
ATOM     23  C   UNL     1      -3.298   0.464  -0.466  0.00  0.00    +0.038 A 
ATOM     24  C   UNL     1      -4.037   1.377   0.286  0.00  0.00    +0.036 A 
ATOM     25  C   UNL     1      -3.934  -0.625  -1.061  0.00  0.00    +0.016 A 
ATOM     26  C   UNL     1      -5.412   1.202   0.443  0.00  0.00    +0.077 A 
ATOM     27  C   UNL     1      -5.309  -0.801  -0.904  0.00  0.00    +0.040 A 
ATOM     28  C   UNL     1      -6.048   0.113  -0.152  0.00  0.00    +0.142 A 
ENDBRANCH  21  23
ENDBRANCH  18   9
ENDBRANCH  12  18
BRANCH  15  20
ATOM     20  C   UNL     1       1.492  -4.193   0.848  0.00  0.00    +0.190 C 
BRANCH  20   6
ATOM      6  O   UNL     1       0.476  -4.600   1.750  0.00  0.00    -0.392 OA
ATOM     31  H   UNL     1       0.290  -5.537   1.568  0.00  0.00    +0.210 HD
ENDBRANCH  20   6
ENDBRANCH  15  20
TORSDOF 9
