MODEL 1
REMARK VINA RESULT:      -8.0      0.000      0.000
REMARK  Name = 28991375
REMARK  7 active torsions:
REMARK  status: ('A' for Active; 'I' for Inactive)
REMARK    1  A    between atoms: O_2  and  C_20
REMARK    2  A    between atoms: O_2  and  C_32
REMARK    3  A    between atoms: N_6  and  C_11
REMARK    4  A    between atoms: N_6  and  C_21
REMARK    5  A    between atoms: C_9  and  C_17
REMARK    6  A    between atoms: C_13  and  C_20
REMARK    7  A    between atoms: C_21  and  C_27
REMARK                            x       y       z     vdW  Elec       q    Type
REMARK                         _______ _______ _______ _____ _____    ______ ____
ROOT
ATOM      4  N   UNL     1      13.640  10.038  20.420  0.00  0.00    -0.274 NA
ATOM      5  N   UNL     1      11.307  12.826  21.367  0.00  0.00    -0.356 N 
ATOM      8  C   UNL     1      12.588  11.038  20.057  0.00  0.00    +0.106 C 
ATOM      9  C   UNL     1      14.175   9.337  19.226  0.00  0.00    +0.090 C 
ATOM     10  C   UNL     1      13.143  12.076  19.070  0.00  0.00    +0.044 C 
ATOM     11  C   UNL     1      13.659  11.390  17.805  0.00  0.00    +0.058 C 
ATOM     12  C   UNL     1      14.710  10.346  18.180  0.00  0.00    +0.042 C 
ATOM     13  C   UNL     1      13.228   9.144  21.536  0.00  0.00    +0.172 C 
ATOM     14  C   UNL     1      12.058  11.685  21.301  0.00  0.00    +0.038 A 
ATOM     15  C   UNL     1      12.933   9.923  22.844  0.00  0.00    +0.068 C 
ATOM     16  C   UNL     1      12.189  11.184  22.577  0.00  0.00    -0.016 A 
ATOM     18  C   UNL     1      11.521  12.071  23.464  0.00  0.00    +0.003 A 
ATOM     19  C   UNL     1      10.978  13.094  22.679  0.00  0.00    +0.047 A 
ATOM     24  C   UNL     1      11.320  12.108  24.859  0.00  0.00    +0.010 A 
ATOM     25  C   UNL     1      10.243  14.152  23.224  0.00  0.00    +0.026 A 
ATOM     26  C   UNL     1      10.588  13.163  25.416  0.00  0.00    +0.001 A 
ATOM     30  C   UNL     1      10.058  14.168  24.609  0.00  0.00    +0.002 A 
ATOM     37  H   UNL     1      11.032  13.395  20.579  0.00  0.00    +0.166 HD
ENDROOT
BRANCH   9  17
ATOM      1  F   UNL     1      18.336   5.681  20.364  0.00  0.00    -0.205 F 
ATOM     17  C   UNL     1      15.298   8.350  19.533  0.00  0.00    -0.030 A 
ATOM     22  C   UNL     1      16.335   8.719  20.391  0.00  0.00    +0.008 A 
ATOM     23  C   UNL     1      15.288   7.080  18.956  0.00  0.00    +0.008 A 
ATOM     28  C   UNL     1      17.361   7.817  20.671  0.00  0.00    +0.038 A 
ATOM     29  C   UNL     1      16.315   6.179  19.236  0.00  0.00    +0.038 A 
ATOM     31  C   UNL     1      17.351   6.547  20.094  0.00  0.00    +0.123 A 
ENDBRANCH   9  17
BRANCH  13  20
ATOM      3  O   UNL     1      10.951   8.767  20.837  0.00  0.00    -0.249 OA
ATOM     20  C   UNL     1      12.046   8.308  21.132  0.00  0.00    +0.325 C 
BRANCH  20   2
ATOM      2  O   UNL     1      12.392   6.990  21.149  0.00  0.00    -0.467 OA
ATOM     32  C   UNL     1      11.347   6.082  21.510  0.00  0.00    +0.280 C 
ENDBRANCH  20   2
ENDBRANCH  13  20
BRANCH  11   6
ATOM      6  N   UNL     1      14.214  12.381  16.885  0.00  0.00    -0.309 NA
ATOM     38  H   UNL     1      13.635  12.423  16.046  0.00  0.00    +0.123 HD
BRANCH   6  21
ATOM     21  C   UNL     1      15.572  12.026  16.502  0.00  0.00    +0.118 C 
BRANCH  21  27
ATOM      7  N   UNL     1      14.790  11.663  12.816  0.00  0.00    -0.263 NA
ATOM     27  C   UNL     1      15.748  12.021  15.007  0.00  0.00    -0.015 A 
ATOM     33  C   UNL     1      16.969  12.348  14.427  0.00  0.00    +0.008 A 
ATOM     34  C   UNL     1      14.699  11.689  14.164  0.00  0.00    +0.115 A 
ATOM     35  C   UNL     1      17.102  12.334  13.043  0.00  0.00    +0.020 A 
ATOM     36  C   UNL     1      15.993  11.987  12.289  0.00  0.00    +0.111 A 
ENDBRANCH  21  27
ENDBRANCH   6  21
ENDBRANCH  11   6
TORSDOF 6
ENDMDL
MODEL 2
REMARK VINA RESULT:      -7.9     12.821     16.550
REMARK  Name = 28991375
REMARK  7 active torsions:
REMARK  status: ('A' for Active; 'I' for Inactive)
REMARK    1  A    between atoms: O_2  and  C_20
REMARK    2  A    between atoms: O_2  and  C_32
REMARK    3  A    between atoms: N_6  and  C_11
REMARK    4  A    between atoms: N_6  and  C_21
REMARK    5  A    between atoms: C_9  and  C_17
REMARK    6  A    between atoms: C_13  and  C_20
REMARK    7  A    between atoms: C_21  and  C_27
REMARK                            x       y       z     vdW  Elec       q    Type
REMARK                         _______ _______ _______ _____ _____    ______ ____
ROOT
ATOM      4  N   UNL     1      11.926   6.701   5.688  0.00  0.00    -0.274 NA
ATOM      5  N   UNL     1      14.679   7.743   3.355  0.00  0.00    -0.356 N 
ATOM      8  C   UNL     1      12.389   7.169   4.346  0.00  0.00    +0.106 C 
ATOM      9  C   UNL     1      10.483   6.353   5.687  0.00  0.00    +0.090 C 
ATOM     10  C   UNL     1      12.130   6.097   3.277  0.00  0.00    +0.044 C 
ATOM     11  C   UNL     1      10.643   5.751   3.216  0.00  0.00    +0.058 C 
ATOM     12  C   UNL     1      10.164   5.302   4.596  0.00  0.00    +0.042 C 
ATOM     13  C   UNL     1      12.350   7.602   6.794  0.00  0.00    +0.172 C 
ATOM     14  C   UNL     1      13.839   7.543   4.415  0.00  0.00    +0.038 A 
ATOM     15  C   UNL     1      13.892   7.718   6.909  0.00  0.00    +0.068 C 
ATOM     16  C   UNL     1      14.537   7.815   5.572  0.00  0.00    -0.016 A 
ATOM     18  C   UNL     1      15.866   8.161   5.208  0.00  0.00    +0.003 A 
ATOM     19  C   UNL     1      15.929   8.107   3.811  0.00  0.00    +0.047 A 
ATOM     24  C   UNL     1      17.026   8.518   5.924  0.00  0.00    +0.010 A 
ATOM     25  C   UNL     1      17.098   8.393   3.098  0.00  0.00    +0.026 A 
ATOM     26  C   UNL     1      18.202   8.805   5.222  0.00  0.00    +0.001 A 
ATOM     30  C   UNL     1      18.236   8.743   3.830  0.00  0.00    +0.002 A 
ATOM     37  H   UNL     1      14.431   7.640   2.381  0.00  0.00    +0.166 HD
ENDROOT
BRANCH   9  17
ATOM      1  F   UNL     1       8.591   4.328  10.618  0.00  0.00    -0.205 F 
ATOM     17  C   UNL     1       9.972   5.806   7.018  0.00  0.00    -0.030 A 
ATOM     22  C   UNL     1      10.166   4.462   7.340  0.00  0.00    +0.008 A 
ATOM     23  C   UNL     1       9.313   6.650   7.912  0.00  0.00    +0.008 A 
ATOM     28  C   UNL     1       9.699   3.963   8.556  0.00  0.00    +0.038 A 
ATOM     29  C   UNL     1       8.846   6.150   9.127  0.00  0.00    +0.038 A 
ATOM     31  C   UNL     1       9.039   4.807   9.450  0.00  0.00    +0.123 A 
ENDBRANCH   9  17
BRANCH  13  20
ATOM      3  O   UNL     1      10.736   9.181   5.949  0.00  0.00    -0.249 OA
ATOM     20  C   UNL     1      11.721   8.958   6.639  0.00  0.00    +0.325 C 
BRANCH  20   2
ATOM      2  O   UNL     1      12.413   9.870   7.379  0.00  0.00    -0.467 OA
ATOM     32  C   UNL     1      11.620  10.705   8.228  0.00  0.00    +0.280 C 
ENDBRANCH  20   2
ENDBRANCH  13  20
BRANCH  11   6
ATOM      6  N   UNL     1      10.410   4.706   2.219  0.00  0.00    -0.309 NA
ATOM     38  H   UNL     1       9.485   4.301   2.366  0.00  0.00    +0.123 HD
BRANCH   6  21
ATOM     21  C   UNL     1      11.408   3.654   2.332  0.00  0.00    +0.118 C 
BRANCH  21  27
ATOM      7  N   UNL     1      12.933   4.065  -1.107  0.00  0.00    -0.263 NA
ATOM     27  C   UNL     1      12.436   3.735   1.236  0.00  0.00    -0.015 A 
ATOM     33  C   UNL     1      13.789   3.565   1.506  0.00  0.00    +0.008 A 
ATOM     34  C   UNL     1      12.064   3.981  -0.077  0.00  0.00    +0.115 A 
ATOM     35  C   UNL     1      14.715   3.644   0.472  0.00  0.00    +0.020 A 
ATOM     36  C   UNL     1      14.241   3.894  -0.806  0.00  0.00    +0.111 A 
ENDBRANCH  21  27
ENDBRANCH   6  21
ENDBRANCH  11   6
TORSDOF 6
ENDMDL
MODEL 3
REMARK VINA RESULT:      -7.1     15.314     19.888
REMARK  Name = 28991375
REMARK  7 active torsions:
REMARK  status: ('A' for Active; 'I' for Inactive)
REMARK    1  A    between atoms: O_2  and  C_20
REMARK    2  A    between atoms: O_2  and  C_32
REMARK    3  A    between atoms: N_6  and  C_11
REMARK    4  A    between atoms: N_6  and  C_21
REMARK    5  A    between atoms: C_9  and  C_17
REMARK    6  A    between atoms: C_13  and  C_20
REMARK    7  A    between atoms: C_21  and  C_27
REMARK                            x       y       z     vdW  Elec       q    Type
REMARK                         _______ _______ _______ _____ _____    ______ ____
ROOT
ATOM      4  N   UNL     1      17.006  -7.160  25.871  0.00  0.00    -0.274 NA
ATOM      5  N   UNL     1      17.774  -3.496  26.172  0.00  0.00    -0.356 N 
ATOM      8  C   UNL     1      17.630  -6.016  26.603  0.00  0.00    +0.106 C 
ATOM      9  C   UNL     1      17.074  -8.421  26.651  0.00  0.00    +0.090 C 
ATOM     10  C   UNL     1      16.949  -5.803  27.963  0.00  0.00    +0.044 C 
ATOM     11  C   UNL     1      17.044  -7.070  28.812  0.00  0.00    +0.058 C 
ATOM     12  C   UNL     1      16.434  -8.246  28.050  0.00  0.00    +0.042 C 
ATOM     13  C   UNL     1      17.474  -7.272  24.462  0.00  0.00    +0.172 C 
ATOM     14  C   UNL     1      17.569  -4.781  25.754  0.00  0.00    +0.038 A 
ATOM     15  C   UNL     1      17.136  -6.014  23.622  0.00  0.00    +0.068 C 
ATOM     16  C   UNL     1      17.363  -4.761  24.392  0.00  0.00    -0.016 A 
ATOM     18  C   UNL     1      17.409  -3.406  23.965  0.00  0.00    +0.003 A 
ATOM     19  C   UNL     1      17.667  -2.632  25.101  0.00  0.00    +0.047 A 
ATOM     24  C   UNL     1      17.260  -2.756  22.723  0.00  0.00    +0.010 A 
ATOM     25  C   UNL     1      17.782  -1.239  25.055  0.00  0.00    +0.026 A 
ATOM     26  C   UNL     1      17.372  -1.362  22.663  0.00  0.00    +0.001 A 
ATOM     30  C   UNL     1      17.630  -0.617  23.813  0.00  0.00    +0.002 A 
ATOM     37  H   UNL     1      17.972  -3.211  27.121  0.00  0.00    +0.166 HD
ENDROOT
BRANCH   9  17
ATOM      1  F   UNL     1      14.549 -12.823  24.153  0.00  0.00    -0.205 F 
ATOM     17  C   UNL     1      16.392  -9.609  25.977  0.00  0.00    -0.030 A 
ATOM     22  C   UNL     1      15.051  -9.523  25.600  0.00  0.00    +0.008 A 
ATOM     23  C   UNL     1      17.110 -10.781  25.737  0.00  0.00    +0.008 A 
ATOM     28  C   UNL     1      14.428 -10.609  24.985  0.00  0.00    +0.038 A 
ATOM     29  C   UNL     1      16.487 -11.867  25.121  0.00  0.00    +0.038 A 
ATOM     31  C   UNL     1      15.146 -11.781  24.745  0.00  0.00    +0.123 A 
ENDBRANCH   9  17
BRANCH  13  20
ATOM      3  O   UNL     1      19.542  -8.215  25.268  0.00  0.00    -0.249 OA
ATOM     20  C   UNL     1      18.948  -7.565  24.419  0.00  0.00    +0.325 C 
BRANCH  20   2
ATOM      2  O   UNL     1      19.493  -7.002  23.304  0.00  0.00    -0.467 OA
ATOM     32  C   UNL     1      20.802  -7.464  22.957  0.00  0.00    +0.280 C 
ENDBRANCH  20   2
ENDBRANCH  13  20
BRANCH  11   6
ATOM      6  N   UNL     1      16.365  -6.870  30.092  0.00  0.00    -0.309 NA
ATOM     38  H   UNL     1      15.650  -7.589  30.209  0.00  0.00    +0.123 HD
BRANCH   6  21
ATOM     21  C   UNL     1      15.727  -5.563  30.138  0.00  0.00    +0.118 C 
BRANCH  21  27
ATOM      7  N   UNL     1      12.787  -4.851  32.414  0.00  0.00    -0.263 NA
ATOM     27  C   UNL     1      14.351  -5.633  30.743  0.00  0.00    -0.015 A 
ATOM     33  C   UNL     1      13.387  -6.499  30.237  0.00  0.00    +0.008 A 
ATOM     34  C   UNL     1      14.003  -4.837  31.823  0.00  0.00    +0.115 A 
ATOM     35  C   UNL     1      12.124  -6.542  30.818  0.00  0.00    +0.020 A 
ATOM     36  C   UNL     1      11.877  -5.706  31.895  0.00  0.00    +0.111 A 
ENDBRANCH  21  27
ENDBRANCH   6  21
ENDBRANCH  11   6
TORSDOF 6
ENDMDL
MODEL 4
REMARK VINA RESULT:      -7.1     28.754     32.682
REMARK  Name = 28991375
REMARK  7 active torsions:
REMARK  status: ('A' for Active; 'I' for Inactive)
REMARK    1  A    between atoms: O_2  and  C_20
REMARK    2  A    between atoms: O_2  and  C_32
REMARK    3  A    between atoms: N_6  and  C_11
REMARK    4  A    between atoms: N_6  and  C_21
REMARK    5  A    between atoms: C_9  and  C_17
REMARK    6  A    between atoms: C_13  and  C_20
REMARK    7  A    between atoms: C_21  and  C_27
REMARK                            x       y       z     vdW  Elec       q    Type
REMARK                         _______ _______ _______ _____ _____    ______ ____
ROOT
ATOM      4  N   UNL     1      -9.797  -9.605  17.320  0.00  0.00    -0.274 NA
ATOM      5  N   UNL     1      -7.270 -11.709  19.136  0.00  0.00    -0.356 N 
ATOM      8  C   UNL     1      -9.457 -10.778  18.183  0.00  0.00    +0.106 C 
ATOM      9  C   UNL     1     -11.264  -9.416  17.193  0.00  0.00    +0.090 C 
ATOM     10  C   UNL     1     -10.066 -10.617  19.584  0.00  0.00    +0.044 C 
ATOM     11  C   UNL     1     -11.585 -10.469  19.492  0.00  0.00    +0.058 C 
ATOM     12  C   UNL     1     -11.932  -9.290  18.585  0.00  0.00    +0.042 C 
ATOM     13  C   UNL     1      -9.053  -9.599  16.031  0.00  0.00    +0.172 C 
ATOM     14  C   UNL     1      -7.967 -10.943  18.244  0.00  0.00    +0.038 A 
ATOM     15  C   UNL     1      -7.518  -9.530  16.230  0.00  0.00    +0.068 C 
ATOM     16  C   UNL     1      -7.069 -10.398  17.353  0.00  0.00    -0.016 A 
ATOM     18  C   UNL     1      -5.767 -10.818  17.736  0.00  0.00    +0.003 A 
ATOM     19  C   UNL     1      -5.921 -11.638  18.859  0.00  0.00    +0.047 A 
ATOM     24  C   UNL     1      -4.468 -10.586  17.240  0.00  0.00    +0.010 A 
ATOM     25  C   UNL     1      -4.837 -12.237  19.509  0.00  0.00    +0.026 A 
ATOM     26  C   UNL     1      -3.375 -11.178  17.883  0.00  0.00    +0.001 A 
ATOM     30  C   UNL     1      -3.559 -11.991  19.000  0.00  0.00    +0.002 A 
ATOM     37  H   UNL     1      -7.674 -12.247  19.891  0.00  0.00    +0.166 HD
ENDROOT
BRANCH   9  17
ATOM      1  F   UNL     1     -12.759  -4.884  14.159  0.00  0.00    -0.205 F 
ATOM     17  C   UNL     1     -11.667  -8.193  16.375  0.00  0.00    -0.030 A 
ATOM     22  C   UNL     1     -11.100  -6.949  16.654  0.00  0.00    +0.008 A 
ATOM     23  C   UNL     1     -12.602  -8.319  15.347  0.00  0.00    +0.008 A 
ATOM     28  C   UNL     1     -11.470  -5.831  15.905  0.00  0.00    +0.038 A 
ATOM     29  C   UNL     1     -12.971  -7.201  14.599  0.00  0.00    +0.038 A 
ATOM     31  C   UNL     1     -12.405  -5.957  14.878  0.00  0.00    +0.123 A 
ENDBRANCH   9  17
BRANCH  13  20
ATOM      3  O   UNL     1     -10.584 -11.165  15.021  0.00  0.00    -0.249 OA
ATOM     20  C   UNL     1      -9.432 -10.793  15.199  0.00  0.00    +0.325 C 
BRANCH  20   2
ATOM      2  O   UNL     1      -8.307 -11.371  14.692  0.00  0.00    -0.467 OA
ATOM     32  C   UNL     1      -8.286 -12.802  14.714  0.00  0.00    +0.280 C 
ENDBRANCH  20   2
ENDBRANCH  13  20
BRANCH  11   6
ATOM      6  N   UNL     1     -12.154 -10.284  20.827  0.00  0.00    -0.309 NA
ATOM     38  H   UNL     1     -11.438 -10.482  21.527  0.00  0.00    +0.123 HD
BRANCH   6  21
ATOM     21  C   UNL     1     -13.278 -11.184  21.038  0.00  0.00    +0.118 C 
BRANCH  21  27
ATOM      7  N   UNL     1     -16.854 -10.427  22.019  0.00  0.00    -0.263 NA
ATOM     27  C   UNL     1     -14.567 -10.432  21.235  0.00  0.00    -0.015 A 
ATOM     33  C   UNL     1     -14.691  -9.104  20.842  0.00  0.00    +0.008 A 
ATOM     34  C   UNL     1     -15.669 -11.042  21.814  0.00  0.00    +0.115 A 
ATOM     35  C   UNL     1     -15.895  -8.436  21.037  0.00  0.00    +0.020 A 
ATOM     36  C   UNL     1     -16.937  -9.136  21.624  0.00  0.00    +0.111 A 
ENDBRANCH  21  27
ENDBRANCH   6  21
ENDBRANCH  11   6
TORSDOF 6
ENDMDL
MODEL 5
REMARK VINA RESULT:      -7.0     13.312     17.249
REMARK  Name = 28991375
REMARK  7 active torsions:
REMARK  status: ('A' for Active; 'I' for Inactive)
REMARK    1  A    between atoms: O_2  and  C_20
REMARK    2  A    between atoms: O_2  and  C_32
REMARK    3  A    between atoms: N_6  and  C_11
REMARK    4  A    between atoms: N_6  and  C_21
REMARK    5  A    between atoms: C_9  and  C_17
REMARK    6  A    between atoms: C_13  and  C_20
REMARK    7  A    between atoms: C_21  and  C_27
REMARK                            x       y       z     vdW  Elec       q    Type
REMARK                         _______ _______ _______ _____ _____    ______ ____
ROOT
ATOM      4  N   UNL     1      20.550  -3.209  25.003  0.00  0.00    -0.274 NA
ATOM      5  N   UNL     1      24.155  -4.023  25.673  0.00  0.00    -0.356 N 
ATOM      8  C   UNL     1      21.797  -3.034  25.809  0.00  0.00    +0.106 C 
ATOM      9  C   UNL     1      19.486  -2.259  25.414  0.00  0.00    +0.090 C 
ATOM     10  C   UNL     1      22.329  -1.599  25.685  0.00  0.00    +0.044 C 
ATOM     11  C   UNL     1      21.273  -0.595  26.148  0.00  0.00    +0.058 C 
ATOM     12  C   UNL     1      19.988  -0.796  25.344  0.00  0.00    +0.042 C 
ATOM     13  C   UNL     1      20.115  -4.629  24.907  0.00  0.00    +0.172 C 
ATOM     14  C   UNL     1      22.820  -4.043  25.379  0.00  0.00    +0.038 A 
ATOM     15  C   UNL     1      21.175  -5.530  24.223  0.00  0.00    +0.068 C 
ATOM     16  C   UNL     1      22.554  -5.195  24.672  0.00  0.00    -0.016 A 
ATOM     18  C   UNL     1      23.780  -5.891  24.496  0.00  0.00    +0.003 A 
ATOM     19  C   UNL     1      24.770  -5.133  25.132  0.00  0.00    +0.047 A 
ATOM     24  C   UNL     1      24.152  -7.093  23.861  0.00  0.00    +0.010 A 
ATOM     25  C   UNL     1      26.113  -5.521  25.163  0.00  0.00    +0.026 A 
ATOM     26  C   UNL     1      25.494  -7.491  23.884  0.00  0.00    +0.001 A 
ATOM     30  C   UNL     1      26.458  -6.716  24.525  0.00  0.00    +0.002 A 
ATOM     37  H   UNL     1      24.629  -3.305  26.203  0.00  0.00    +0.166 HD
ENDROOT
BRANCH   9  17
ATOM      1  F   UNL     1      14.764  -2.596  22.319  0.00  0.00    -0.205 F 
ATOM     17  C   UNL     1      18.211  -2.349  24.578  0.00  0.00    -0.030 A 
ATOM     22  C   UNL     1      18.247  -2.048  23.216  0.00  0.00    +0.008 A 
ATOM     23  C   UNL     1      17.012  -2.735  25.176  0.00  0.00    +0.008 A 
ATOM     28  C   UNL     1      17.082  -2.131  22.453  0.00  0.00    +0.038 A 
ATOM     29  C   UNL     1      15.847  -2.817  24.413  0.00  0.00    +0.038 A 
ATOM     31  C   UNL     1      15.882  -2.515  23.051  0.00  0.00    +0.123 A 
ENDBRANCH   9  17
BRANCH  13  20
ATOM      3  O   UNL     1      20.497  -5.119  27.237  0.00  0.00    -0.249 OA
ATOM     20  C   UNL     1      19.755  -5.162  26.266  0.00  0.00    +0.325 C 
BRANCH  20   2
ATOM      2  O   UNL     1      18.496  -5.683  26.232  0.00  0.00    -0.467 OA
ATOM     32  C   UNL     1      17.755  -5.585  27.453  0.00  0.00    +0.280 C 
ENDBRANCH  20   2
ENDBRANCH  13  20
BRANCH  11   6
ATOM      6  N   UNL     1      21.775   0.770  25.996  0.00  0.00    -0.309 NA
ATOM     38  H   UNL     1      21.203   1.263  25.309  0.00  0.00    +0.123 HD
BRANCH   6  21
ATOM     21  C   UNL     1      23.156   0.763  25.539  0.00  0.00    +0.118 C 
BRANCH  21  27
ATOM      7  N   UNL     1      22.651   3.147  22.643  0.00  0.00    -0.263 NA
ATOM     27  C   UNL     1      23.301   1.400  24.183  0.00  0.00    -0.015 A 
ATOM     33  C   UNL     1      24.170   0.876  23.233  0.00  0.00    +0.008 A 
ATOM     34  C   UNL     1      22.570   2.528  23.841  0.00  0.00    +0.115 A 
ATOM     35  C   UNL     1      24.282   1.486  21.988  0.00  0.00    +0.020 A 
ATOM     36  C   UNL     1      23.507   2.609  21.745  0.00  0.00    +0.111 A 
ENDBRANCH  21  27
ENDBRANCH   6  21
ENDBRANCH  11   6
TORSDOF 6
ENDMDL
MODEL 6
REMARK VINA RESULT:      -6.9     29.276     32.043
REMARK  Name = 28991375
REMARK  7 active torsions:
REMARK  status: ('A' for Active; 'I' for Inactive)
REMARK    1  A    between atoms: O_2  and  C_20
REMARK    2  A    between atoms: O_2  and  C_32
REMARK    3  A    between atoms: N_6  and  C_11
REMARK    4  A    between atoms: N_6  and  C_21
REMARK    5  A    between atoms: C_9  and  C_17
REMARK    6  A    between atoms: C_13  and  C_20
REMARK    7  A    between atoms: C_21  and  C_27
REMARK                            x       y       z     vdW  Elec       q    Type
REMARK                         _______ _______ _______ _____ _____    ______ ____
ROOT
ATOM      4  N   UNL     1      -9.779 -10.474  18.386  0.00  0.00    -0.274 NA
ATOM      5  N   UNL     1     -13.415  -9.739  18.980  0.00  0.00    -0.356 N 
ATOM      8  C   UNL     1     -11.114 -10.017  17.891  0.00  0.00    +0.106 C 
ATOM      9  C   UNL     1      -8.716 -10.286  17.368  0.00  0.00    +0.090 C 
ATOM     10  C   UNL     1     -11.065  -8.537  17.482  0.00  0.00    +0.044 C 
ATOM     11  C   UNL     1     -10.011  -8.317  16.397  0.00  0.00    +0.058 C 
ATOM     12  C   UNL     1      -8.654  -8.814  16.892  0.00  0.00    +0.042 C 
ATOM     13  C   UNL     1      -9.822 -11.829  19.001  0.00  0.00    +0.172 C 
ATOM     14  C   UNL     1     -12.154 -10.266  18.943  0.00  0.00    +0.038 A 
ATOM     15  C   UNL     1     -10.761 -11.893  20.233  0.00  0.00    +0.068 C 
ATOM     16  C   UNL     1     -12.019 -11.131  20.007  0.00  0.00    -0.016 A 
ATOM     18  C   UNL     1     -13.232 -11.105  20.745  0.00  0.00    +0.003 A 
ATOM     19  C   UNL     1     -14.091 -10.223  20.081  0.00  0.00    +0.047 A 
ATOM     24  C   UNL     1     -13.692 -11.747  21.913  0.00  0.00    +0.010 A 
ATOM     25  C   UNL     1     -15.388  -9.952  20.530  0.00  0.00    +0.026 A 
ATOM     26  C   UNL     1     -14.987 -11.482  22.374  0.00  0.00    +0.001 A 
ATOM     30  C   UNL     1     -15.821 -10.599  21.691  0.00  0.00    +0.002 A 
ATOM     37  H   UNL     1     -13.801  -9.090  18.309  0.00  0.00    +0.166 HD
ENDROOT
BRANCH   9  17
ATOM      1  F   UNL     1      -3.542 -11.734  19.135  0.00  0.00    -0.205 F 
ATOM     17  C   UNL     1      -7.319 -10.677  17.845  0.00  0.00    -0.030 A 
ATOM     22  C   UNL     1      -6.918 -10.377  19.147  0.00  0.00    +0.008 A 
ATOM     23  C   UNL     1      -6.445 -11.334  16.979  0.00  0.00    +0.008 A 
ATOM     28  C   UNL     1      -5.641 -10.734  19.583  0.00  0.00    +0.038 A 
ATOM     29  C   UNL     1      -5.169 -11.691  17.415  0.00  0.00    +0.038 A 
ATOM     31  C   UNL     1      -4.767 -11.390  18.716  0.00  0.00    +0.123 A 
ENDBRANCH   9  17
BRANCH  13  20
ATOM      3  O   UNL     1     -11.333 -12.966  17.505  0.00  0.00    -0.249 OA
ATOM     20  C   UNL     1     -10.210 -12.859  17.978  0.00  0.00    +0.325 C 
BRANCH  20   2
ATOM      2  O   UNL     1      -9.128 -13.631  17.675  0.00  0.00    -0.467 OA
ATOM     32  C   UNL     1      -9.020 -14.856  18.407  0.00  0.00    +0.280 C 
ENDBRANCH  20   2
ENDBRANCH  13  20
BRANCH  11   6
ATOM      6  N   UNL     1      -9.948  -6.901  16.037  0.00  0.00    -0.309 NA
ATOM     38  H   UNL     1      -9.126  -6.481  16.470  0.00  0.00    +0.123 HD
BRANCH   6  21
ATOM     21  C   UNL     1     -11.135  -6.198  16.499  0.00  0.00    +0.118 C 
BRANCH  21  27
ATOM      7  N   UNL     1     -12.688  -5.272  13.174  0.00  0.00    -0.263 NA
ATOM     27  C   UNL     1     -12.155  -6.041  15.404  0.00  0.00    -0.015 A 
ATOM     33  C   UNL     1     -13.462  -6.485  15.570  0.00  0.00    +0.008 A 
ATOM     34  C   UNL     1     -11.822  -5.446  14.197  0.00  0.00    +0.115 A 
ATOM     35  C   UNL     1     -14.383  -6.324  14.541  0.00  0.00    +0.020 A 
ATOM     36  C   UNL     1     -13.950  -5.717  13.373  0.00  0.00    +0.111 A 
ENDBRANCH  21  27
ENDBRANCH   6  21
ENDBRANCH  11   6
TORSDOF 6
ENDMDL
MODEL 7
REMARK VINA RESULT:      -6.9     28.322     31.314
REMARK  Name = 28991375
REMARK  7 active torsions:
REMARK  status: ('A' for Active; 'I' for Inactive)
REMARK    1  A    between atoms: O_2  and  C_20
REMARK    2  A    between atoms: O_2  and  C_32
REMARK    3  A    between atoms: N_6  and  C_11
REMARK    4  A    between atoms: N_6  and  C_21
REMARK    5  A    between atoms: C_9  and  C_17
REMARK    6  A    between atoms: C_13  and  C_20
REMARK    7  A    between atoms: C_21  and  C_27
REMARK                            x       y       z     vdW  Elec       q    Type
REMARK                         _______ _______ _______ _____ _____    ______ ____
ROOT
ATOM      4  N   UNL     1      -7.243 -11.632  17.214  0.00  0.00    -0.274 NA
ATOM      5  N   UNL     1      -4.550 -10.249  14.990  0.00  0.00    -0.356 N 
ATOM      8  C   UNL     1      -6.416 -10.485  16.728  0.00  0.00    +0.106 C 
ATOM      9  C   UNL     1      -8.320 -11.189  18.134  0.00  0.00    +0.090 C 
ATOM     10  C   UNL     1      -7.293  -9.447  16.012  0.00  0.00    +0.044 C 
ATOM     11  C   UNL     1      -8.385  -8.933  16.949  0.00  0.00    +0.058 C 
ATOM     12  C   UNL     1      -9.210 -10.109  17.470  0.00  0.00    +0.042 C 
ATOM     13  C   UNL     1      -6.421 -12.767  17.716  0.00  0.00    +0.172 C 
ATOM     14  C   UNL     1      -5.322 -10.995  15.836  0.00  0.00    +0.038 A 
ATOM     15  C   UNL     1      -5.497 -13.362  16.623  0.00  0.00    +0.068 C 
ATOM     16  C   UNL     1      -4.877 -12.297  15.788  0.00  0.00    -0.016 A 
ATOM     18  C   UNL     1      -3.813 -12.359  14.848  0.00  0.00    +0.003 A 
ATOM     19  C   UNL     1      -3.629 -11.060  14.361  0.00  0.00    +0.047 A 
ATOM     24  C   UNL     1      -2.982 -13.388  14.361  0.00  0.00    +0.010 A 
ATOM     25  C   UNL     1      -2.653 -10.743  13.410  0.00  0.00    +0.026 A 
ATOM     26  C   UNL     1      -2.003 -13.084  13.408  0.00  0.00    +0.001 A 
ATOM     30  C   UNL     1      -1.843 -11.781  12.941  0.00  0.00    +0.002 A 
ATOM     37  H   UNL     1      -4.635  -9.253  14.839  0.00  0.00    +0.166 HD
ENDROOT
BRANCH   9  17
ATOM      1  F   UNL     1     -11.713 -15.356  19.897  0.00  0.00    -0.205 F 
ATOM     17  C   UNL     1      -9.236 -12.314  18.609  0.00  0.00    -0.030 A 
ATOM     22  C   UNL     1      -9.976 -13.050  17.683  0.00  0.00    +0.008 A 
ATOM     23  C   UNL     1      -9.333 -12.606  19.970  0.00  0.00    +0.008 A 
ATOM     28  C   UNL     1     -10.813 -14.078  18.118  0.00  0.00    +0.038 A 
ATOM     29  C   UNL     1     -10.170 -13.633  20.405  0.00  0.00    +0.038 A 
ATOM     31  C   UNL     1     -10.910 -14.369  19.479  0.00  0.00    +0.123 A 
ENDBRANCH   9  17
BRANCH  13  20
ATOM      3  O   UNL     1      -6.045 -11.600  19.792  0.00  0.00    -0.249 OA
ATOM     20  C   UNL     1      -5.625 -12.348  18.920  0.00  0.00    +0.325 C 
BRANCH  20   2
ATOM      2  O   UNL     1      -4.393 -12.930  18.878  0.00  0.00    -0.467 OA
ATOM     32  C   UNL     1      -3.312 -12.117  19.345  0.00  0.00    +0.280 C 
ENDBRANCH  20   2
ENDBRANCH  13  20
BRANCH  11   6
ATOM      6  N   UNL     1      -9.235  -7.970  16.250  0.00  0.00    -0.309 NA
ATOM     38  H   UNL     1      -8.681  -7.149  16.003  0.00  0.00    +0.123 HD
BRANCH   6  21
ATOM     21  C   UNL     1     -10.342  -7.550  17.096  0.00  0.00    +0.118 C 
BRANCH  21  27
ATOM      7  N   UNL     1     -13.805  -7.671  15.571  0.00  0.00    -0.263 NA
ATOM     27  C   UNL     1     -11.551  -7.165  16.286  0.00  0.00    -0.015 A 
ATOM     33  C   UNL     1     -11.562  -6.003  15.522  0.00  0.00    +0.008 A 
ATOM     34  C   UNL     1     -12.688  -7.957  16.276  0.00  0.00    +0.115 A 
ATOM     35  C   UNL     1     -12.693  -5.674  14.782  0.00  0.00    +0.020 A 
ATOM     36  C   UNL     1     -13.778  -6.533  14.840  0.00  0.00    +0.111 A 
ENDBRANCH  21  27
ENDBRANCH   6  21
ENDBRANCH  11   6
TORSDOF 6
ENDMDL
MODEL 8
REMARK VINA RESULT:      -6.8     13.982     17.553
REMARK  Name = 28991375
REMARK  7 active torsions:
REMARK  status: ('A' for Active; 'I' for Inactive)
REMARK    1  A    between atoms: O_2  and  C_20
REMARK    2  A    between atoms: O_2  and  C_32
REMARK    3  A    between atoms: N_6  and  C_11
REMARK    4  A    between atoms: N_6  and  C_21
REMARK    5  A    between atoms: C_9  and  C_17
REMARK    6  A    between atoms: C_13  and  C_20
REMARK    7  A    between atoms: C_21  and  C_27
REMARK                            x       y       z     vdW  Elec       q    Type
REMARK                         _______ _______ _______ _____ _____    ______ ____
ROOT
ATOM      4  N   UNL     1      13.504   7.605   4.764  0.00  0.00    -0.274 NA
ATOM      5  N   UNL     1      16.962   7.704   3.300  0.00  0.00    -0.356 N 
ATOM      8  C   UNL     1      14.418   7.666   3.581  0.00  0.00    +0.106 C 
ATOM      9  C   UNL     1      12.086   7.438   4.361  0.00  0.00    +0.090 C 
ATOM     10  C   UNL     1      14.284   6.398   2.725  0.00  0.00    +0.044 C 
ATOM     11  C   UNL     1      12.841   6.222   2.252  0.00  0.00    +0.058 C 
ATOM     12  C   UNL     1      11.906   6.192   3.460  0.00  0.00    +0.042 C 
ATOM     13  C   UNL     1      13.751   8.699   5.743  0.00  0.00    +0.172 C 
ATOM     14  C   UNL     1      15.829   7.875   4.045  0.00  0.00    +0.038 A 
ATOM     15  C   UNL     1      15.185   8.659   6.330  0.00  0.00    +0.068 C 
ATOM     16  C   UNL     1      16.198   8.344   5.286  0.00  0.00    -0.016 A 
ATOM     18  C   UNL     1      17.616   8.431   5.315  0.00  0.00    +0.003 A 
ATOM     19  C   UNL     1      18.071   8.022   4.057  0.00  0.00    +0.047 A 
ATOM     24  C   UNL     1      18.563   8.819   6.284  0.00  0.00    +0.010 A 
ATOM     25  C   UNL     1      19.429   7.983   3.722  0.00  0.00    +0.026 A 
ATOM     26  C   UNL     1      19.924   8.783   5.962  0.00  0.00    +0.001 A 
ATOM     30  C   UNL     1      20.349   8.371   4.700  0.00  0.00    +0.002 A 
ATOM     37  H   UNL     1      16.994   7.390   2.340  0.00  0.00    +0.166 HD
ENDROOT
BRANCH   9  17
ATOM      1  F   UNL     1       8.494   6.941   8.702  0.00  0.00    -0.205 F 
ATOM     17  C   UNL     1      11.116   7.304   5.533  0.00  0.00    -0.030 A 
ATOM     22  C   UNL     1       9.980   8.111   5.594  0.00  0.00    +0.008 A 
ATOM     23  C   UNL     1      11.366   6.374   6.542  0.00  0.00    +0.008 A 
ATOM     28  C   UNL     1       9.094   7.989   6.665  0.00  0.00    +0.038 A 
ATOM     29  C   UNL     1      10.481   6.252   7.613  0.00  0.00    +0.038 A 
ATOM     31  C   UNL     1       9.345   7.059   7.674  0.00  0.00    +0.123 A 
ENDBRANCH   9  17
BRANCH  13  20
ATOM      3  O   UNL     1      14.103  10.514   4.196  0.00  0.00    -0.249 OA
ATOM     20  C   UNL     1      13.462  10.036   5.122  0.00  0.00    +0.325 C 
BRANCH  20   2
ATOM      2  O   UNL     1      12.394  10.609   5.746  0.00  0.00    -0.467 OA
ATOM     32  C   UNL     1      11.576  11.446   4.924  0.00  0.00    +0.280 C 
ENDBRANCH  20   2
ENDBRANCH  13  20
BRANCH  11   6
ATOM      6  N   UNL     1      12.716   4.996   1.465  0.00  0.00    -0.309 NA
ATOM     38  H   UNL     1      13.295   4.268   1.883  0.00  0.00    +0.123 HD
BRANCH   6  21
ATOM     21  C   UNL     1      13.154   5.216   0.095  0.00  0.00    +0.118 C 
BRANCH  21  27
ATOM      7  N   UNL     1      10.282   3.701  -1.851  0.00  0.00    -0.263 NA
ATOM     27  C   UNL     1      12.398   4.353  -0.880  0.00  0.00    -0.015 A 
ATOM     33  C   UNL     1      13.060   3.436  -1.690  0.00  0.00    +0.008 A 
ATOM     34  C   UNL     1      11.020   4.445  -0.998  0.00  0.00    +0.115 A 
ATOM     35  C   UNL     1      12.335   2.652  -2.580  0.00  0.00    +0.020 A 
ATOM     36  C   UNL     1      10.960   2.820  -2.621  0.00  0.00    +0.111 A 
ENDBRANCH  21  27
ENDBRANCH   6  21
ENDBRANCH  11   6
TORSDOF 6
ENDMDL
MODEL 9
REMARK VINA RESULT:      -6.7     27.921     31.792
REMARK  Name = 28991375
REMARK  7 active torsions:
REMARK  status: ('A' for Active; 'I' for Inactive)
REMARK    1  A    between atoms: O_2  and  C_20
REMARK    2  A    between atoms: O_2  and  C_32
REMARK    3  A    between atoms: N_6  and  C_11
REMARK    4  A    between atoms: N_6  and  C_21
REMARK    5  A    between atoms: C_9  and  C_17
REMARK    6  A    between atoms: C_13  and  C_20
REMARK    7  A    between atoms: C_21  and  C_27
REMARK                            x       y       z     vdW  Elec       q    Type
REMARK                         _______ _______ _______ _____ _____    ______ ____
ROOT
ATOM      4  N   UNL     1      -6.336 -10.177   8.066  0.00  0.00    -0.274 NA
ATOM      5  N   UNL     1      -3.695 -12.693   7.168  0.00  0.00    -0.356 N 
ATOM      8  C   UNL     1      -5.491 -11.360   8.415  0.00  0.00    +0.106 C 
ATOM      9  C   UNL     1      -7.116  -9.689   9.230  0.00  0.00    +0.090 C 
ATOM     10  C   UNL     1      -4.526 -11.021   9.560  0.00  0.00    +0.044 C 
ATOM     11  C   UNL     1      -5.302 -10.561  10.795  0.00  0.00    +0.058 C 
ATOM     12  C   UNL     1      -6.189  -9.372  10.429  0.00  0.00    +0.042 C 
ATOM     13  C   UNL     1      -7.129 -10.378   6.823  0.00  0.00    +0.172 C 
ATOM     14  C   UNL     1      -4.757 -11.833   7.195  0.00  0.00    +0.038 A 
ATOM     15  C   UNL     1      -6.236 -10.625   5.580  0.00  0.00    +0.068 C 
ATOM     16  C   UNL     1      -5.092 -11.524   5.895  0.00  0.00    -0.016 A 
ATOM     18  C   UNL     1      -4.177 -12.193   5.039  0.00  0.00    +0.003 A 
ATOM     19  C   UNL     1      -3.309 -12.918   5.863  0.00  0.00    +0.047 A 
ATOM     24  C   UNL     1      -3.997 -12.259   3.642  0.00  0.00    +0.010 A 
ATOM     25  C   UNL     1      -2.270 -13.706   5.356  0.00  0.00    +0.026 A 
ATOM     26  C   UNL     1      -2.960 -13.042   3.123  0.00  0.00    +0.001 A 
ATOM     30  C   UNL     1      -2.111 -13.755   3.968  0.00  0.00    +0.002 A 
ATOM     37  H   UNL     1      -3.250 -13.104   7.977  0.00  0.00    +0.166 HD
ENDROOT
BRANCH   9  17
ATOM      1  F   UNL     1     -10.195  -5.064   8.177  0.00  0.00    -0.205 F 
ATOM     17  C   UNL     1      -7.947  -8.441   8.946  0.00  0.00    -0.030 A 
ATOM     22  C   UNL     1      -9.294  -8.402   9.308  0.00  0.00    +0.008 A 
ATOM     23  C   UNL     1      -7.360  -7.339   8.325  0.00  0.00    +0.008 A 
ATOM     28  C   UNL     1     -10.054  -7.262   9.048  0.00  0.00    +0.038 A 
ATOM     29  C   UNL     1      -8.120  -6.198   8.065  0.00  0.00    +0.038 A 
ATOM     31  C   UNL     1      -9.467  -6.160   8.426  0.00  0.00    +0.123 A 
ENDBRANCH   9  17
BRANCH  13  20
ATOM      3  O   UNL     1      -7.810 -12.680   7.045  0.00  0.00    -0.249 OA
ATOM     20  C   UNL     1      -8.117 -11.497   7.004  0.00  0.00    +0.325 C 
BRANCH  20   2
ATOM      2  O   UNL     1      -9.374 -10.982   7.113  0.00  0.00    -0.467 OA
ATOM     32  C   UNL     1      -9.799 -10.158   6.023  0.00  0.00    +0.280 C 
ENDBRANCH  20   2
ENDBRANCH  13  20
BRANCH  11   6
ATOM      6  N   UNL     1      -4.375 -10.209  11.869  0.00  0.00    -0.309 NA
ATOM     38  H   UNL     1      -3.501 -10.721  11.741  0.00  0.00    +0.123 HD
BRANCH   6  21
ATOM     21  C   UNL     1      -4.935 -10.554  13.167  0.00  0.00    +0.118 C 
BRANCH  21  27
ATOM      7  N   UNL     1      -1.533 -10.551  14.827  0.00  0.00    -0.263 NA
ATOM     27  C   UNL     1      -3.877 -10.610  14.236  0.00  0.00    -0.015 A 
ATOM     33  C   UNL     1      -4.218 -10.766  15.576  0.00  0.00    +0.008 A 
ATOM     34  C   UNL     1      -2.532 -10.508  13.918  0.00  0.00    +0.115 A 
ATOM     35  C   UNL     1      -3.218 -10.815  16.541  0.00  0.00    +0.020 A 
ATOM     36  C   UNL     1      -1.903 -10.705  16.119  0.00  0.00    +0.111 A 
ENDBRANCH  21  27
ENDBRANCH   6  21
ENDBRANCH  11   6
TORSDOF 6
ENDMDL
MODEL 10
REMARK VINA RESULT:      -6.7     30.215     31.575
REMARK  Name = 28991375
REMARK  7 active torsions:
REMARK  status: ('A' for Active; 'I' for Inactive)
REMARK    1  A    between atoms: O_2  and  C_20
REMARK    2  A    between atoms: O_2  and  C_32
REMARK    3  A    between atoms: N_6  and  C_11
REMARK    4  A    between atoms: N_6  and  C_21
REMARK    5  A    between atoms: C_9  and  C_17
REMARK    6  A    between atoms: C_13  and  C_20
REMARK    7  A    between atoms: C_21  and  C_27
REMARK                            x       y       z     vdW  Elec       q    Type
REMARK                         _______ _______ _______ _____ _____    ______ ____
ROOT
ATOM      4  N   UNL     1     -15.393   4.923  30.948  0.00  0.00    -0.274 NA
ATOM      5  N   UNL     1     -15.436   8.583  31.789  0.00  0.00    -0.356 N 
ATOM      8  C   UNL     1     -16.105   6.236  31.016  0.00  0.00    +0.106 C 
ATOM      9  C   UNL     1     -16.199   3.889  30.252  0.00  0.00    +0.090 C 
ATOM     10  C   UNL     1     -16.457   6.737  29.607  0.00  0.00    +0.044 C 
ATOM     11  C   UNL     1     -17.330   5.715  28.879  0.00  0.00    +0.058 C 
ATOM     12  C   UNL     1     -16.615   4.365  28.839  0.00  0.00    +0.042 C 
ATOM     13  C   UNL     1     -14.834   4.499  32.261  0.00  0.00    +0.172 C 
ATOM     14  C   UNL     1     -15.263   7.228  31.762  0.00  0.00    +0.038 A 
ATOM     15  C   UNL     1     -13.791   5.503  32.815  0.00  0.00    +0.068 C 
ATOM     16  C   UNL     1     -14.217   6.913  32.600  0.00  0.00    -0.016 A 
ATOM     18  C   UNL     1     -13.706   8.126  33.135  0.00  0.00    +0.003 A 
ATOM     19  C   UNL     1     -14.488   9.160  32.608  0.00  0.00    +0.047 A 
ATOM     24  C   UNL     1     -12.657   8.454  34.018  0.00  0.00    +0.010 A 
ATOM     25  C   UNL     1     -14.270  10.505  32.923  0.00  0.00    +0.026 A 
ATOM     26  C   UNL     1     -12.428   9.796  34.339  0.00  0.00    +0.001 A 
ATOM     30  C   UNL     1     -13.224  10.805  33.799  0.00  0.00    +0.002 A 
ATOM     37  H   UNL     1     -16.147   9.096  31.285  0.00  0.00    +0.166 HD
ENDROOT
BRANCH   9  17
ATOM      1  F   UNL     1     -13.580  -1.090  29.680  0.00  0.00    -0.205 F 
ATOM     17  C   UNL     1     -15.492   2.545  30.098  0.00  0.00    -0.030 A 
ATOM     22  C   UNL     1     -14.103   2.470  30.214  0.00  0.00    +0.008 A 
ATOM     23  C   UNL     1     -16.234   1.392  29.841  0.00  0.00    +0.008 A 
ATOM     28  C   UNL     1     -13.457   1.242  30.072  0.00  0.00    +0.038 A 
ATOM     29  C   UNL     1     -15.588   0.164  29.700  0.00  0.00    +0.038 A 
ATOM     31  C   UNL     1     -14.199   0.089  29.815  0.00  0.00    +0.123 A 
ENDBRANCH   9  17
BRANCH  13  20
ATOM      3  O   UNL     1     -16.549   5.167  33.818  0.00  0.00    -0.249 OA
ATOM     20  C   UNL     1     -15.938   4.270  33.255  0.00  0.00    +0.325 C 
BRANCH  20   2
ATOM      2  O   UNL     1     -16.138   2.931  33.414  0.00  0.00    -0.467 OA
ATOM     32  C   UNL     1     -14.957   2.155  33.643  0.00  0.00    +0.280 C 
ENDBRANCH  20   2
ENDBRANCH  13  20
BRANCH  11   6
ATOM      6  N   UNL     1     -17.634   6.185  27.528  0.00  0.00    -0.309 NA
ATOM     38  H   UNL     1     -18.434   6.818  27.564  0.00  0.00    +0.123 HD
BRANCH   6  21
ATOM     21  C   UNL     1     -17.959   5.068  26.655  0.00  0.00    +0.118 C 
BRANCH  21  27
ATOM      7  N   UNL     1     -16.319   6.021  23.379  0.00  0.00    -0.263 NA
ATOM     27  C   UNL     1     -17.056   5.017  25.451  0.00  0.00    -0.015 A 
ATOM     33  C   UNL     1     -16.153   3.974  25.275  0.00  0.00    +0.008 A 
ATOM     34  C   UNL     1     -17.099   6.007  24.483  0.00  0.00    +0.115 A 
ATOM     35  C   UNL     1     -15.333   3.953  24.152  0.00  0.00    +0.020 A 
ATOM     36  C   UNL     1     -15.453   4.991  23.242  0.00  0.00    +0.111 A 
ENDBRANCH  21  27
ENDBRANCH   6  21
ENDBRANCH  11   6
TORSDOF 6
ENDMDL
