REMARK  Name = 11883009
REMARK  13 active torsions:
REMARK  status: ('A' for Active; 'I' for Inactive)
REMARK    1  A    between atoms: O_2  and  C_15
REMARK    2  A    between atoms: O_3  and  C_20
REMARK    3  A    between atoms: N_8  and  C_26
REMARK    4  A    between atoms: C_10  and  C_18
REMARK    5  A    between atoms: C_12  and  C_20
REMARK    6  A    between atoms: C_12  and  C_21
REMARK    7  A    between atoms: C_13  and  C_23
REMARK    8  A    between atoms: C_23  and  C_24
REMARK    9  A    between atoms: C_26  and  C_29
REMARK   10  A    between atoms: C_27  and  C_28
REMARK   11  A    between atoms: C_28  and  C_30
REMARK   12  A    between atoms: C_28  and  C_31
REMARK   13  A    between atoms: C_28  and  C_32
REMARK                            x       y       z     vdW  Elec       q    Type
REMARK                         _______ _______ _______ _____ _____    ______ ____
ROOT
ATOM      1  S   UNL     1      -0.313   3.112   0.189  0.00  0.00    -0.057 S 
ATOM      5  O   UNL     1       3.656   0.744  -0.225  0.00  0.00    -0.275 OA
ATOM      7  N   UNL     1       0.719   0.756  -0.081  0.00  0.00    -0.229 NA
ATOM      9  N   UNL     1       2.255   2.610   0.020  0.00  0.00    -0.264 N 
ATOM     10  C   UNL     1      -2.823  -0.704   0.357  0.00  0.00    -0.019 C 
ATOM     11  C   UNL     1      -3.515   0.570  -0.302  0.00  0.00    +0.011 C 
ATOM     12  C   UNL     1      -5.092   0.611  -0.299  0.00  0.00    +0.021 C 
ATOM     13  C   UNL     1      -1.304  -0.750  -0.136  0.00  0.00    +0.054 C 
ATOM     14  C   UNL     1      -3.537  -1.990  -0.134  0.00  0.00    +0.010 C 
ATOM     15  C   UNL     1      -5.640  -0.766  -0.772  0.00  0.00    +0.123 C 
ATOM     16  C   UNL     1      -2.853   1.893   0.185  0.00  0.00    +0.049 C 
ATOM     17  C   UNL     1      -5.052  -1.943  -0.002  0.00  0.00    +0.032 C 
ATOM     18  C   UNL     1      -2.861  -0.675   1.905  0.00  0.00    +0.012 C 
ATOM     19  C   UNL     1      -0.654   0.604  -0.018  0.00  0.00    +0.058 A 
ATOM     21  C   UNL     1      -5.574   1.677  -1.324  0.00  0.00    +0.016 C 
ATOM     22  C   UNL     1      -1.368   1.778   0.107  0.00  0.00    +0.015 A 
ATOM     25  C   UNL     1       1.013   2.033   0.026  0.00  0.00    +0.165 A 
ATOM     27  C   UNL     1       3.497   1.957  -0.103  0.00  0.00    +0.224 C 
ATOM     39  H   UNL     1       2.245   3.621   0.116  0.00  0.00    +0.157 HD
ENDROOT
BRANCH  27  28
ATOM     28  C   UNL     1       4.714   2.916  -0.069  0.00  0.00    +0.039 C 
ATOM     30  C   UNL     1       4.728   3.679   1.268  0.00  0.00    +0.020 C 
ATOM     31  C   UNL     1       4.614   3.940  -1.211  0.00  0.00    +0.020 C 
ATOM     32  C   UNL     1       6.022   2.118  -0.185  0.00  0.00    +0.020 C 
ENDBRANCH  27  28
BRANCH  15   2
ATOM      2  O   UNL     1      -7.062  -0.806  -0.658  0.00  0.00    -0.391 OA
ATOM     36  H   UNL     1      -7.361  -1.663  -1.007  0.00  0.00    +0.210 HD
ENDBRANCH  15   2
BRANCH  12  20
ATOM     20  C   UNL     1      -5.720   1.019   1.052  0.00  0.00    +0.165 C 
BRANCH  20   3
ATOM      3  O   UNL     1      -7.121   1.020   0.893  0.00  0.00    -0.394 OA
ATOM     37  H   UNL     1      -7.509   1.287   1.744  0.00  0.00    +0.209 HD
ENDBRANCH  20   3
ENDBRANCH  12  20
BRANCH  13  23
ATOM     23  C   UNL     1      -0.452  -1.842   0.525  0.00  0.00    +0.106 C 
BRANCH  23  24
ATOM      4  O   UNL     1       0.911  -1.815  -1.474  0.00  0.00    -0.276 OA
ATOM      8  N   UNL     1       1.458  -3.253   0.268  0.00  0.00    -0.308 N 
ATOM     24  C   UNL     1       0.697  -2.276  -0.356  0.00  0.00    +0.214 C 
ATOM     38  H   UNL     1       1.206  -3.557   1.204  0.00  0.00    +0.149 HD
BRANCH   8  26
ATOM     26  C   UNL     1       2.620  -3.857  -0.342  0.00  0.00    +0.178 C 
BRANCH  26  29
ATOM      6  O   UNL     1       4.554  -2.530  -0.970  0.00  0.00    -0.466 OA
ATOM     29  C   UNL     1       3.847  -3.089   0.046  0.00  0.00    +0.122 A 
ATOM     33  C   UNL     1       4.440  -2.814   1.256  0.00  0.00    +0.046 A 
ATOM     34  C   UNL     1       5.586  -2.036   0.965  0.00  0.00    +0.041 A 
ATOM     35  C   UNL     1       5.611  -1.891  -0.403  0.00  0.00    +0.195 A 
ENDBRANCH  26  29
ENDBRANCH   8  26
ENDBRANCH  23  24
ENDBRANCH  13  23
TORSDOF 8
