REMARK  Name = 38030471
REMARK  12 active torsions:
REMARK  status: ('A' for Active; 'I' for Inactive)
REMARK    1  A    between atoms: N_2  and  C_14
REMARK    2  A    between atoms: N_2  and  C_20
REMARK    3  A    between atoms: C_7  and  C_11
REMARK    4  A    between atoms: C_8  and  C_14
REMARK    5  A    between atoms: C_10  and  C_15
REMARK    6  A    between atoms: C_11  and  C_16
REMARK    7  A    between atoms: C_11  and  C_17
REMARK    8  A    between atoms: C_12  and  C_18
REMARK    9  A    between atoms: C_15  and  C_19
REMARK   10  A    between atoms: C_20  and  C_21
REMARK   11  A    between atoms: C_22  and  C_25
REMARK   12  A    between atoms: C_28  and  C_32
REMARK                            x       y       z     vdW  Elec       q    Type
REMARK                         _______ _______ _______ _____ _____    ______ ____
ROOT
ATOM      7  C   UNL     1      -0.428   2.284  -1.033  0.00  0.00    +0.000 C 
ATOM      8  C   UNL     1       0.747   3.290  -0.941  0.00  0.00    +0.029 C 
ATOM      9  C   UNL     1      -1.514   2.632  -0.004  0.00  0.00    +0.012 C 
ATOM     10  C   UNL     1      -0.975   2.621   1.438  0.00  0.00    +0.024 C 
ATOM     12  C   UNL     1       0.334   3.375   1.556  0.00  0.00    -0.073 C 
ATOM     13  C   UNL     1       1.084   3.676   0.481  0.00  0.00    -0.023 C 
ATOM     18  C   UNL     1       0.741   3.814   2.935  0.00  0.00    +0.039 C 
ENDROOT
BRANCH   7  11
ATOM     11  C   UNL     1      -1.037   2.249  -2.439  0.00  0.00    -0.013 C 
ATOM     16  C   UNL     1      -2.014   3.406  -2.624  0.00  0.00    +0.007 C 
ATOM     17  C   UNL     1      -1.728   0.912  -2.686  0.00  0.00    +0.007 C 
ENDBRANCH   7  11
BRANCH   8  14
ATOM     14  C   UNL     1       2.001   2.742  -1.631  0.00  0.00    +0.089 C 
BRANCH  14   2
ATOM      2  N   UNL     1       2.487   1.557  -0.946  0.00  0.00    -0.311 NA
ATOM     34  H   UNL     1       2.711   1.780   0.022  0.00  0.00    +0.122 HD
BRANCH   2  20
ATOM     20  C   UNL     1       3.674   1.021  -1.603  0.00  0.00    +0.116 C 
BRANCH  20  21
ATOM     21  C   UNL     1       4.183  -0.218  -0.916  0.00  0.00    -0.034 A 
ATOM     23  C   UNL     1       4.888  -0.111   0.283  0.00  0.00    +0.006 A 
ATOM     24  C   UNL     1       3.950  -1.473  -1.478  0.00  0.00    +0.006 A 
ATOM     26  C   UNL     1       5.360  -1.259   0.920  0.00  0.00    +0.019 A 
ATOM     27  C   UNL     1       4.422  -2.621  -0.842  0.00  0.00    +0.019 A 
ATOM     28  C   UNL     1       5.127  -2.514   0.357  0.00  0.00    +0.052 A 
BRANCH  28  32
ATOM      6  N   UNL     1       6.003  -4.645   1.539  0.00  0.00    -0.191 NA
ATOM     32  C   UNL     1       5.610  -3.690   1.009  0.00  0.00    +0.099 C 
ENDBRANCH  28  32
ENDBRANCH  20  21
ENDBRANCH   2  20
ENDBRANCH  14   2
ENDBRANCH   8  14
BRANCH  10  15
ATOM     15  C   UNL     1      -0.833   1.189   1.964  0.00  0.00    +0.105 C 
BRANCH  15  19
ATOM      1  O   UNL     1      -2.264  -0.464   0.879  0.00  0.00    -0.420 OA
ATOM      3  N   UNL     1      -3.196   0.531   2.652  0.00  0.00    -0.112 NA
ATOM      4  N   UNL     1      -4.109  -0.372   2.140  0.00  0.00    -0.107 NA
ATOM     19  C   UNL     1      -2.135   0.444   1.885  0.00  0.00    +0.218 A 
ATOM     22  C   UNL     1      -3.522  -0.929   1.107  0.00  0.00    +0.250 A 
BRANCH  22  25
ATOM      5  N   UNL     1      -5.765  -3.430  -0.487  0.00  0.00    -0.263 NA
ATOM     25  C   UNL     1      -3.994  -1.934   0.198  0.00  0.00    +0.057 A 
ATOM     29  C   UNL     1      -3.196  -2.389  -0.845  0.00  0.00    +0.016 A 
ATOM     30  C   UNL     1      -5.260  -2.481   0.333  0.00  0.00    +0.124 A 
ATOM     31  C   UNL     1      -3.681  -3.364  -1.710  0.00  0.00    +0.020 A 
ATOM     33  C   UNL     1      -4.960  -3.847  -1.490  0.00  0.00    +0.111 A 
ENDBRANCH  22  25
ENDBRANCH  15  19
ENDBRANCH  10  15
TORSDOF 9
