MODEL 1
REMARK VINA RESULT:      -7.0      0.000      0.000
REMARK  Name = 28960863
REMARK  6 active torsions:
REMARK  status: ('A' for Active; 'I' for Inactive)
REMARK    1  A    between atoms: N_3  and  C_19
REMARK    2  A    between atoms: N_4  and  C_8
REMARK    3  A    between atoms: N_5  and  C_12
REMARK    4  A    between atoms: C_9  and  C_18
REMARK    5  A    between atoms: C_21  and  C_22
REMARK    6  A    between atoms: C_22  and  C_23
REMARK                            x       y       z     vdW  Elec       q    Type
REMARK                         _______ _______ _______ _____ _____    ______ ____
ROOT
ATOM      3  N   UNL     1      -5.633 -12.218  16.587  0.00  0.00    -0.293 NA
ATOM      8  C   UNL     1      -3.964 -10.684  16.042  0.00  0.00    +0.090 C 
ATOM      9  C   UNL     1      -5.984 -11.022  17.375  0.00  0.00    +0.147 C 
ATOM     10  C   UNL     1      -4.981  -9.946  16.913  0.00  0.00    +0.052 C 
ATOM     11  C   UNL     1      -4.183 -12.152  16.379  0.00  0.00    +0.107 C 
ATOM     19  C   UNL     1      -6.034 -13.466  17.226  0.00  0.00    +0.105 C 
ENDROOT
BRANCH   8   4
ATOM      2  O   UNL     1      -2.142 -11.241  13.890  0.00  0.00    -0.253 OA
ATOM      4  N   UNL     1      -4.182 -10.429  14.638  0.00  0.00    -0.295 N 
ATOM      5  N   UNL     1      -3.698 -10.386  12.393  0.00  0.00    -0.297 N 
ATOM     20  C   UNL     1      -3.239 -10.733  13.660  0.00  0.00    +0.300 C 
ATOM     29  H   UNL     1      -5.030  -9.944  14.359  0.00  0.00    +0.151 HD
ATOM     30  H   UNL     1      -4.589  -9.906  12.325  0.00  0.00    +0.151 HD
BRANCH   5  12
ATOM     12  C   UNL     1      -2.923 -10.590  11.189  0.00  0.00    +0.074 C 
ATOM     13  C   UNL     1      -3.546 -11.682  10.312  0.00  0.00    +0.022 C 
ATOM     14  C   UNL     1      -2.757  -9.280  10.411  0.00  0.00    +0.022 C 
ATOM     15  C   UNL     1      -4.843 -11.226   9.644  0.00  0.00    +0.002 C 
ATOM     16  C   UNL     1      -4.056  -8.829   9.744  0.00  0.00    +0.002 C 
ATOM     17  C   UNL     1      -4.650  -9.927   8.868  0.00  0.00    +0.000 C 
ENDBRANCH   5  12
ENDBRANCH   8   4
BRANCH   9  18
ATOM      1  O   UNL     1      -7.924 -10.632  15.942  0.00  0.00    -0.336 OA
ATOM      6  N   UNL     1      -8.274 -10.159  18.102  0.00  0.00    -0.194 NA
ATOM      7  N   UNL     1      -9.250 -10.187  16.033  0.00  0.00    -0.061 NA
ATOM     18  C   UNL     1      -7.424 -10.586  17.203  0.00  0.00    +0.245 A 
ATOM     21  C   UNL     1      -9.380  -9.928  17.337  0.00  0.00    +0.176 A 
BRANCH  21  22
ATOM     22  C   UNL     1     -10.635  -9.424  17.908  0.00  0.00    +0.114 C 
BRANCH  22  23
ATOM     23  C   UNL     1     -11.297  -8.305  17.109  0.00  0.00    -0.040 A 
ATOM     24  C   UNL     1     -10.619  -7.104  16.899  0.00  0.00    +0.004 A 
ATOM     25  C   UNL     1     -12.578  -8.484  16.589  0.00  0.00    +0.004 A 
ATOM     26  C   UNL     1     -11.225  -6.080  16.169  0.00  0.00    +0.000 A 
ATOM     27  C   UNL     1     -13.183  -7.461  15.859  0.00  0.00    +0.000 A 
ATOM     28  C   UNL     1     -12.507  -6.260  15.648  0.00  0.00    +0.000 A 
ENDBRANCH  22  23
ENDBRANCH  21  22
ENDBRANCH   9  18
TORSDOF 5
ENDMDL
MODEL 2
REMARK VINA RESULT:      -7.0     29.164     31.969
REMARK  Name = 28960863
REMARK  6 active torsions:
REMARK  status: ('A' for Active; 'I' for Inactive)
REMARK    1  A    between atoms: N_3  and  C_19
REMARK    2  A    between atoms: N_4  and  C_8
REMARK    3  A    between atoms: N_5  and  C_12
REMARK    4  A    between atoms: C_9  and  C_18
REMARK    5  A    between atoms: C_21  and  C_22
REMARK    6  A    between atoms: C_22  and  C_23
REMARK                            x       y       z     vdW  Elec       q    Type
REMARK                         _______ _______ _______ _____ _____    ______ ____
ROOT
ATOM      3  N   UNL     1      22.624   3.390  25.354  0.00  0.00    -0.293 NA
ATOM      8  C   UNL     1      22.802   1.073  25.538  0.00  0.00    +0.090 C 
ATOM      9  C   UNL     1      23.426   3.004  24.177  0.00  0.00    +0.147 C 
ATOM     10  C   UNL     1      23.426   1.462  24.198  0.00  0.00    +0.052 C 
ATOM     11  C   UNL     1      22.863   2.351  26.361  0.00  0.00    +0.107 C 
ATOM     19  C   UNL     1      22.947   4.720  25.857  0.00  0.00    +0.105 C 
ENDROOT
BRANCH   8   4
ATOM      2  O   UNL     1      21.880  -1.647  25.651  0.00  0.00    -0.253 OA
ATOM      4  N   UNL     1      21.443   0.614  25.379  0.00  0.00    -0.295 N 
ATOM      5  N   UNL     1      19.717  -0.898  25.261  0.00  0.00    -0.297 N 
ATOM     20  C   UNL     1      21.086  -0.730  25.449  0.00  0.00    +0.300 C 
ATOM     29  H   UNL     1      20.727   1.293  25.135  0.00  0.00    +0.151 HD
ATOM     30  H   UNL     1      19.165  -0.079  25.029  0.00  0.00    +0.151 HD
BRANCH   5  12
ATOM     12  C   UNL     1      19.070  -2.191  25.284  0.00  0.00    +0.074 C 
ATOM     13  C   UNL     1      17.709  -2.113  25.985  0.00  0.00    +0.022 C 
ATOM     14  C   UNL     1      18.934  -2.764  23.869  0.00  0.00    +0.022 C 
ATOM     15  C   UNL     1      16.662  -1.375  25.150  0.00  0.00    +0.002 C 
ATOM     16  C   UNL     1      17.885  -2.025  23.038  0.00  0.00    +0.002 C 
ATOM     17  C   UNL     1      16.538  -1.971  23.751  0.00  0.00    +0.000 C 
ENDBRANCH   5  12
ENDBRANCH   8   4
BRANCH   9  18
ATOM      1  O   UNL     1      23.824   4.030  21.995  0.00  0.00    -0.336 OA
ATOM      6  N   UNL     1      21.661   3.683  22.462  0.00  0.00    -0.194 NA
ATOM      7  N   UNL     1      23.106   4.496  20.885  0.00  0.00    -0.061 NA
ATOM     18  C   UNL     1      22.898   3.567  22.875  0.00  0.00    +0.245 A 
ATOM     21  C   UNL     1      21.839   4.257  21.237  0.00  0.00    +0.176 A 
BRANCH  21  22
ATOM     22  C   UNL     1      20.712   4.593  20.359  0.00  0.00    +0.114 C 
BRANCH  22  23
ATOM     23  C   UNL     1      19.915   5.823  20.785  0.00  0.00    -0.040 A 
ATOM     24  C   UNL     1      18.602   5.989  20.344  0.00  0.00    +0.004 A 
ATOM     25  C   UNL     1      20.500   6.779  21.614  0.00  0.00    +0.004 A 
ATOM     26  C   UNL     1      17.874   7.114  20.733  0.00  0.00    +0.000 A 
ATOM     27  C   UNL     1      19.772   7.903  22.003  0.00  0.00    +0.000 A 
ATOM     28  C   UNL     1      18.459   8.071  21.563  0.00  0.00    +0.000 A 
ENDBRANCH  22  23
ENDBRANCH  21  22
ENDBRANCH   9  18
TORSDOF 5
ENDMDL
MODEL 3
REMARK VINA RESULT:      -6.8     27.476     30.243
REMARK  Name = 28960863
REMARK  6 active torsions:
REMARK  status: ('A' for Active; 'I' for Inactive)
REMARK    1  A    between atoms: N_3  and  C_19
REMARK    2  A    between atoms: N_4  and  C_8
REMARK    3  A    between atoms: N_5  and  C_12
REMARK    4  A    between atoms: C_9  and  C_18
REMARK    5  A    between atoms: C_21  and  C_22
REMARK    6  A    between atoms: C_22  and  C_23
REMARK                            x       y       z     vdW  Elec       q    Type
REMARK                         _______ _______ _______ _____ _____    ______ ____
ROOT
ATOM      3  N   UNL     1      13.297   7.934  19.881  0.00  0.00    -0.293 NA
ATOM      8  C   UNL     1      11.287   8.690  20.788  0.00  0.00    +0.090 C 
ATOM      9  C   UNL     1      12.356   7.877  18.747  0.00  0.00    +0.147 C 
ATOM     10  C   UNL     1      11.061   8.516  19.286  0.00  0.00    +0.052 C 
ATOM     11  C   UNL     1      12.479   7.794  21.090  0.00  0.00    +0.107 C 
ATOM     19  C   UNL     1      14.343   6.920  19.811  0.00  0.00    +0.105 C 
ENDROOT
BRANCH   8   4
ATOM      2  O   UNL     1      10.968   9.921  23.366  0.00  0.00    -0.253 OA
ATOM      4  N   UNL     1      11.564  10.065  21.129  0.00  0.00    -0.295 N 
ATOM      5  N   UNL     1      11.719  11.926  22.467  0.00  0.00    -0.297 N 
ATOM     20  C   UNL     1      11.379  10.577  22.410  0.00  0.00    +0.300 C 
ATOM     29  H   UNL     1      11.838  10.703  20.387  0.00  0.00    +0.151 HD
ATOM     30  H   UNL     1      11.977  12.388  21.602  0.00  0.00    +0.151 HD
BRANCH   5  12
ATOM     12  C   UNL     1      11.625  12.714  23.676  0.00  0.00    +0.074 C 
ATOM     13  C   UNL     1      12.674  13.831  23.688  0.00  0.00    +0.022 C 
ATOM     14  C   UNL     1      10.212  13.277  23.859  0.00  0.00    +0.022 C 
ATOM     15  C   UNL     1      12.352  14.946  22.692  0.00  0.00    +0.002 C 
ATOM     16  C   UNL     1       9.894  14.392  22.863  0.00  0.00    +0.002 C 
ATOM     17  C   UNL     1      10.945  15.497  22.902  0.00  0.00    +0.000 C 
ENDBRANCH   5  12
ENDBRANCH   8   4
BRANCH   9  18
ATOM      1  O   UNL     1      13.289   7.762  16.492  0.00  0.00    -0.336 OA
ATOM      6  N   UNL     1      12.975   9.847  17.245  0.00  0.00    -0.194 NA
ATOM      7  N   UNL     1      13.714   8.615  15.464  0.00  0.00    -0.061 NA
ATOM     18  C   UNL     1      12.869   8.567  17.501  0.00  0.00    +0.245 A 
ATOM     21  C   UNL     1      13.497   9.827  15.985  0.00  0.00    +0.176 A 
BRANCH  21  22
ATOM     22  C   UNL     1      13.804  11.057  15.245  0.00  0.00    +0.114 C 
BRANCH  22  23
ATOM     23  C   UNL     1      15.221  11.587  15.447  0.00  0.00    -0.040 A 
ATOM     24  C   UNL     1      16.204  11.329  14.491  0.00  0.00    +0.004 A 
ATOM     25  C   UNL     1      15.532  12.328  16.586  0.00  0.00    +0.004 A 
ATOM     26  C   UNL     1      17.500  11.813  14.676  0.00  0.00    +0.000 A 
ATOM     27  C   UNL     1      16.827  12.813  16.770  0.00  0.00    +0.000 A 
ATOM     28  C   UNL     1      17.811  12.555  15.816  0.00  0.00    +0.000 A 
ENDBRANCH  22  23
ENDBRANCH  21  22
ENDBRANCH   9  18
TORSDOF 5
ENDMDL
MODEL 4
REMARK VINA RESULT:      -6.5      1.625      2.059
REMARK  Name = 28960863
REMARK  6 active torsions:
REMARK  status: ('A' for Active; 'I' for Inactive)
REMARK    1  A    between atoms: N_3  and  C_19
REMARK    2  A    between atoms: N_4  and  C_8
REMARK    3  A    between atoms: N_5  and  C_12
REMARK    4  A    between atoms: C_9  and  C_18
REMARK    5  A    between atoms: C_21  and  C_22
REMARK    6  A    between atoms: C_22  and  C_23
REMARK                            x       y       z     vdW  Elec       q    Type
REMARK                         _______ _______ _______ _____ _____    ______ ____
ROOT
ATOM      3  N   UNL     1      -5.678 -12.138  16.615  0.00  0.00    -0.293 NA
ATOM      8  C   UNL     1      -3.879 -10.707  16.222  0.00  0.00    +0.090 C 
ATOM      9  C   UNL     1      -5.972 -10.962  17.457  0.00  0.00    +0.147 C 
ATOM     10  C   UNL     1      -4.874  -9.943  17.095  0.00  0.00    +0.052 C 
ATOM     11  C   UNL     1      -4.219 -12.170  16.466  0.00  0.00    +0.107 C 
ATOM     19  C   UNL     1      -6.197 -13.384  17.166  0.00  0.00    +0.105 C 
ENDROOT
BRANCH   8   4
ATOM      2  O   UNL     1      -2.114 -11.452  14.079  0.00  0.00    -0.253 OA
ATOM      4  N   UNL     1      -4.020 -10.360  14.827  0.00  0.00    -0.295 N 
ATOM      5  N   UNL     1      -3.479 -10.298  12.596  0.00  0.00    -0.297 N 
ATOM     20  C   UNL     1      -3.111 -10.767  13.854  0.00  0.00    +0.300 C 
ATOM     29  H   UNL     1      -4.773  -9.735  14.556  0.00  0.00    +0.151 HD
ATOM     30  H   UNL     1      -4.281  -9.680  12.534  0.00  0.00    +0.151 HD
BRANCH   5  12
ATOM     12  C   UNL     1      -2.716 -10.570  11.398  0.00  0.00    +0.074 C 
ATOM     13  C   UNL     1      -3.332 -11.725  10.602  0.00  0.00    +0.022 C 
ATOM     14  C   UNL     1      -2.580  -9.311  10.533  0.00  0.00    +0.022 C 
ATOM     15  C   UNL     1      -4.645 -11.334   9.924  0.00  0.00    +0.002 C 
ATOM     16  C   UNL     1      -3.894  -8.924   9.855  0.00  0.00    +0.002 C 
ATOM     17  C   UNL     1      -4.482 -10.086   9.061  0.00  0.00    +0.000 C 
ENDBRANCH   5  12
ENDBRANCH   8   4
BRANCH   9  18
ATOM      1  O   UNL     1      -7.479  -9.059  17.183  0.00  0.00    -0.336 OA
ATOM      6  N   UNL     1      -8.504 -11.049  17.145  0.00  0.00    -0.194 NA
ATOM      7  N   UNL     1      -8.843  -8.790  17.002  0.00  0.00    -0.061 NA
ATOM     18  C   UNL     1      -7.367 -10.410  17.256  0.00  0.00    +0.245 A 
ATOM     21  C   UNL     1      -9.380 -10.014  16.990  0.00  0.00    +0.176 A 
BRANCH  21  22
ATOM     22  C   UNL     1     -10.822 -10.228  16.822  0.00  0.00    +0.114 C 
BRANCH  22  23
ATOM     23  C   UNL     1     -11.651 -10.019  18.087  0.00  0.00    -0.040 A 
ATOM     24  C   UNL     1     -11.045 -10.110  19.340  0.00  0.00    +0.004 A 
ATOM     25  C   UNL     1     -13.013  -9.736  17.989  0.00  0.00    +0.004 A 
ATOM     26  C   UNL     1     -11.803  -9.921  20.496  0.00  0.00    +0.000 A 
ATOM     27  C   UNL     1     -13.770  -9.546  19.145  0.00  0.00    +0.000 A 
ATOM     28  C   UNL     1     -13.165  -9.638  20.398  0.00  0.00    +0.000 A 
ENDBRANCH  22  23
ENDBRANCH  21  22
ENDBRANCH   9  18
TORSDOF 5
ENDMDL
MODEL 5
REMARK VINA RESULT:      -6.5     24.928     28.949
REMARK  Name = 28960863
REMARK  6 active torsions:
REMARK  status: ('A' for Active; 'I' for Inactive)
REMARK    1  A    between atoms: N_3  and  C_19
REMARK    2  A    between atoms: N_4  and  C_8
REMARK    3  A    between atoms: N_5  and  C_12
REMARK    4  A    between atoms: C_9  and  C_18
REMARK    5  A    between atoms: C_21  and  C_22
REMARK    6  A    between atoms: C_22  and  C_23
REMARK                            x       y       z     vdW  Elec       q    Type
REMARK                         _______ _______ _______ _____ _____    ______ ____
ROOT
ATOM      3  N   UNL     1      15.336   9.562   4.600  0.00  0.00    -0.293 NA
ATOM      8  C   UNL     1      14.800   8.245   6.447  0.00  0.00    +0.090 C 
ATOM      9  C   UNL     1      15.961   8.260   4.297  0.00  0.00    +0.147 C 
ATOM     10  C   UNL     1      15.489   7.332   5.434  0.00  0.00    +0.052 C 
ATOM     11  C   UNL     1      15.262   9.643   6.063  0.00  0.00    +0.107 C 
ATOM     19  C   UNL     1      16.058  10.692   4.028  0.00  0.00    +0.105 C 
ENDROOT
BRANCH   8   4
ATOM      2  O   UNL     1      13.173   6.228   7.691  0.00  0.00    -0.253 OA
ATOM      4  N   UNL     1      13.362   8.129   6.376  0.00  0.00    -0.295 N 
ATOM      5  N   UNL     1      11.286   7.233   6.783  0.00  0.00    -0.297 N 
ATOM     20  C   UNL     1      12.654   7.114   7.013  0.00  0.00    +0.300 C 
ATOM     29  H   UNL     1      12.853   8.773   5.778  0.00  0.00    +0.151 HD
ATOM     30  H   UNL     1      10.973   7.960   6.148  0.00  0.00    +0.151 HD
BRANCH   5  12
ATOM     12  C   UNL     1      10.311   6.313   7.325  0.00  0.00    +0.074 C 
ATOM     13  C   UNL     1       9.019   7.043   7.707  0.00  0.00    +0.022 C 
ATOM     14  C   UNL     1      10.033   5.166   6.348  0.00  0.00    +0.022 C 
ATOM     15  C   UNL     1       8.218   7.493   6.485  0.00  0.00    +0.002 C 
ATOM     16  C   UNL     1       9.230   5.619   5.128  0.00  0.00    +0.002 C 
ATOM     17  C   UNL     1       7.944   6.332   5.534  0.00  0.00    +0.000 C 
ENDBRANCH   5  12
ENDBRANCH   8   4
BRANCH   9  18
ATOM      1  O   UNL     1      16.608   7.707   2.007  0.00  0.00    -0.336 OA
ATOM      6  N   UNL     1      14.464   7.271   2.482  0.00  0.00    -0.194 NA
ATOM      7  N   UNL     1      16.049   7.181   0.835  0.00  0.00    -0.061 NA
ATOM     18  C   UNL     1      15.608   7.725   2.926  0.00  0.00    +0.245 A 
ATOM     21  C   UNL     1      14.783   6.950   1.195  0.00  0.00    +0.176 A 
BRANCH  21  22
ATOM     22  C   UNL     1      13.801   6.386   0.262  0.00  0.00    +0.114 C 
BRANCH  22  23
ATOM     23  C   UNL     1      12.698   5.560   0.918  0.00  0.00    -0.040 A 
ATOM     24  C   UNL     1      12.996   4.315   1.473  0.00  0.00    +0.004 A 
ATOM     25  C   UNL     1      11.393   6.049   0.961  0.00  0.00    +0.004 A 
ATOM     26  C   UNL     1      11.987   3.560   2.072  0.00  0.00    +0.000 A 
ATOM     27  C   UNL     1      10.385   5.294   1.561  0.00  0.00    +0.000 A 
ATOM     28  C   UNL     1      10.681   4.050   2.116  0.00  0.00    +0.000 A 
ENDBRANCH  22  23
ENDBRANCH  21  22
ENDBRANCH   9  18
TORSDOF 5
ENDMDL
MODEL 6
REMARK VINA RESULT:      -6.4     16.930     19.748
REMARK  Name = 28960863
REMARK  6 active torsions:
REMARK  status: ('A' for Active; 'I' for Inactive)
REMARK    1  A    between atoms: N_3  and  C_19
REMARK    2  A    between atoms: N_4  and  C_8
REMARK    3  A    between atoms: N_5  and  C_12
REMARK    4  A    between atoms: C_9  and  C_18
REMARK    5  A    between atoms: C_21  and  C_22
REMARK    6  A    between atoms: C_22  and  C_23
REMARK                            x       y       z     vdW  Elec       q    Type
REMARK                         _______ _______ _______ _____ _____    ______ ____
ROOT
ATOM      3  N   UNL     1     -13.857   9.000  13.760  0.00  0.00    -0.293 NA
ATOM      8  C   UNL     1     -11.766   8.487  14.656  0.00  0.00    +0.090 C 
ATOM      9  C   UNL     1     -13.436   7.803  13.008  0.00  0.00    +0.147 C 
ATOM     10  C   UNL     1     -12.126   7.359  13.690  0.00  0.00    +0.052 C 
ATOM     11  C   UNL     1     -12.619   9.659  14.193  0.00  0.00    +0.107 C 
ATOM     19  C   UNL     1     -14.707   9.896  12.985  0.00  0.00    +0.105 C 
ENDROOT
BRANCH   8   4
ATOM      2  O   UNL     1     -10.120   8.992  16.958  0.00  0.00    -0.253 OA
ATOM      4  N   UNL     1     -12.061   8.131  16.024  0.00  0.00    -0.295 N 
ATOM      5  N   UNL     1     -11.722   7.965  18.290  0.00  0.00    -0.297 N 
ATOM     20  C   UNL     1     -11.201   8.416  17.080  0.00  0.00    +0.300 C 
ATOM     29  H   UNL     1     -12.897   7.587  16.214  0.00  0.00    +0.151 HD
ATOM     30  H   UNL     1     -12.588   7.438  18.267  0.00  0.00    +0.151 HD
BRANCH   5  12
ATOM     12  C   UNL     1     -11.040   8.128  19.554  0.00  0.00    +0.074 C 
ATOM     13  C   UNL     1     -11.189   9.560  20.080  0.00  0.00    +0.022 C 
ATOM     14  C   UNL     1     -11.532   7.105  20.583  0.00  0.00    +0.022 C 
ATOM     15  C   UNL     1     -12.606   9.856  20.573  0.00  0.00    +0.002 C 
ATOM     16  C   UNL     1     -12.948   7.405  21.075  0.00  0.00    +0.002 C 
ATOM     17  C   UNL     1     -13.068   8.831  21.604  0.00  0.00    +0.000 C 
ENDBRANCH   5  12
ENDBRANCH   8   4
BRANCH   9  18
ATOM      1  O   UNL     1     -15.103   6.438  14.161  0.00  0.00    -0.336 OA
ATOM      6  N   UNL     1     -14.876   5.961  11.985  0.00  0.00    -0.194 NA
ATOM      7  N   UNL     1     -16.008   5.402  13.893  0.00  0.00    -0.061 NA
ATOM     18  C   UNL     1     -14.479   6.706  12.985  0.00  0.00    +0.245 A 
ATOM     21  C   UNL     1     -15.815   5.177  12.590  0.00  0.00    +0.176 A 
BRANCH  21  22
ATOM     22  C   UNL     1     -16.565   4.149  11.859  0.00  0.00    +0.114 C 
BRANCH  22  23
ATOM     23  C   UNL     1     -16.000   3.800  10.486  0.00  0.00    -0.040 A 
ATOM     24  C   UNL     1     -15.062   2.775  10.358  0.00  0.00    +0.004 A 
ATOM     25  C   UNL     1     -16.421   4.506   9.359  0.00  0.00    +0.004 A 
ATOM     26  C   UNL     1     -14.544   2.457   9.102  0.00  0.00    +0.000 A 
ATOM     27  C   UNL     1     -15.904   4.187   8.104  0.00  0.00    +0.000 A 
ATOM     28  C   UNL     1     -14.966   3.163   7.975  0.00  0.00    +0.000 A 
ENDBRANCH  22  23
ENDBRANCH  21  22
ENDBRANCH   9  18
TORSDOF 5
ENDMDL
MODEL 7
REMARK VINA RESULT:      -6.3     28.335     31.340
REMARK  Name = 28960863
REMARK  6 active torsions:
REMARK  status: ('A' for Active; 'I' for Inactive)
REMARK    1  A    between atoms: N_3  and  C_19
REMARK    2  A    between atoms: N_4  and  C_8
REMARK    3  A    between atoms: N_5  and  C_12
REMARK    4  A    between atoms: C_9  and  C_18
REMARK    5  A    between atoms: C_21  and  C_22
REMARK    6  A    between atoms: C_22  and  C_23
REMARK                            x       y       z     vdW  Elec       q    Type
REMARK                         _______ _______ _______ _____ _____    ______ ____
ROOT
ATOM      3  N   UNL     1      18.894  -1.899  31.659  0.00  0.00    -0.293 NA
ATOM      8  C   UNL     1      16.975  -0.715  32.253  0.00  0.00    +0.090 C 
ATOM      9  C   UNL     1      17.826  -2.535  30.863  0.00  0.00    +0.147 C 
ATOM     10  C   UNL     1      16.579  -1.669  31.127  0.00  0.00    +0.052 C 
ATOM     11  C   UNL     1      18.233  -1.337  32.842  0.00  0.00    +0.107 C 
ATOM     19  C   UNL     1      19.966  -2.818  32.020  0.00  0.00    +0.105 C 
ENDROOT
BRANCH   8   4
ATOM      2  O   UNL     1      16.080   1.756  33.418  0.00  0.00    -0.253 OA
ATOM      4  N   UNL     1      17.231   0.617  31.757  0.00  0.00    -0.295 N 
ATOM      5  N   UNL     1      17.142   2.912  31.706  0.00  0.00    -0.297 N 
ATOM     20  C   UNL     1      16.755   1.762  32.390  0.00  0.00    +0.300 C 
ATOM     29  H   UNL     1      17.719   0.720  30.872  0.00  0.00    +0.151 HD
ATOM     30  H   UNL     1      17.637   2.799  30.828  0.00  0.00    +0.151 HD
BRANCH   5  12
ATOM     12  C   UNL     1      16.787   4.245  32.140  0.00  0.00    +0.074 C 
ATOM     13  C   UNL     1      17.629   4.675  33.346  0.00  0.00    +0.022 C 
ATOM     14  C   UNL     1      16.912   5.250  30.989  0.00  0.00    +0.022 C 
ATOM     15  C   UNL     1      19.083   4.962  32.972  0.00  0.00    +0.002 C 
ATOM     16  C   UNL     1      18.367   5.537  30.619  0.00  0.00    +0.002 C 
ATOM     17  C   UNL     1      19.181   5.973  31.833  0.00  0.00    +0.000 C 
ENDBRANCH   5  12
ENDBRANCH   8   4
BRANCH   9  18
ATOM      1  O   UNL     1      17.462  -3.575  28.682  0.00  0.00    -0.336 OA
ATOM      6  N   UNL     1      19.028  -1.974  28.682  0.00  0.00    -0.194 NA
ATOM      7  N   UNL     1      17.936  -3.494  27.366  0.00  0.00    -0.061 NA
ATOM     18  C   UNL     1      18.156  -2.647  29.390  0.00  0.00    +0.245 A 
ATOM     21  C   UNL     1      18.856  -2.529  27.447  0.00  0.00    +0.176 A 
BRANCH  21  22
ATOM     22  C   UNL     1      19.633  -2.095  26.280  0.00  0.00    +0.114 C 
BRANCH  22  23
ATOM     23  C   UNL     1      18.840  -2.013  24.979  0.00  0.00    -0.040 A 
ATOM     24  C   UNL     1      19.012  -2.988  23.995  0.00  0.00    +0.004 A 
ATOM     25  C   UNL     1      17.944  -0.965  24.774  0.00  0.00    +0.004 A 
ATOM     26  C   UNL     1      18.287  -2.912  22.805  0.00  0.00    +0.000 A 
ATOM     27  C   UNL     1      17.219  -0.890  23.585  0.00  0.00    +0.000 A 
ATOM     28  C   UNL     1      17.390  -1.863  22.600  0.00  0.00    +0.000 A 
ENDBRANCH  22  23
ENDBRANCH  21  22
ENDBRANCH   9  18
TORSDOF 5
ENDMDL
MODEL 8
REMARK VINA RESULT:      -6.3     28.090     29.989
REMARK  Name = 28960863
REMARK  6 active torsions:
REMARK  status: ('A' for Active; 'I' for Inactive)
REMARK    1  A    between atoms: N_3  and  C_19
REMARK    2  A    between atoms: N_4  and  C_8
REMARK    3  A    between atoms: N_5  and  C_12
REMARK    4  A    between atoms: C_9  and  C_18
REMARK    5  A    between atoms: C_21  and  C_22
REMARK    6  A    between atoms: C_22  and  C_23
REMARK                            x       y       z     vdW  Elec       q    Type
REMARK                         _______ _______ _______ _____ _____    ______ ____
ROOT
ATOM      3  N   UNL     1      13.209   7.918  18.704  0.00  0.00    -0.293 NA
ATOM      8  C   UNL     1      15.337   7.237  19.370  0.00  0.00    +0.090 C 
ATOM      9  C   UNL     1      12.954   7.060  19.877  0.00  0.00    +0.147 C 
ATOM     10  C   UNL     1      14.356   6.723  20.422  0.00  0.00    +0.052 C 
ATOM     11  C   UNL     1      14.477   7.452  18.133  0.00  0.00    +0.107 C 
ATOM     19  C   UNL     1      12.129   7.891  17.726  0.00  0.00    +0.105 C 
ENDROOT
BRANCH   8   4
ATOM      2  O   UNL     1      17.451   7.510  21.299  0.00  0.00    -0.253 OA
ATOM      4  N   UNL     1      15.972   8.464  19.788  0.00  0.00    -0.295 N 
ATOM      5  N   UNL     1      17.426   9.807  20.955  0.00  0.00    -0.297 N 
ATOM     20  C   UNL     1      16.993   8.502  20.734  0.00  0.00    +0.300 C 
ATOM     29  H   UNL     1      15.611   9.344  19.430  0.00  0.00    +0.151 HD
ATOM     30  H   UNL     1      16.929  10.558  20.489  0.00  0.00    +0.151 HD
BRANCH   5  12
ATOM     12  C   UNL     1      18.479  10.142  21.888  0.00  0.00    +0.074 C 
ATOM     13  C   UNL     1      19.829  10.264  21.174  0.00  0.00    +0.022 C 
ATOM     14  C   UNL     1      18.142  11.421  22.662  0.00  0.00    +0.022 C 
ATOM     15  C   UNL     1      19.920  11.518  20.305  0.00  0.00    +0.002 C 
ATOM     16  C   UNL     1      18.236  12.673  21.791  0.00  0.00    +0.002 C 
ATOM     17  C   UNL     1      19.592  12.778  21.100  0.00  0.00    +0.000 C 
ENDBRANCH   5  12
ENDBRANCH   8   4
BRANCH   9  18
ATOM      1  O   UNL     1      11.062   6.942  21.419  0.00  0.00    -0.336 OA
ATOM      6  N   UNL     1      12.115   8.918  21.414  0.00  0.00    -0.194 NA
ATOM      7  N   UNL     1      10.387   7.745  22.347  0.00  0.00    -0.061 NA
ATOM     18  C   UNL     1      12.065   7.708  20.917  0.00  0.00    +0.245 A 
ATOM     21  C   UNL     1      11.067   8.894  22.286  0.00  0.00    +0.176 A 
BRANCH  21  22
ATOM     22  C   UNL     1      10.705  10.056  23.107  0.00  0.00    +0.114 C 
BRANCH  22  23
ATOM     23  C   UNL     1      11.560  11.297  22.869  0.00  0.00    -0.040 A 
ATOM     24  C   UNL     1      12.673  11.542  23.674  0.00  0.00    +0.004 A 
ATOM     25  C   UNL     1      11.228  12.186  21.847  0.00  0.00    +0.004 A 
ATOM     26  C   UNL     1      13.453  12.678  23.456  0.00  0.00    +0.000 A 
ATOM     27  C   UNL     1      12.010  13.321  21.629  0.00  0.00    +0.000 A 
ATOM     28  C   UNL     1      13.122  13.567  22.433  0.00  0.00    +0.000 A 
ENDBRANCH  22  23
ENDBRANCH  21  22
ENDBRANCH   9  18
TORSDOF 5
ENDMDL
MODEL 9
REMARK VINA RESULT:      -6.2      1.508      2.133
REMARK  Name = 28960863
REMARK  6 active torsions:
REMARK  status: ('A' for Active; 'I' for Inactive)
REMARK    1  A    between atoms: N_3  and  C_19
REMARK    2  A    between atoms: N_4  and  C_8
REMARK    3  A    between atoms: N_5  and  C_12
REMARK    4  A    between atoms: C_9  and  C_18
REMARK    5  A    between atoms: C_21  and  C_22
REMARK    6  A    between atoms: C_22  and  C_23
REMARK                            x       y       z     vdW  Elec       q    Type
REMARK                         _______ _______ _______ _____ _____    ______ ____
ROOT
ATOM      3  N   UNL     1      -6.900 -12.250  18.123  0.00  0.00    -0.293 NA
ATOM      8  C   UNL     1      -4.704 -11.571  17.728  0.00  0.00    +0.090 C 
ATOM      9  C   UNL     1      -6.879 -10.845  18.573  0.00  0.00    +0.147 C 
ATOM     10  C   UNL     1      -5.479 -10.333  18.179  0.00  0.00    +0.052 C 
ATOM     11  C   UNL     1      -5.523 -12.737  18.262  0.00  0.00    +0.107 C 
ATOM     19  C   UNL     1      -7.847 -13.076  18.862  0.00  0.00    +0.105 C 
ENDROOT
BRANCH   8   4
ATOM      2  O   UNL     1      -2.319 -11.143  16.181  0.00  0.00    -0.253 OA
ATOM      4  N   UNL     1      -4.585 -11.629  16.290  0.00  0.00    -0.295 N 
ATOM      5  N   UNL     1      -3.544 -11.520  14.245  0.00  0.00    -0.297 N 
ATOM     20  C   UNL     1      -3.383 -11.406  15.623  0.00  0.00    +0.300 C 
ATOM     29  H   UNL     1      -5.426 -11.768  15.738  0.00  0.00    +0.151 HD
ATOM     30  H   UNL     1      -4.481 -11.669  13.886  0.00  0.00    +0.151 HD
BRANCH   5  12
ATOM     12  C   UNL     1      -2.460 -11.339  13.305  0.00  0.00    +0.074 C 
ATOM     13  C   UNL     1      -2.114 -12.656  12.602  0.00  0.00    +0.022 C 
ATOM     14  C   UNL     1      -2.787 -10.237  12.292  0.00  0.00    +0.022 C 
ATOM     15  C   UNL     1      -3.186 -13.081  11.597  0.00  0.00    +0.002 C 
ATOM     16  C   UNL     1      -3.857 -10.666  11.288  0.00  0.00    +0.002 C 
ATOM     17  C   UNL     1      -3.485 -11.972  10.593  0.00  0.00    +0.000 C 
ENDBRANCH   5  12
ENDBRANCH   8   4
BRANCH   9  18
ATOM      1  O   UNL     1      -7.653  -9.190  16.951  0.00  0.00    -0.336 OA
ATOM      6  N   UNL     1      -9.253  -9.941  18.326  0.00  0.00    -0.194 NA
ATOM      7  N   UNL     1      -8.829  -8.522  16.582  0.00  0.00    -0.061 NA
ATOM     18  C   UNL     1      -7.991 -10.005  17.983  0.00  0.00    +0.245 A 
ATOM     21  C   UNL     1      -9.726  -9.019  17.438  0.00  0.00    +0.176 A 
BRANCH  21  22
ATOM     22  C   UNL     1     -11.132  -8.597  17.423  0.00  0.00    +0.114 C 
BRANCH  22  23
ATOM     23  C   UNL     1     -11.554  -7.825  16.176  0.00  0.00    -0.040 A 
ATOM     24  C   UNL     1     -11.912  -8.515  15.018  0.00  0.00    +0.004 A 
ATOM     25  C   UNL     1     -11.583  -6.431  16.196  0.00  0.00    +0.004 A 
ATOM     26  C   UNL     1     -12.297  -7.810  13.877  0.00  0.00    +0.000 A 
ATOM     27  C   UNL     1     -11.969  -5.726  15.056  0.00  0.00    +0.000 A 
ATOM     28  C   UNL     1     -12.326  -6.415  13.897  0.00  0.00    +0.000 A 
ENDBRANCH  22  23
ENDBRANCH  21  22
ENDBRANCH   9  18
TORSDOF 5
ENDMDL
MODEL 10
REMARK VINA RESULT:      -6.0     25.046     28.879
REMARK  Name = 28960863
REMARK  6 active torsions:
REMARK  status: ('A' for Active; 'I' for Inactive)
REMARK    1  A    between atoms: N_3  and  C_19
REMARK    2  A    between atoms: N_4  and  C_8
REMARK    3  A    between atoms: N_5  and  C_12
REMARK    4  A    between atoms: C_9  and  C_18
REMARK    5  A    between atoms: C_21  and  C_22
REMARK    6  A    between atoms: C_22  and  C_23
REMARK                            x       y       z     vdW  Elec       q    Type
REMARK                         _______ _______ _______ _____ _____    ______ ____
ROOT
ATOM      3  N   UNL     1      13.087   7.440   1.131  0.00  0.00    -0.293 NA
ATOM      8  C   UNL     1      14.293   7.004   3.078  0.00  0.00    +0.090 C 
ATOM      9  C   UNL     1      13.968   6.318   0.756  0.00  0.00    +0.147 C 
ATOM     10  C   UNL     1      14.663   5.915   2.072  0.00  0.00    +0.052 C 
ATOM     11  C   UNL     1      13.776   8.147   2.216  0.00  0.00    +0.107 C 
ATOM     19  C   UNL     1      12.779   8.327   0.015  0.00  0.00    +0.105 C 
ENDROOT
BRANCH   8   4
ATOM      2  O   UNL     1      13.778   8.049   5.706  0.00  0.00    -0.253 OA
ATOM      4  N   UNL     1      13.284   6.549   4.007  0.00  0.00    -0.295 N 
ATOM      5  N   UNL     1      12.071   6.494   5.956  0.00  0.00    -0.297 N 
ATOM     20  C   UNL     1      13.106   7.118   5.265  0.00  0.00    +0.300 C 
ATOM     29  H   UNL     1      12.729   5.736   3.760  0.00  0.00    +0.151 HD
ATOM     30  H   UNL     1      11.631   5.688   5.527  0.00  0.00    +0.151 HD
BRANCH   5  12
ATOM     12  C   UNL     1      11.666   6.882   7.290  0.00  0.00    +0.074 C 
ATOM     13  C   UNL     1      10.928   8.225   7.273  0.00  0.00    +0.022 C 
ATOM     14  C   UNL     1      10.816   5.789   7.947  0.00  0.00    +0.022 C 
ATOM     15  C   UNL     1       9.533   8.118   6.659  0.00  0.00    +0.002 C 
ATOM     16  C   UNL     1       9.420   5.686   7.332  0.00  0.00    +0.002 C 
ATOM     17  C   UNL     1       8.702   7.032   7.337  0.00  0.00    +0.000 C 
ENDBRANCH   5  12
ENDBRANCH   8   4
BRANCH   9  18
ATOM      1  O   UNL     1      11.950   4.963   0.507  0.00  0.00    -0.336 OA
ATOM      6  N   UNL     1      13.656   4.309  -0.788  0.00  0.00    -0.194 NA
ATOM      7  N   UNL     1      11.487   3.855  -0.216  0.00  0.00    -0.061 NA
ATOM     18  C   UNL     1      13.233   5.163   0.110  0.00  0.00    +0.245 A 
ATOM     21  C   UNL     1      12.550   3.527  -0.956  0.00  0.00    +0.176 A 
BRANCH  21  22
ATOM     22  C   UNL     1      12.527   2.395  -1.890  0.00  0.00    +0.114 C 
BRANCH  22  23
ATOM     23  C   UNL     1      11.528   2.531  -3.035  0.00  0.00    -0.040 A 
ATOM     24  C   UNL     1      10.265   1.948  -2.931  0.00  0.00    +0.004 A 
ATOM     25  C   UNL     1      11.878   3.238  -4.184  0.00  0.00    +0.004 A 
ATOM     26  C   UNL     1       9.352   2.071  -3.978  0.00  0.00    +0.000 A 
ATOM     27  C   UNL     1      10.964   3.363  -5.231  0.00  0.00    +0.000 A 
ATOM     28  C   UNL     1       9.702   2.779  -5.128  0.00  0.00    +0.000 A 
ENDBRANCH  22  23
ENDBRANCH  21  22
ENDBRANCH   9  18
TORSDOF 5
ENDMDL
