REMARK  Name = 75366958
REMARK  11 active torsions:
REMARK  status: ('A' for Active; 'I' for Inactive)
REMARK    1  A    between atoms: O_2  and  C_12
REMARK    2  A    between atoms: O_5  and  C_21
REMARK    3  A    between atoms: O_5  and  C_27
REMARK    4  A    between atoms: O_6  and  C_28
REMARK    5  A    between atoms: O_6  and  C_29
REMARK    6  A    between atoms: N_7  and  C_16
REMARK    7  A    between atoms: N_9  and  C_22
REMARK    8  A    between atoms: C_10  and  C_15
REMARK    9  A    between atoms: C_11  and  C_16
REMARK   10  A    between atoms: C_15  and  C_17
REMARK   11  A    between atoms: C_20  and  C_21
REMARK                            x       y       z     vdW  Elec       q    Type
REMARK                         _______ _______ _______ _____ _____    ______ ____
ROOT
ATOM      1  O   UNL     1       3.207  -0.358   0.351  0.00  0.00    -0.369 OA
ATOM     10  C   UNL     1       3.310  -0.154  -1.060  0.00  0.00    +0.125 C 
ATOM     11  C   UNL     1       3.671   0.731   1.160  0.00  0.00    +0.164 C 
ATOM     12  C   UNL     1       5.119   1.104   0.817  0.00  0.00    +0.145 C 
ATOM     13  C   UNL     1       4.761   0.105  -1.463  0.00  0.00    +0.034 C 
ATOM     14  C   UNL     1       5.332   1.286  -0.683  0.00  0.00    +0.036 C 
ENDROOT
BRANCH  12   2
ATOM      2  O   UNL     1       5.982   0.052   1.256  0.00  0.00    -0.389 OA
ATOM     30  H   UNL     1       6.897   0.327   1.074  0.00  0.00    +0.210 HD
ENDBRANCH  12   2
BRANCH  10  15
ATOM     15  C   UNL     1       2.773  -1.405  -1.744  0.00  0.00    +0.090 C 
BRANCH  15  17
ATOM      3  O   UNL     1      -0.809  -1.632  -1.419  0.00  0.00    -0.357 OA
ATOM      8  N   UNL     1       0.342  -1.174  -2.048  0.00  0.00    -0.083 NA
ATOM     17  C   UNL     1       1.351  -1.694  -1.343  0.00  0.00    +0.086 A 
ATOM     18  C   UNL     1       0.901  -2.480  -0.268  0.00  0.00    +0.073 A 
ATOM     20  C   UNL     1      -0.463  -2.408  -0.361  0.00  0.00    +0.163 A 
BRANCH  20  21
ATOM     21  C   UNL     1      -1.567  -2.979   0.422  0.00  0.00    +0.236 C 
BRANCH  21   5
ATOM      5  O   UNL     1      -1.493  -2.535   1.780  0.00  0.00    -0.375 OA
ATOM     27  C   UNL     1      -2.551  -3.075   2.554  0.00  0.00    +0.194 C 
ENDBRANCH  21   5
ENDBRANCH  20  21
ENDBRANCH  15  17
ENDBRANCH  10  15
BRANCH  11  16
ATOM     16  C   UNL     1       2.715   1.919   1.084  0.00  0.00    +0.140 C 
BRANCH  16   7
ATOM      4  O   UNL     1       0.412   2.123  -0.607  0.00  0.00    -0.253 OA
ATOM      7  N   UNL     1       1.378   1.523   1.407  0.00  0.00    -0.297 N 
ATOM      9  N   UNL     1      -0.885   1.186   1.110  0.00  0.00    -0.269 N 
ATOM     19  C   UNL     1       0.293   1.654   0.522  0.00  0.00    +0.304 C 
ATOM     31  H   UNL     1       1.196   1.169   2.342  0.00  0.00    +0.150 HD
ATOM     32  H   UNL     1      -0.810   0.825   2.058  0.00  0.00    +0.156 HD
BRANCH   9  22
ATOM     22  C   UNL     1      -2.182   1.148   0.546  0.00  0.00    +0.035 A 
ATOM     23  C   UNL     1      -3.250   0.643   1.286  0.00  0.00    +0.027 A 
ATOM     24  C   UNL     1      -2.392   1.617  -0.751  0.00  0.00    +0.027 A 
ATOM     25  C   UNL     1      -4.529   0.606   0.730  0.00  0.00    +0.047 A 
ATOM     26  C   UNL     1      -3.670   1.579  -1.308  0.00  0.00    +0.047 A 
ATOM     28  C   UNL     1      -4.739   1.074  -0.567  0.00  0.00    +0.120 A 
BRANCH  28   6
ATOM      6  O   UNL     1      -5.986   1.037  -1.110  0.00  0.00    -0.495 OA
ATOM     29  C   UNL     1      -7.033   0.508  -0.296  0.00  0.00    +0.277 C 
ENDBRANCH  28   6
ENDBRANCH   9  22
ENDBRANCH  16   7
ENDBRANCH  11  16
TORSDOF 9
