REMARK  Name = 51137076
REMARK  3 active torsions:
REMARK  status: ('A' for Active; 'I' for Inactive)
REMARK    1  A    between atoms: N_4  and  C_10
REMARK    2  A    between atoms: C_6  and  C_11
REMARK    3  A    between atoms: C_10  and  C_12
REMARK                            x       y       z     vdW  Elec       q    Type
REMARK                         _______ _______ _______ _____ _____    ______ ____
ROOT
ATOM      4  N   UNL     1      -1.064  -0.481  -0.176  0.00  0.00    -0.297 NA
ATOM      6  C   UNL     1       1.114  -1.011   0.513  0.00  0.00    +0.060 C 
ATOM      7  C   UNL     1       0.391  -0.247   1.635  0.00  0.00    +0.027 C 
ATOM      8  C   UNL     1       0.258  -0.767  -0.737  0.00  0.00    +0.095 C 
ATOM      9  C   UNL     1      -0.808   0.405   0.959  0.00  0.00    +0.085 C 
ENDROOT
BRANCH   6  11
ATOM      1  S   UNL     1       3.771  -1.828   0.498  0.00  0.00    -0.072 S 
ATOM      5  N   UNL     1       2.978   0.578   0.015  0.00  0.00    -0.244 NA
ATOM     11  C   UNL     1       2.564  -0.630   0.318  0.00  0.00    +0.084 A 
ATOM     13  C   UNL     1       4.979  -0.650   0.142  0.00  0.00    +0.039 A 
ATOM     14  C   UNL     1       4.361   0.583  -0.089  0.00  0.00    +0.078 A 
ATOM     17  C   UNL     1       6.373  -0.806   0.073  0.00  0.00    +0.017 A 
ATOM     18  C   UNL     1       5.170   1.697  -0.401  0.00  0.00    +0.029 A 
ATOM     21  C   UNL     1       7.150   0.313  -0.237  0.00  0.00    +0.001 A 
ATOM     22  C   UNL     1       6.558   1.550  -0.471  0.00  0.00    +0.002 A 
ENDBRANCH   6  11
BRANCH   4  10
ATOM     10  C   UNL     1      -1.965   0.114  -1.152  0.00  0.00    +0.119 C 
BRANCH  10  12
ATOM      2  F   UNL     1      -6.042   2.085   0.668  0.00  0.00    -0.202 F 
ATOM      3  F   UNL     1      -7.354  -0.302   0.439  0.00  0.00    -0.202 F 
ATOM     12  C   UNL     1      -3.405   0.002  -0.727  0.00  0.00    -0.030 A 
ATOM     15  C   UNL     1      -4.069   1.117  -0.216  0.00  0.00    +0.046 A 
ATOM     16  C   UNL     1      -4.075  -1.216  -0.844  0.00  0.00    +0.008 A 
ATOM     19  C   UNL     1      -5.404   1.015   0.178  0.00  0.00    +0.159 A 
ATOM     20  C   UNL     1      -5.409  -1.318  -0.450  0.00  0.00    +0.041 A 
ATOM     23  C   UNL     1      -6.073  -0.203   0.061  0.00  0.00    +0.158 A 
ENDBRANCH  10  12
ENDBRANCH   4  10
TORSDOF 3
