REMARK  Name = 26744250
REMARK  8 active torsions:
REMARK  status: ('A' for Active; 'I' for Inactive)
REMARK    1  A    between atoms: O_2  and  C_12
REMARK    2  A    between atoms: N_3  and  C_16
REMARK    3  A    between atoms: N_6  and  C_22
REMARK    4  A    between atoms: N_6  and  C_23
REMARK    5  A    between atoms: N_6  and  C_24
REMARK    6  A    between atoms: C_7  and  C_14
REMARK    7  A    between atoms: C_8  and  C_15
REMARK    8  A    between atoms: C_16  and  C_17
REMARK                            x       y       z     vdW  Elec       q    Type
REMARK                         _______ _______ _______ _____ _____    ______ ____
ROOT
ATOM      3  N   UNL     1      -2.339   1.093  -0.336  0.00  0.00    -0.285 NA
ATOM      8  C   UNL     1      -2.491   0.056   0.705  0.00  0.00    +0.149 C 
ATOM     11  C   UNL     1      -3.848  -0.607   0.405  0.00  0.00    +0.061 C 
ATOM     12  C   UNL     1      -4.402   0.154  -0.792  0.00  0.00    +0.130 C 
ATOM     13  C   UNL     1      -3.690   1.492  -0.724  0.00  0.00    +0.116 C 
ENDROOT
BRANCH   8  15
ATOM      1  O   UNL     1      -0.660  -1.058   1.882  0.00  0.00    -0.336 OA
ATOM      4  N   UNL     1      -0.904  -1.702  -0.249  0.00  0.00    -0.194 NA
ATOM      5  N   UNL     1       0.335  -2.015   1.648  0.00  0.00    -0.061 NA
ATOM     14  C   UNL     1       0.126  -2.347   0.371  0.00  0.00    +0.175 A 
ATOM     15  C   UNL     1      -1.344  -0.933   0.715  0.00  0.00    +0.245 A 
BRANCH  14   7
ATOM      7  C   UNL     1       0.989  -3.387  -0.349  0.00  0.00    +0.060 C 
ATOM      9  C   UNL     1       2.477  -3.192  -0.378  0.00  0.00    +0.012 C 
ATOM     10  C   UNL     1       1.670  -2.997  -1.628  0.00  0.00    +0.012 C 
ENDBRANCH  14   7
ENDBRANCH   8  15
BRANCH  12   2
ATOM      2  O   UNL     1      -5.805   0.300  -0.688  0.00  0.00    -0.390 OA
ATOM     25  H   UNL     1      -6.191  -0.592  -0.662  0.00  0.00    +0.210 HD
ENDBRANCH  12   2
BRANCH   3  16
ATOM     16  C   UNL     1      -1.535   2.229   0.098  0.00  0.00    +0.120 C 
BRANCH  16  17
ATOM     17  C   UNL     1      -0.061   1.930   0.033  0.00  0.00    -0.033 A 
ATOM     18  C   UNL     1       0.721   2.019   1.185  0.00  0.00    +0.007 A 
ATOM     19  C   UNL     1       0.524   1.565  -1.180  0.00  0.00    +0.007 A 
ATOM     20  C   UNL     1       2.086   1.742   1.124  0.00  0.00    +0.023 A 
ATOM     21  C   UNL     1       1.890   1.288  -1.241  0.00  0.00    +0.023 A 
ATOM     22  C   UNL     1       2.671   1.377  -0.089  0.00  0.00    +0.029 A 
BRANCH  22   6
ATOM      6  N   UNL     1       4.052   1.097  -0.150  0.00  0.00    -0.336 N 
ATOM     23  C   UNL     1       4.873   1.187   1.041  0.00  0.00    +0.129 C 
ATOM     24  C   UNL     1       4.667   0.710  -1.404  0.00  0.00    +0.129 C 
ENDBRANCH  22   6
ENDBRANCH  16  17
ENDBRANCH   3  16
TORSDOF 6
