MODEL 1
REMARK VINA RESULT:      -6.3      0.000      0.000
REMARK  Name = 11882931
REMARK  14 active torsions:
REMARK  status: ('A' for Active; 'I' for Inactive)
REMARK    1  A    between atoms: O_2  and  C_16
REMARK    2  A    between atoms: O_3  and  C_21
REMARK    3  A    between atoms: O_6  and  C_29
REMARK    4  A    between atoms: O_6  and  C_33
REMARK    5  A    between atoms: O_7  and  C_36
REMARK    6  A    between atoms: O_7  and  C_37
REMARK    7  A    between atoms: N_9  and  C_27
REMARK    8  A    between atoms: C_11  and  C_19
REMARK    9  A    between atoms: C_13  and  C_21
REMARK   10  A    between atoms: C_13  and  C_22
REMARK   11  A    between atoms: C_14  and  C_24
REMARK   12  A    between atoms: C_24  and  C_25
REMARK   13  A    between atoms: C_27  and  C_29
REMARK   14  A    between atoms: C_28  and  C_30
REMARK                            x       y       z     vdW  Elec       q    Type
REMARK                         _______ _______ _______ _____ _____    ______ ____
ROOT
ATOM      1  S   UNL     1     -10.242 -12.611  20.174  0.00  0.00    -0.057 S 
ATOM      5  O   UNL     1     -13.328  -9.206  19.430  0.00  0.00    -0.270 OA
ATOM      8  N   UNL     1     -10.708 -10.445  18.840  0.00  0.00    -0.229 NA
ATOM     10  N   UNL     1     -12.425 -11.171  20.367  0.00  0.00    -0.261 N 
ATOM     11  C   UNL     1      -7.107 -10.664  17.479  0.00  0.00    -0.019 C 
ATOM     12  C   UNL     1      -7.095 -12.255  17.543  0.00  0.00    +0.011 C 
ATOM     13  C   UNL     1      -5.737 -12.975  17.189  0.00  0.00    +0.021 C 
ATOM     14  C   UNL     1      -8.629 -10.183  17.434  0.00  0.00    +0.054 C 
ATOM     15  C   UNL     1      -6.406 -10.195  16.177  0.00  0.00    +0.010 C 
ATOM     16  C   UNL     1      -5.151 -12.356  15.889  0.00  0.00    +0.123 C 
ATOM     17  C   UNL     1      -7.760 -12.776  18.851  0.00  0.00    +0.049 C 
ATOM     18  C   UNL     1      -5.046 -10.836  15.942  0.00  0.00    +0.032 C 
ATOM     19  C   UNL     1      -6.396 -10.008  18.688  0.00  0.00    +0.012 C 
ATOM     20  C   UNL     1      -9.455 -10.900  18.470  0.00  0.00    +0.058 A 
ATOM     22  C   UNL     1      -6.021 -14.476  16.899  0.00  0.00    +0.016 C 
ATOM     23  C   UNL     1      -9.055 -12.071  19.080  0.00  0.00    +0.015 A 
ATOM     26  C   UNL     1     -11.212 -11.263  19.737  0.00  0.00    +0.165 A 
ATOM     28  C   UNL     1     -13.394 -10.171  20.183  0.00  0.00    +0.250 C 
ATOM     41  H   UNL     1     -12.615 -11.950  20.989  0.00  0.00    +0.157 HD
ENDROOT
BRANCH  28  30
ATOM     30  C   UNL     1     -14.638 -10.336  20.979  0.00  0.00    +0.037 A 
ATOM     31  C   UNL     1     -15.597  -9.346  20.929  0.00  0.00    +0.016 A 
ATOM     32  C   UNL     1     -14.793 -11.474  21.743  0.00  0.00    +0.016 A 
ATOM     34  C   UNL     1     -16.765  -9.502  21.675  0.00  0.00    +0.046 A 
ATOM     35  C   UNL     1     -15.961 -11.630  22.489  0.00  0.00    +0.046 A 
ATOM     36  C   UNL     1     -16.947 -10.643  22.456  0.00  0.00    +0.120 A 
BRANCH  36   7
ATOM      7  O   UNL     1     -18.086 -10.794  23.185  0.00  0.00    -0.495 OA
ATOM     37  C   UNL     1     -19.118  -9.829  22.984  0.00  0.00    +0.277 C 
ENDBRANCH  36   7
ENDBRANCH  28  30
BRANCH  16   2
ATOM      2  O   UNL     1      -3.860 -12.896  15.613  0.00  0.00    -0.391 OA
ATOM     38  H   UNL     1      -3.947 -13.861  15.538  0.00  0.00    +0.210 HD
ENDBRANCH  16   2
BRANCH  13  21
ATOM     21  C   UNL     1      -4.691 -12.963  18.325  0.00  0.00    +0.165 C 
BRANCH  21   3
ATOM      3  O   UNL     1      -4.066 -14.227  18.352  0.00  0.00    -0.394 OA
ATOM     39  H   UNL     1      -3.683 -14.391  17.474  0.00  0.00    +0.209 HD
ENDBRANCH  21   3
ENDBRANCH  13  21
BRANCH  14  24
ATOM     24  C   UNL     1      -8.821  -8.662  17.516  0.00  0.00    +0.106 C 
BRANCH  24  25
ATOM      4  O   UNL     1      -9.671  -8.702  15.250  0.00  0.00    -0.276 OA
ATOM      9  N   UNL     1     -10.164  -6.897  16.628  0.00  0.00    -0.313 N 
ATOM     25  C   UNL     1      -9.585  -8.122  16.330  0.00  0.00    +0.214 C 
ATOM     40  H   UNL     1     -10.085  -6.518  17.567  0.00  0.00    +0.149 HD
BRANCH   9  27
ATOM     27  C   UNL     1     -10.953  -6.144  15.680  0.00  0.00    +0.132 C 
BRANCH  27  29
ATOM     29  C   UNL     1     -12.437  -6.403  15.859  0.00  0.00    +0.178 C 
BRANCH  29   6
ATOM      6  O   UNL     1     -13.157  -5.774  14.807  0.00  0.00    -0.381 OA
ATOM     33  C   UNL     1     -12.281  -5.166  13.867  0.00  0.00    +0.194 C 
ENDBRANCH  29   6
ENDBRANCH  27  29
ENDBRANCH   9  27
ENDBRANCH  24  25
ENDBRANCH  14  24
TORSDOF 10
ENDMDL
MODEL 2
REMARK VINA RESULT:      -6.3     30.806     35.047
REMARK  Name = 11882931
REMARK  14 active torsions:
REMARK  status: ('A' for Active; 'I' for Inactive)
REMARK    1  A    between atoms: O_2  and  C_16
REMARK    2  A    between atoms: O_3  and  C_21
REMARK    3  A    between atoms: O_6  and  C_29
REMARK    4  A    between atoms: O_6  and  C_33
REMARK    5  A    between atoms: O_7  and  C_36
REMARK    6  A    between atoms: O_7  and  C_37
REMARK    7  A    between atoms: N_9  and  C_27
REMARK    8  A    between atoms: C_11  and  C_19
REMARK    9  A    between atoms: C_13  and  C_21
REMARK   10  A    between atoms: C_13  and  C_22
REMARK   11  A    between atoms: C_14  and  C_24
REMARK   12  A    between atoms: C_24  and  C_25
REMARK   13  A    between atoms: C_27  and  C_29
REMARK   14  A    between atoms: C_28  and  C_30
REMARK                            x       y       z     vdW  Elec       q    Type
REMARK                         _______ _______ _______ _____ _____    ______ ____
ROOT
ATOM      1  S   UNL     1      16.895   5.828  20.184  0.00  0.00    -0.057 S 
ATOM      5  O   UNL     1      21.086   7.384  21.484  0.00  0.00    -0.270 OA
ATOM      8  N   UNL     1      18.183   7.848  21.161  0.00  0.00    -0.229 NA
ATOM     10  N   UNL     1      19.477   5.882  20.643  0.00  0.00    -0.261 N 
ATOM     11  C   UNL     1      14.913   9.878  20.931  0.00  0.00    -0.019 C 
ATOM     12  C   UNL     1      14.005   8.591  21.167  0.00  0.00    +0.011 C 
ATOM     13  C   UNL     1      12.444   8.788  21.057  0.00  0.00    +0.021 C 
ATOM     14  C   UNL     1      16.369   9.567  21.509  0.00  0.00    +0.054 C 
ATOM     15  C   UNL     1      14.321  11.077  21.716  0.00  0.00    +0.010 C 
ATOM     16  C   UNL     1      12.028  10.053  21.859  0.00  0.00    +0.123 C 
ATOM     17  C   UNL     1      14.541   7.364  20.372  0.00  0.00    +0.049 C 
ATOM     18  C   UNL     1      12.832  11.292  21.484  0.00  0.00    +0.032 C 
ATOM     19  C   UNL     1      15.025  10.269  19.437  0.00  0.00    +0.012 C 
ATOM     20  C   UNL     1      16.853   8.212  21.060  0.00  0.00    +0.058 A 
ATOM     22  C   UNL     1      11.733   7.570  21.714  0.00  0.00    +0.016 C 
ATOM     23  C   UNL     1      16.013   7.232  20.570  0.00  0.00    +0.015 A 
ATOM     26  C   UNL     1      18.323   6.617  20.722  0.00  0.00    +0.165 A 
ATOM     28  C   UNL     1      20.765   6.296  21.019  0.00  0.00    +0.250 C 
ATOM     41  H   UNL     1      19.328   4.934  20.313  0.00  0.00    +0.157 HD
ENDROOT
BRANCH  28  30
ATOM     30  C   UNL     1      21.835   5.278  20.853  0.00  0.00    +0.037 A 
ATOM     31  C   UNL     1      23.087   5.688  20.447  0.00  0.00    +0.016 A 
ATOM     32  C   UNL     1      21.541   3.955  21.111  0.00  0.00    +0.016 A 
ATOM     34  C   UNL     1      24.091   4.733  20.292  0.00  0.00    +0.046 A 
ATOM     35  C   UNL     1      22.544   3.000  20.957  0.00  0.00    +0.046 A 
ATOM     36  C   UNL     1      23.820   3.388  20.546  0.00  0.00    +0.120 A 
BRANCH  36   7
ATOM      7  O   UNL     1      24.800   2.456  20.394  0.00  0.00    -0.495 OA
ATOM     37  C   UNL     1      24.721   1.291  21.214  0.00  0.00    +0.277 C 
ENDBRANCH  36   7
ENDBRANCH  28  30
BRANCH  16   2
ATOM      2  O   UNL     1      10.641  10.332  21.675  0.00  0.00    -0.391 OA
ATOM     38  H   UNL     1      10.186  10.165  22.516  0.00  0.00    +0.210 HD
ENDBRANCH  16   2
BRANCH  13  21
ATOM     21  C   UNL     1      11.907   8.851  19.611  0.00  0.00    +0.165 C 
BRANCH  21   3
ATOM      3  O   UNL     1      10.553   8.453  19.635  0.00  0.00    -0.394 OA
ATOM     39  H   UNL     1      10.099   8.890  18.895  0.00  0.00    +0.209 HD
ENDBRANCH  21   3
ENDBRANCH  13  21
BRANCH  14  24
ATOM     24  C   UNL     1      17.413  10.657  21.231  0.00  0.00    +0.106 C 
BRANCH  24  25
ATOM      4  O   UNL     1      17.659  12.167  23.105  0.00  0.00    -0.276 OA
ATOM      9  N   UNL     1      19.119  10.373  22.880  0.00  0.00    -0.313 N 
ATOM     25  C   UNL     1      18.049  11.171  22.501  0.00  0.00    +0.214 C 
ATOM     40  H   UNL     1      19.336   9.536  22.347  0.00  0.00    +0.149 HD
BRANCH   9  27
ATOM     27  C   UNL     1      19.918  10.629  24.056  0.00  0.00    +0.132 C 
BRANCH  27  29
ATOM     29  C   UNL     1      20.952   9.539  24.276  0.00  0.00    +0.178 C 
BRANCH  29   6
ATOM      6  O   UNL     1      20.293   8.305  24.525  0.00  0.00    -0.381 OA
ATOM     33  C   UNL     1      21.192   7.325  25.024  0.00  0.00    +0.194 C 
ENDBRANCH  29   6
ENDBRANCH  27  29
ENDBRANCH   9  27
ENDBRANCH  24  25
ENDBRANCH  14  24
TORSDOF 10
ENDMDL
MODEL 3
REMARK VINA RESULT:      -6.2      6.141     12.122
REMARK  Name = 11882931
REMARK  14 active torsions:
REMARK  status: ('A' for Active; 'I' for Inactive)
REMARK    1  A    between atoms: O_2  and  C_16
REMARK    2  A    between atoms: O_3  and  C_21
REMARK    3  A    between atoms: O_6  and  C_29
REMARK    4  A    between atoms: O_6  and  C_33
REMARK    5  A    between atoms: O_7  and  C_36
REMARK    6  A    between atoms: O_7  and  C_37
REMARK    7  A    between atoms: N_9  and  C_27
REMARK    8  A    between atoms: C_11  and  C_19
REMARK    9  A    between atoms: C_13  and  C_21
REMARK   10  A    between atoms: C_13  and  C_22
REMARK   11  A    between atoms: C_14  and  C_24
REMARK   12  A    between atoms: C_24  and  C_25
REMARK   13  A    between atoms: C_27  and  C_29
REMARK   14  A    between atoms: C_28  and  C_30
REMARK                            x       y       z     vdW  Elec       q    Type
REMARK                         _______ _______ _______ _____ _____    ______ ____
ROOT
ATOM      1  S   UNL     1      -7.409 -11.649  12.383  0.00  0.00    -0.057 S 
ATOM      5  O   UNL     1      -3.334 -11.542  10.134  0.00  0.00    -0.270 OA
ATOM      8  N   UNL     1      -4.843 -11.522  12.678  0.00  0.00    -0.229 NA
ATOM     10  N   UNL     1      -5.672 -11.635  10.419  0.00  0.00    -0.261 N 
ATOM     11  C   UNL     1      -5.432 -11.020  16.456  0.00  0.00    -0.019 C 
ATOM     12  C   UNL     1      -6.766 -11.889  16.443  0.00  0.00    +0.011 C 
ATOM     13  C   UNL     1      -7.588 -11.957  17.788  0.00  0.00    +0.021 C 
ATOM     14  C   UNL     1      -4.560 -11.437  15.184  0.00  0.00    +0.054 C 
ATOM     15  C   UNL     1      -4.618 -11.343  17.735  0.00  0.00    +0.010 C 
ATOM     16  C   UNL     1      -6.617 -12.242  18.968  0.00  0.00    +0.123 C 
ATOM     17  C   UNL     1      -7.637 -11.576  15.190  0.00  0.00    +0.049 C 
ATOM     18  C   UNL     1      -5.434 -11.283  19.018  0.00  0.00    +0.032 C 
ATOM     19  C   UNL     1      -5.707  -9.496  16.414  0.00  0.00    +0.012 C 
ATOM     20  C   UNL     1      -5.408 -11.495  13.940  0.00  0.00    +0.058 A 
ATOM     22  C   UNL     1      -8.586 -13.148  17.712  0.00  0.00    +0.016 C 
ATOM     23  C   UNL     1      -6.786 -11.575  13.966  0.00  0.00    +0.015 A 
ATOM     26  C   UNL     1      -5.801 -11.595  11.782  0.00  0.00    +0.165 A 
ATOM     28  C   UNL     1      -4.474 -11.607   9.686  0.00  0.00    +0.250 C 
ATOM     41  H   UNL     1      -6.558 -11.738   9.934  0.00  0.00    +0.157 HD
ENDROOT
BRANCH  28  30
ATOM     30  C   UNL     1      -4.628 -11.694   8.210  0.00  0.00    +0.037 A 
ATOM     31  C   UNL     1      -4.164 -12.818   7.559  0.00  0.00    +0.016 A 
ATOM     32  C   UNL     1      -5.229 -10.649   7.541  0.00  0.00    +0.016 A 
ATOM     34  C   UNL     1      -4.309 -12.900   6.174  0.00  0.00    +0.046 A 
ATOM     35  C   UNL     1      -5.374 -10.731   6.157  0.00  0.00    +0.046 A 
ATOM     36  C   UNL     1      -4.913 -11.856   5.472  0.00  0.00    +0.120 A 
BRANCH  36   7
ATOM      7  O   UNL     1      -5.053 -11.936   4.121  0.00  0.00    -0.495 OA
ATOM     37  C   UNL     1      -3.977 -12.525   3.391  0.00  0.00    +0.277 C 
ENDBRANCH  36   7
ENDBRANCH  28  30
BRANCH  16   2
ATOM      2  O   UNL     1      -7.310 -12.183  20.214  0.00  0.00    -0.391 OA
ATOM     38  H   UNL     1      -6.661 -11.996  20.912  0.00  0.00    +0.210 HD
ENDBRANCH  16   2
BRANCH  13  21
ATOM     21  C   UNL     1      -8.452 -10.710  18.074  0.00  0.00    +0.165 C 
BRANCH  21   3
ATOM      3  O   UNL     1      -9.627 -11.139  18.726  0.00  0.00    -0.394 OA
ATOM     39  H   UNL     1      -9.810 -10.521  19.454  0.00  0.00    +0.209 HD
ENDBRANCH  21   3
ENDBRANCH  13  21
BRANCH  14  24
ATOM     24  C   UNL     1      -3.301 -10.586  14.966  0.00  0.00    +0.106 C 
BRANCH  24  25
ATOM      4  O   UNL     1      -1.049 -11.226  15.580  0.00  0.00    -0.276 OA
ATOM      9  N   UNL     1      -2.191 -12.452  13.969  0.00  0.00    -0.313 N 
ATOM     25  C   UNL     1      -2.050 -11.431  14.898  0.00  0.00    +0.214 C 
ATOM     40  H   UNL     1      -3.077 -12.577  13.489  0.00  0.00    +0.149 HD
BRANCH   9  27
ATOM     27  C   UNL     1      -1.150 -13.414  13.689  0.00  0.00    +0.132 C 
BRANCH  27  29
ATOM     29  C   UNL     1      -1.689 -14.833  13.687  0.00  0.00    +0.178 C 
BRANCH  29   6
ATOM      6  O   UNL     1      -0.605 -15.751  13.718  0.00  0.00    -0.381 OA
ATOM     33  C   UNL     1      -0.848 -16.815  14.628  0.00  0.00    +0.194 C 
ENDBRANCH  29   6
ENDBRANCH  27  29
ENDBRANCH   9  27
ENDBRANCH  24  25
ENDBRANCH  14  24
TORSDOF 10
ENDMDL
MODEL 4
REMARK VINA RESULT:      -6.1     31.193     35.385
REMARK  Name = 11882931
REMARK  14 active torsions:
REMARK  status: ('A' for Active; 'I' for Inactive)
REMARK    1  A    between atoms: O_2  and  C_16
REMARK    2  A    between atoms: O_3  and  C_21
REMARK    3  A    between atoms: O_6  and  C_29
REMARK    4  A    between atoms: O_6  and  C_33
REMARK    5  A    between atoms: O_7  and  C_36
REMARK    6  A    between atoms: O_7  and  C_37
REMARK    7  A    between atoms: N_9  and  C_27
REMARK    8  A    between atoms: C_11  and  C_19
REMARK    9  A    between atoms: C_13  and  C_21
REMARK   10  A    between atoms: C_13  and  C_22
REMARK   11  A    between atoms: C_14  and  C_24
REMARK   12  A    between atoms: C_24  and  C_25
REMARK   13  A    between atoms: C_27  and  C_29
REMARK   14  A    between atoms: C_28  and  C_30
REMARK                            x       y       z     vdW  Elec       q    Type
REMARK                         _______ _______ _______ _____ _____    ______ ____
ROOT
ATOM      1  S   UNL     1      17.587   5.960  19.585  0.00  0.00    -0.057 S 
ATOM      5  O   UNL     1      21.268   8.156  21.402  0.00  0.00    -0.270 OA
ATOM      8  N   UNL     1      18.365   8.084  20.838  0.00  0.00    -0.229 NA
ATOM     10  N   UNL     1      20.061   6.462  20.293  0.00  0.00    -0.261 N 
ATOM     11  C   UNL     1      14.785   9.464  20.456  0.00  0.00    -0.019 C 
ATOM     12  C   UNL     1      14.136   8.010  20.499  0.00  0.00    +0.011 C 
ATOM     13  C   UNL     1      12.580   7.914  20.255  0.00  0.00    +0.021 C 
ATOM     14  C   UNL     1      16.223   9.383  21.145  0.00  0.00    +0.054 C 
ATOM     15  C   UNL     1      13.905  10.446  21.272  0.00  0.00    +0.010 C 
ATOM     16  C   UNL     1      11.859   8.993  21.111  0.00  0.00    +0.123 C 
ATOM     17  C   UNL     1      14.966   6.992  19.665  0.00  0.00    +0.049 C 
ATOM     18  C   UNL     1      12.427  10.394  20.916  0.00  0.00    +0.032 C 
ATOM     19  C   UNL     1      14.935  10.012  19.015  0.00  0.00    +0.012 C 
ATOM     20  C   UNL     1      17.001   8.195  20.638  0.00  0.00    +0.058 A 
ATOM     22  C   UNL     1      12.076   6.526  20.741  0.00  0.00    +0.016 C 
ATOM     23  C   UNL     1      16.415   7.125  19.993  0.00  0.00    +0.015 A 
ATOM     26  C   UNL     1      18.782   6.951  20.318  0.00  0.00    +0.165 A 
ATOM     28  C   UNL     1      21.207   7.076  20.824  0.00  0.00    +0.250 C 
ATOM     41  H   UNL     1      20.131   5.539  19.876  0.00  0.00    +0.157 HD
ENDROOT
BRANCH  28  30
ATOM     30  C   UNL     1      22.469   6.303  20.682  0.00  0.00    +0.037 A 
ATOM     31  C   UNL     1      22.409   4.925  20.686  0.00  0.00    +0.016 A 
ATOM     32  C   UNL     1      23.658   6.989  20.550  0.00  0.00    +0.016 A 
ATOM     34  C   UNL     1      23.592   4.200  20.551  0.00  0.00    +0.046 A 
ATOM     35  C   UNL     1      24.841   6.264  20.415  0.00  0.00    +0.046 A 
ATOM     36  C   UNL     1      24.809   4.869  20.417  0.00  0.00    +0.120 A 
BRANCH  36   7
ATOM      7  O   UNL     1      25.964   4.161  20.287  0.00  0.00    -0.495 OA
ATOM     37  C   UNL     1      25.906   2.765  20.581  0.00  0.00    +0.277 C 
ENDBRANCH  36   7
ENDBRANCH  28  30
BRANCH  16   2
ATOM      2  O   UNL     1      10.463   9.018  20.816  0.00  0.00    -0.391 OA
ATOM     38  H   UNL     1      10.358   8.972  19.852  0.00  0.00    +0.210 HD
ENDBRANCH  16   2
BRANCH  13  21
ATOM     21  C   UNL     1      12.157   8.014  18.773  0.00  0.00    +0.165 C 
BRANCH  21   3
ATOM      3  O   UNL     1      12.026   6.702  18.273  0.00  0.00    -0.394 OA
ATOM     39  H   UNL     1      11.080   6.529  18.126  0.00  0.00    +0.209 HD
ENDBRANCH  21   3
ENDBRANCH  13  21
BRANCH  14  24
ATOM     24  C   UNL     1      17.048  10.674  21.056  0.00  0.00    +0.106 C 
BRANCH  24  25
ATOM      4  O   UNL     1      16.871  11.817  23.182  0.00  0.00    -0.276 OA
ATOM      9  N   UNL     1      18.823  10.670  22.655  0.00  0.00    -0.313 N 
ATOM     25  C   UNL     1      17.537  11.129  22.411  0.00  0.00    +0.214 C 
ATOM     40  H   UNL     1      19.277  10.061  21.981  0.00  0.00    +0.149 HD
BRANCH   9  27
ATOM     27  C   UNL     1      19.546  10.955  23.874  0.00  0.00    +0.132 C 
BRANCH  27  29
ATOM     29  C   UNL     1      20.505  12.118  23.694  0.00  0.00    +0.178 C 
BRANCH  29   6
ATOM      6  O   UNL     1      20.125  13.181  24.557  0.00  0.00    -0.381 OA
ATOM     33  C   UNL     1      19.429  14.200  23.852  0.00  0.00    +0.194 C 
ENDBRANCH  29   6
ENDBRANCH  27  29
ENDBRANCH   9  27
ENDBRANCH  24  25
ENDBRANCH  14  24
TORSDOF 10
ENDMDL
MODEL 5
REMARK VINA RESULT:      -6.0     30.735     34.747
REMARK  Name = 11882931
REMARK  14 active torsions:
REMARK  status: ('A' for Active; 'I' for Inactive)
REMARK    1  A    between atoms: O_2  and  C_16
REMARK    2  A    between atoms: O_3  and  C_21
REMARK    3  A    between atoms: O_6  and  C_29
REMARK    4  A    between atoms: O_6  and  C_33
REMARK    5  A    between atoms: O_7  and  C_36
REMARK    6  A    between atoms: O_7  and  C_37
REMARK    7  A    between atoms: N_9  and  C_27
REMARK    8  A    between atoms: C_11  and  C_19
REMARK    9  A    between atoms: C_13  and  C_21
REMARK   10  A    between atoms: C_13  and  C_22
REMARK   11  A    between atoms: C_14  and  C_24
REMARK   12  A    between atoms: C_24  and  C_25
REMARK   13  A    between atoms: C_27  and  C_29
REMARK   14  A    between atoms: C_28  and  C_30
REMARK                            x       y       z     vdW  Elec       q    Type
REMARK                         _______ _______ _______ _____ _____    ______ ____
ROOT
ATOM      1  S   UNL     1      17.957   6.151  20.100  0.00  0.00    -0.057 S 
ATOM      5  O   UNL     1      20.831   8.593  22.829  0.00  0.00    -0.270 OA
ATOM      8  N   UNL     1      18.191   8.294  21.529  0.00  0.00    -0.229 NA
ATOM     10  N   UNL     1      20.109   6.838  21.432  0.00  0.00    -0.261 N 
ATOM     11  C   UNL     1      14.723   9.377  20.239  0.00  0.00    -0.019 C 
ATOM     12  C   UNL     1      14.217   7.873  20.102  0.00  0.00    +0.011 C 
ATOM     13  C   UNL     1      12.793   7.654  19.461  0.00  0.00    +0.021 C 
ATOM     14  C   UNL     1      15.936   9.397  21.278  0.00  0.00    +0.054 C 
ATOM     15  C   UNL     1      13.578  10.256  20.806  0.00  0.00    +0.010 C 
ATOM     16  C   UNL     1      11.781   8.641  20.108  0.00  0.00    +0.123 C 
ATOM     17  C   UNL     1      15.323   6.954  19.505  0.00  0.00    +0.049 C 
ATOM     18  C   UNL     1      12.253  10.090  20.077  0.00  0.00    +0.032 C 
ATOM     19  C   UNL     1      15.190   9.980  18.891  0.00  0.00    +0.012 C 
ATOM     20  C   UNL     1      16.921   8.295  20.982  0.00  0.00    +0.058 A 
ATOM     22  C   UNL     1      12.307   6.213  19.788  0.00  0.00    +0.016 C 
ATOM     23  C   UNL     1      16.620   7.200  20.199  0.00  0.00    +0.015 A 
ATOM     26  C   UNL     1      18.828   7.217  21.127  0.00  0.00    +0.165 A 
ATOM     28  C   UNL     1      21.019   7.531  22.247  0.00  0.00    +0.250 C 
ATOM     41  H   UNL     1      20.366   5.938  21.040  0.00  0.00    +0.157 HD
ENDROOT
BRANCH  28  30
ATOM     30  C   UNL     1      22.339   6.871  22.432  0.00  0.00    +0.037 A 
ATOM     31  C   UNL     1      23.349   7.140  21.533  0.00  0.00    +0.016 A 
ATOM     32  C   UNL     1      22.509   6.012  23.497  0.00  0.00    +0.016 A 
ATOM     34  C   UNL     1      24.587   6.522  21.708  0.00  0.00    +0.046 A 
ATOM     35  C   UNL     1      23.747   5.394  23.672  0.00  0.00    +0.046 A 
ATOM     36  C   UNL     1      24.786   5.648  22.777  0.00  0.00    +0.120 A 
BRANCH  36   7
ATOM      7  O   UNL     1      25.994   5.044  22.945  0.00  0.00    -0.495 OA
ATOM     37  C   UNL     1      26.437   4.176  21.902  0.00  0.00    +0.277 C 
ENDBRANCH  36   7
ENDBRANCH  28  30
BRANCH  16   2
ATOM      2  O   UNL     1      10.512   8.556  19.460  0.00  0.00    -0.391 OA
ATOM     38  H   UNL     1      10.260   9.449  19.175  0.00  0.00    +0.210 HD
ENDBRANCH  16   2
BRANCH  13  21
ATOM     21  C   UNL     1      12.760   7.762  17.921  0.00  0.00    +0.165 C 
BRANCH  21   3
ATOM      3  O   UNL     1      11.703   6.953  17.453  0.00  0.00    -0.394 OA
ATOM     39  H   UNL     1      11.645   6.172  18.029  0.00  0.00    +0.209 HD
ENDBRANCH  21   3
ENDBRANCH  13  21
BRANCH  14  24
ATOM     24  C   UNL     1      16.636  10.755  21.416  0.00  0.00    +0.106 C 
BRANCH  24  25
ATOM      4  O   UNL     1      15.925  12.862  22.371  0.00  0.00    -0.276 OA
ATOM      9  N   UNL     1      15.418  10.876  23.468  0.00  0.00    -0.313 N 
ATOM     25  C   UNL     1      15.967  11.636  22.445  0.00  0.00    +0.214 C 
ATOM     40  H   UNL     1      15.455   9.863  23.418  0.00  0.00    +0.149 HD
BRANCH   9  27
ATOM     27  C   UNL     1      14.718  11.454  24.593  0.00  0.00    +0.132 C 
BRANCH  27  29
ATOM     29  C   UNL     1      13.251  11.684  24.278  0.00  0.00    +0.178 C 
BRANCH  29   6
ATOM      6  O   UNL     1      12.530  11.863  25.489  0.00  0.00    -0.381 OA
ATOM     33  C   UNL     1      12.539  13.223  25.904  0.00  0.00    +0.194 C 
ENDBRANCH  29   6
ENDBRANCH  27  29
ENDBRANCH   9  27
ENDBRANCH  24  25
ENDBRANCH  14  24
TORSDOF 10
ENDMDL
MODEL 6
REMARK VINA RESULT:      -6.0      5.246      9.667
REMARK  Name = 11882931
REMARK  14 active torsions:
REMARK  status: ('A' for Active; 'I' for Inactive)
REMARK    1  A    between atoms: O_2  and  C_16
REMARK    2  A    between atoms: O_3  and  C_21
REMARK    3  A    between atoms: O_6  and  C_29
REMARK    4  A    between atoms: O_6  and  C_33
REMARK    5  A    between atoms: O_7  and  C_36
REMARK    6  A    between atoms: O_7  and  C_37
REMARK    7  A    between atoms: N_9  and  C_27
REMARK    8  A    between atoms: C_11  and  C_19
REMARK    9  A    between atoms: C_13  and  C_21
REMARK   10  A    between atoms: C_13  and  C_22
REMARK   11  A    between atoms: C_14  and  C_24
REMARK   12  A    between atoms: C_24  and  C_25
REMARK   13  A    between atoms: C_27  and  C_29
REMARK   14  A    between atoms: C_28  and  C_30
REMARK                            x       y       z     vdW  Elec       q    Type
REMARK                         _______ _______ _______ _____ _____    ______ ____
ROOT
ATOM      1  S   UNL     1      -5.704 -10.789  12.634  0.00  0.00    -0.057 S 
ATOM      5  O   UNL     1      -9.116  -8.491  10.454  0.00  0.00    -0.270 OA
ATOM      8  N   UNL     1      -7.991  -9.622  12.945  0.00  0.00    -0.229 NA
ATOM     10  N   UNL     1      -7.078  -9.646  10.715  0.00  0.00    -0.261 N 
ATOM     11  C   UNL     1      -7.980 -10.861  16.597  0.00  0.00    -0.019 C 
ATOM     12  C   UNL     1      -6.391 -10.805  16.694  0.00  0.00    +0.011 C 
ATOM     13  C   UNL     1      -5.737 -11.349  18.021  0.00  0.00    +0.021 C 
ATOM     14  C   UNL     1      -8.437  -9.889  15.414  0.00  0.00    +0.054 C 
ATOM     15  C   UNL     1      -8.596 -10.343  17.922  0.00  0.00    +0.010 C 
ATOM     16  C   UNL     1      -6.501 -10.770  19.245  0.00  0.00    +0.123 C 
ATOM     17  C   UNL     1      -5.723 -11.346  15.396  0.00  0.00    +0.049 C 
ATOM     18  C   UNL     1      -8.007 -10.985  19.169  0.00  0.00    +0.032 C 
ATOM     19  C   UNL     1      -8.515 -12.289  16.325  0.00  0.00    +0.012 C 
ATOM     20  C   UNL     1      -7.599 -10.106  14.180  0.00  0.00    +0.058 A 
ATOM     22  C   UNL     1      -4.270 -10.839  18.108  0.00  0.00    +0.016 C 
ATOM     23  C   UNL     1      -6.377 -10.746  14.197  0.00  0.00    +0.015 A 
ATOM     26  C   UNL     1      -7.074  -9.930  12.055  0.00  0.00    +0.165 A 
ATOM     28  C   UNL     1      -8.075  -8.958  10.005  0.00  0.00    +0.250 C 
ATOM     41  H   UNL     1      -6.234  -9.946  10.238  0.00  0.00    +0.157 HD
ENDROOT
BRANCH  28  30
ATOM     30  C   UNL     1      -7.805  -8.763   8.556  0.00  0.00    +0.037 A 
ATOM     31  C   UNL     1      -8.404  -7.706   7.904  0.00  0.00    +0.016 A 
ATOM     32  C   UNL     1      -6.964  -9.645   7.912  0.00  0.00    +0.016 A 
ATOM     34  C   UNL     1      -8.149  -7.522   6.545  0.00  0.00    +0.046 A 
ATOM     35  C   UNL     1      -6.709  -9.462   6.553  0.00  0.00    +0.046 A 
ATOM     36  C   UNL     1      -7.303  -8.400   5.869  0.00  0.00    +0.120 A 
BRANCH  36   7
ATOM      7  O   UNL     1      -7.056  -8.222   4.542  0.00  0.00    -0.495 OA
ATOM     37  C   UNL     1      -8.189  -8.124   3.679  0.00  0.00    +0.277 C 
ENDBRANCH  36   7
ENDBRANCH  28  30
BRANCH  16   2
ATOM      2  O   UNL     1      -6.014 -11.343  20.458  0.00  0.00    -0.391 OA
ATOM     38  H   UNL     1      -6.320 -10.791  21.196  0.00  0.00    +0.210 HD
ENDBRANCH  16   2
BRANCH  13  21
ATOM     21  C   UNL     1      -5.646 -12.888  18.106  0.00  0.00    +0.165 C 
BRANCH  21   3
ATOM      3  O   UNL     1      -4.381 -13.218  18.635  0.00  0.00    -0.394 OA
ATOM     39  H   UNL     1      -4.160 -14.120  18.347  0.00  0.00    +0.209 HD
ENDBRANCH  21   3
ENDBRANCH  13  21
BRANCH  14  24
ATOM     24  C   UNL     1      -9.936  -9.938  15.091  0.00  0.00    +0.106 C 
BRANCH  24  25
ATOM      4  O   UNL     1     -11.649  -8.875  16.430  0.00  0.00    -0.276 OA
ATOM      9  N   UNL     1     -10.129  -7.562  15.260  0.00  0.00    -0.313 N 
ATOM     25  C   UNL     1     -10.682  -8.763  15.681  0.00  0.00    +0.214 C 
ATOM     40  H   UNL     1      -9.295  -7.567  14.682  0.00  0.00    +0.149 HD
BRANCH   9  27
ATOM     27  C   UNL     1     -10.640  -6.273  15.664  0.00  0.00    +0.132 C 
BRANCH  27  29
ATOM     29  C   UNL     1     -11.672  -5.749  14.682  0.00  0.00    +0.178 C 
BRANCH  29   6
ATOM      6  O   UNL     1     -12.960  -5.796  15.279  0.00  0.00    -0.381 OA
ATOM     33  C   UNL     1     -13.798  -6.747  14.637  0.00  0.00    +0.194 C 
ENDBRANCH  29   6
ENDBRANCH  27  29
ENDBRANCH   9  27
ENDBRANCH  24  25
ENDBRANCH  14  24
TORSDOF 10
ENDMDL
MODEL 7
REMARK VINA RESULT:      -6.0     27.550     31.472
REMARK  Name = 11882931
REMARK  14 active torsions:
REMARK  status: ('A' for Active; 'I' for Inactive)
REMARK    1  A    between atoms: O_2  and  C_16
REMARK    2  A    between atoms: O_3  and  C_21
REMARK    3  A    between atoms: O_6  and  C_29
REMARK    4  A    between atoms: O_6  and  C_33
REMARK    5  A    between atoms: O_7  and  C_36
REMARK    6  A    between atoms: O_7  and  C_37
REMARK    7  A    between atoms: N_9  and  C_27
REMARK    8  A    between atoms: C_11  and  C_19
REMARK    9  A    between atoms: C_13  and  C_21
REMARK   10  A    between atoms: C_13  and  C_22
REMARK   11  A    between atoms: C_14  and  C_24
REMARK   12  A    between atoms: C_24  and  C_25
REMARK   13  A    between atoms: C_27  and  C_29
REMARK   14  A    between atoms: C_28  and  C_30
REMARK                            x       y       z     vdW  Elec       q    Type
REMARK                         _______ _______ _______ _____ _____    ______ ____
ROOT
ATOM      1  S   UNL     1      11.233   3.785   2.047  0.00  0.00    -0.057 S 
ATOM      5  O   UNL     1       9.151   7.142   4.510  0.00  0.00    -0.270 OA
ATOM      8  N   UNL     1      10.047   6.078   1.900  0.00  0.00    -0.229 NA
ATOM     10  N   UNL     1      10.274   5.112   4.096  0.00  0.00    -0.261 N 
ATOM     11  C   UNL     1      10.944   6.154  -1.850  0.00  0.00    -0.019 C 
ATOM     12  C   UNL     1      10.877   4.569  -1.979  0.00  0.00    +0.011 C 
ATOM     13  C   UNL     1      11.296   3.946  -3.366  0.00  0.00    +0.021 C 
ATOM     14  C   UNL     1      10.086   6.582  -0.572  0.00  0.00    +0.054 C 
ATOM     15  C   UNL     1      10.307   6.802  -3.107  0.00  0.00    +0.010 C 
ATOM     16  C   UNL     1      10.607   4.738  -4.513  0.00  0.00    +0.123 C 
ATOM     17  C   UNL     1      11.534   3.870  -0.752  0.00  0.00    +0.049 C 
ATOM     18  C   UNL     1      10.831   6.243  -4.421  0.00  0.00    +0.032 C 
ATOM     19  C   UNL     1      12.392   6.684  -1.698  0.00  0.00    +0.012 C 
ATOM     20  C   UNL     1      10.414   5.716   0.616  0.00  0.00    +0.058 A 
ATOM     22  C   UNL     1      10.777   2.481  -3.440  0.00  0.00    +0.016 C 
ATOM     23  C   UNL     1      11.048   4.495   0.512  0.00  0.00    +0.015 A 
ATOM     26  C   UNL     1      10.434   5.140   2.735  0.00  0.00    +0.165 A 
ATOM     28  C   UNL     1       9.656   6.091   4.890  0.00  0.00    +0.250 C 
ATOM     41  H   UNL     1      10.615   4.257   4.523  0.00  0.00    +0.157 HD
ENDROOT
BRANCH  28  30
ATOM     30  C   UNL     1       9.594   5.787   6.344  0.00  0.00    +0.037 A 
ATOM     31  C   UNL     1       9.933   4.521   6.774  0.00  0.00    +0.016 A 
ATOM     32  C   UNL     1       9.200   6.781   7.215  0.00  0.00    +0.016 A 
ATOM     34  C   UNL     1       9.876   4.237   8.138  0.00  0.00    +0.046 A 
ATOM     35  C   UNL     1       9.143   6.497   8.579  0.00  0.00    +0.046 A 
ATOM     36  C   UNL     1       9.480   5.224   9.041  0.00  0.00    +0.120 A 
BRANCH  36   7
ATOM      7  O   UNL     1       9.423   4.945  10.371  0.00  0.00    -0.495 OA
ATOM     37  C   UNL     1       8.182   4.455  10.879  0.00  0.00    +0.277 C 
ENDBRANCH  36   7
ENDBRANCH  28  30
BRANCH  16   2
ATOM      2  O   UNL     1      11.066   4.281  -5.785  0.00  0.00    -0.391 OA
ATOM     38  H   UNL     1      11.156   5.053  -6.367  0.00  0.00    +0.210 HD
ENDBRANCH  16   2
BRANCH  13  21
ATOM     21  C   UNL     1      12.820   3.858  -3.594  0.00  0.00    +0.165 C 
BRANCH  21   3
ATOM      3  O   UNL     1      13.089   2.642  -4.257  0.00  0.00    -0.394 OA
ATOM     39  H   UNL     1      12.500   1.962  -3.888  0.00  0.00    +0.209 HD
ENDBRANCH  21   3
ENDBRANCH  13  21
BRANCH  14  24
ATOM     24  C   UNL     1      10.166   8.074  -0.219  0.00  0.00    +0.106 C 
BRANCH  24  25
ATOM      4  O   UNL     1       7.960   8.962  -0.670  0.00  0.00    -0.276 OA
ATOM      9  N   UNL     1       8.685   8.753   1.529  0.00  0.00    -0.313 N 
ATOM     25  C   UNL     1       8.816   8.642   0.151  0.00  0.00    +0.214 C 
ATOM     40  H   UNL     1       9.426   8.413   2.134  0.00  0.00    +0.149 HD
BRANCH   9  27
ATOM     27  C   UNL     1       7.498   9.269   2.170  0.00  0.00    +0.132 C 
BRANCH  27  29
ATOM     29  C   UNL     1       7.568  10.776   2.341  0.00  0.00    +0.178 C 
BRANCH  29   6
ATOM      6  O   UNL     1       6.365  11.239   2.939  0.00  0.00    -0.381 OA
ATOM     33  C   UNL     1       5.427  10.185   3.108  0.00  0.00    +0.194 C 
ENDBRANCH  29   6
ENDBRANCH  27  29
ENDBRANCH   9  27
ENDBRANCH  24  25
ENDBRANCH  14  24
TORSDOF 10
ENDMDL
MODEL 8
REMARK VINA RESULT:      -5.9     31.632     35.027
REMARK  Name = 11882931
REMARK  14 active torsions:
REMARK  status: ('A' for Active; 'I' for Inactive)
REMARK    1  A    between atoms: O_2  and  C_16
REMARK    2  A    between atoms: O_3  and  C_21
REMARK    3  A    between atoms: O_6  and  C_29
REMARK    4  A    between atoms: O_6  and  C_33
REMARK    5  A    between atoms: O_7  and  C_36
REMARK    6  A    between atoms: O_7  and  C_37
REMARK    7  A    between atoms: N_9  and  C_27
REMARK    8  A    between atoms: C_11  and  C_19
REMARK    9  A    between atoms: C_13  and  C_21
REMARK   10  A    between atoms: C_13  and  C_22
REMARK   11  A    between atoms: C_14  and  C_24
REMARK   12  A    between atoms: C_24  and  C_25
REMARK   13  A    between atoms: C_27  and  C_29
REMARK   14  A    between atoms: C_28  and  C_30
REMARK                            x       y       z     vdW  Elec       q    Type
REMARK                         _______ _______ _______ _____ _____    ______ ____
ROOT
ATOM      1  S   UNL     1      19.068   5.129  19.715  0.00  0.00    -0.057 S 
ATOM      5  O   UNL     1      16.360   8.776  20.733  0.00  0.00    -0.270 OA
ATOM      8  N   UNL     1      18.924   7.338  21.053  0.00  0.00    -0.229 NA
ATOM     10  N   UNL     1      16.995   6.734  19.741  0.00  0.00    -0.261 N 
ATOM     11  C   UNL     1      22.325   6.447  22.638  0.00  0.00    -0.019 C 
ATOM     12  C   UNL     1      22.813   5.663  21.340  0.00  0.00    +0.011 C 
ATOM     13  C   UNL     1      24.200   4.917  21.435  0.00  0.00    +0.021 C 
ATOM     14  C   UNL     1      21.170   7.459  22.198  0.00  0.00    +0.054 C 
ATOM     15  C   UNL     1      23.504   7.272  23.216  0.00  0.00    +0.010 C 
ATOM     16  C   UNL     1      25.251   5.867  22.076  0.00  0.00    +0.123 C 
ATOM     17  C   UNL     1      21.671   4.792  20.739  0.00  0.00    +0.049 C 
ATOM     18  C   UNL     1      24.787   6.474  23.394  0.00  0.00    +0.032 C 
ATOM     19  C   UNL     1      21.789   5.504  23.744  0.00  0.00    +0.012 C 
ATOM     20  C   UNL     1      20.163   6.777  21.306  0.00  0.00    +0.058 A 
ATOM     22  C   UNL     1      24.693   4.582  19.999  0.00  0.00    +0.016 C 
ATOM     23  C   UNL     1      20.415   5.591  20.648  0.00  0.00    +0.015 A 
ATOM     26  C   UNL     1      18.260   6.552  20.235  0.00  0.00    +0.165 A 
ATOM     28  C   UNL     1      16.134   7.811  20.011  0.00  0.00    +0.250 C 
ATOM     41  H   UNL     1      16.711   6.014  19.086  0.00  0.00    +0.157 HD
ENDROOT
BRANCH  28  30
ATOM     30  C   UNL     1      14.822   7.768  19.313  0.00  0.00    +0.037 A 
ATOM     31  C   UNL     1      14.643   8.542  18.186  0.00  0.00    +0.016 A 
ATOM     32  C   UNL     1      13.828   6.956  19.815  0.00  0.00    +0.016 A 
ATOM     34  C   UNL     1      13.413   8.501  17.531  0.00  0.00    +0.046 A 
ATOM     35  C   UNL     1      12.598   6.914  19.160  0.00  0.00    +0.046 A 
ATOM     36  C   UNL     1      12.389   7.688  18.017  0.00  0.00    +0.120 A 
BRANCH  36   7
ATOM      7  O   UNL     1      11.189   7.650  17.379  0.00  0.00    -0.495 OA
ATOM     37  C   UNL     1      10.868   8.754  16.532  0.00  0.00    +0.277 C 
ENDBRANCH  36   7
ENDBRANCH  28  30
BRANCH  16   2
ATOM      2  O   UNL     1      26.482   5.180  22.293  0.00  0.00    -0.391 OA
ATOM     38  H   UNL     1      27.200   5.730  21.940  0.00  0.00    +0.210 HD
ENDBRANCH  16   2
BRANCH  13  21
ATOM     21  C   UNL     1      24.150   3.567  22.182  0.00  0.00    +0.165 C 
BRANCH  21   3
ATOM      3  O   UNL     1      25.011   2.671  21.514  0.00  0.00    -0.394 OA
ATOM     39  H   UNL     1      24.849   1.779  21.865  0.00  0.00    +0.209 HD
ENDBRANCH  21   3
ENDBRANCH  13  21
BRANCH  14  24
ATOM     24  C   UNL     1      20.486   8.192  23.359  0.00  0.00    +0.106 C 
BRANCH  24  25
ATOM      4  O   UNL     1      21.108  10.523  23.163  0.00  0.00    -0.276 OA
ATOM      9  N   UNL     1      18.945   9.863  22.624  0.00  0.00    -0.313 N 
ATOM     25  C   UNL     1      20.249   9.651  23.048  0.00  0.00    +0.214 C 
ATOM     40  H   UNL     1      18.318   9.073  22.508  0.00  0.00    +0.149 HD
BRANCH   9  27
ATOM     27  C   UNL     1      18.434  11.165  22.261  0.00  0.00    +0.132 C 
BRANCH  27  29
ATOM     29  C   UNL     1      18.657  11.460  20.789  0.00  0.00    +0.178 C 
BRANCH  29   6
ATOM      6  O   UNL     1      19.801  12.291  20.642  0.00  0.00    -0.381 OA
ATOM     33  C   UNL     1      20.602  11.884  19.540  0.00  0.00    +0.194 C 
ENDBRANCH  29   6
ENDBRANCH  27  29
ENDBRANCH   9  27
ENDBRANCH  24  25
ENDBRANCH  14  24
TORSDOF 10
ENDMDL
MODEL 9
REMARK VINA RESULT:      -5.9     30.847     34.959
REMARK  Name = 11882931
REMARK  14 active torsions:
REMARK  status: ('A' for Active; 'I' for Inactive)
REMARK    1  A    between atoms: O_2  and  C_16
REMARK    2  A    between atoms: O_3  and  C_21
REMARK    3  A    between atoms: O_6  and  C_29
REMARK    4  A    between atoms: O_6  and  C_33
REMARK    5  A    between atoms: O_7  and  C_36
REMARK    6  A    between atoms: O_7  and  C_37
REMARK    7  A    between atoms: N_9  and  C_27
REMARK    8  A    between atoms: C_11  and  C_19
REMARK    9  A    between atoms: C_13  and  C_21
REMARK   10  A    between atoms: C_13  and  C_22
REMARK   11  A    between atoms: C_14  and  C_24
REMARK   12  A    between atoms: C_24  and  C_25
REMARK   13  A    between atoms: C_27  and  C_29
REMARK   14  A    between atoms: C_28  and  C_30
REMARK                            x       y       z     vdW  Elec       q    Type
REMARK                         _______ _______ _______ _____ _____    ______ ____
ROOT
ATOM      1  S   UNL     1      16.818   6.130  20.397  0.00  0.00    -0.057 S 
ATOM      5  O   UNL     1      21.017   7.672  21.690  0.00  0.00    -0.270 OA
ATOM      8  N   UNL     1      18.110   8.135  21.399  0.00  0.00    -0.229 NA
ATOM     10  N   UNL     1      19.403   6.181  20.836  0.00  0.00    -0.261 N 
ATOM     11  C   UNL     1      14.834  10.162  21.231  0.00  0.00    -0.019 C 
ATOM     12  C   UNL     1      13.930   8.869  21.451  0.00  0.00    +0.011 C 
ATOM     13  C   UNL     1      12.368   9.064  21.357  0.00  0.00    +0.021 C 
ATOM     14  C   UNL     1      16.296   9.844  21.792  0.00  0.00    +0.054 C 
ATOM     15  C   UNL     1      14.246  11.346  22.041  0.00  0.00    +0.010 C 
ATOM     16  C   UNL     1      11.957  10.314  22.184  0.00  0.00    +0.123 C 
ATOM     17  C   UNL     1      14.463   7.657  20.631  0.00  0.00    +0.049 C 
ATOM     18  C   UNL     1      12.755  11.561  21.825  0.00  0.00    +0.032 C 
ATOM     19  C   UNL     1      14.933  10.579  19.743  0.00  0.00    +0.012 C 
ATOM     20  C   UNL     1      16.778   8.498  21.315  0.00  0.00    +0.058 A 
ATOM     22  C   UNL     1      11.665   7.834  21.998  0.00  0.00    +0.016 C 
ATOM     23  C   UNL     1      15.937   7.525  20.814  0.00  0.00    +0.015 A 
ATOM     26  C   UNL     1      18.249   6.912  20.937  0.00  0.00    +0.165 A 
ATOM     28  C   UNL     1      20.694   6.591  21.209  0.00  0.00    +0.250 C 
ATOM     41  H   UNL     1      19.254   5.238  20.490  0.00  0.00    +0.157 HD
ENDROOT
BRANCH  28  30
ATOM     30  C   UNL     1      21.765   5.578  21.017  0.00  0.00    +0.037 A 
ATOM     31  C   UNL     1      23.009   5.997  20.596  0.00  0.00    +0.016 A 
ATOM     32  C   UNL     1      21.478   4.252  21.266  0.00  0.00    +0.016 A 
ATOM     34  C   UNL     1      24.013   5.047  20.417  0.00  0.00    +0.046 A 
ATOM     35  C   UNL     1      22.483   3.302  21.087  0.00  0.00    +0.046 A 
ATOM     36  C   UNL     1      23.751   3.699  20.661  0.00  0.00    +0.120 A 
BRANCH  36   7
ATOM      7  O   UNL     1      24.731   2.772  20.484  0.00  0.00    -0.495 OA
ATOM     37  C   UNL     1      25.970   3.232  19.944  0.00  0.00    +0.277 C 
ENDBRANCH  36   7
ENDBRANCH  28  30
BRANCH  16   2
ATOM      2  O   UNL     1      10.567  10.593  22.016  0.00  0.00    -0.391 OA
ATOM     38  H   UNL     1      10.315  10.335  21.115  0.00  0.00    +0.210 HD
ENDBRANCH  16   2
BRANCH  13  21
ATOM     21  C   UNL     1      11.819   9.152  19.916  0.00  0.00    +0.165 C 
BRANCH  21   3
ATOM      3  O   UNL     1      10.602   8.441  19.874  0.00  0.00    -0.394 OA
ATOM     39  H   UNL     1      10.803   7.494  19.963  0.00  0.00    +0.209 HD
ENDBRANCH  21   3
ENDBRANCH  13  21
BRANCH  14  24
ATOM     24  C   UNL     1      17.335  10.940  21.524  0.00  0.00    +0.106 C 
BRANCH  24  25
ATOM      4  O   UNL     1      19.253  11.163  22.982  0.00  0.00    -0.276 OA
ATOM      9  N   UNL     1      17.188  11.979  23.671  0.00  0.00    -0.313 N 
ATOM     25  C   UNL     1      18.057  11.358  22.784  0.00  0.00    +0.214 C 
ATOM     40  H   UNL     1      16.224  12.144  23.399  0.00  0.00    +0.149 HD
BRANCH   9  27
ATOM     27  C   UNL     1      17.602  12.480  24.961  0.00  0.00    +0.132 C 
BRANCH  27  29
ATOM     29  C   UNL     1      16.440  12.537  25.936  0.00  0.00    +0.178 C 
BRANCH  29   6
ATOM      6  O   UNL     1      15.351  11.787  25.417  0.00  0.00    -0.381 OA
ATOM     33  C   UNL     1      14.114  12.459  25.614  0.00  0.00    +0.194 C 
ENDBRANCH  29   6
ENDBRANCH  27  29
ENDBRANCH   9  27
ENDBRANCH  24  25
ENDBRANCH  14  24
TORSDOF 10
ENDMDL
MODEL 10
REMARK VINA RESULT:      -5.9     31.662     35.807
REMARK  Name = 11882931
REMARK  14 active torsions:
REMARK  status: ('A' for Active; 'I' for Inactive)
REMARK    1  A    between atoms: O_2  and  C_16
REMARK    2  A    between atoms: O_3  and  C_21
REMARK    3  A    between atoms: O_6  and  C_29
REMARK    4  A    between atoms: O_6  and  C_33
REMARK    5  A    between atoms: O_7  and  C_36
REMARK    6  A    between atoms: O_7  and  C_37
REMARK    7  A    between atoms: N_9  and  C_27
REMARK    8  A    between atoms: C_11  and  C_19
REMARK    9  A    between atoms: C_13  and  C_21
REMARK   10  A    between atoms: C_13  and  C_22
REMARK   11  A    between atoms: C_14  and  C_24
REMARK   12  A    between atoms: C_24  and  C_25
REMARK   13  A    between atoms: C_27  and  C_29
REMARK   14  A    between atoms: C_28  and  C_30
REMARK                            x       y       z     vdW  Elec       q    Type
REMARK                         _______ _______ _______ _____ _____    ______ ____
ROOT
ATOM      1  S   UNL     1      18.908  -5.329  -1.942  0.00  0.00    -0.057 S 
ATOM      5  O   UNL     1      16.230  -8.888  -3.299  0.00  0.00    -0.270 OA
ATOM      8  N   UNL     1      18.461  -7.860  -1.651  0.00  0.00    -0.229 NA
ATOM     10  N   UNL     1      17.040  -6.676  -3.196  0.00  0.00    -0.261 N 
ATOM     11  C   UNL     1      21.609  -8.028   0.570  0.00  0.00    -0.019 C 
ATOM     12  C   UNL     1      21.416  -6.536   1.092  0.00  0.00    +0.011 C 
ATOM     13  C   UNL     1      22.551  -5.950   2.017  0.00  0.00    +0.021 C 
ATOM     14  C   UNL     1      20.194  -8.554   0.047  0.00  0.00    +0.054 C 
ATOM     15  C   UNL     1      22.062  -8.931   1.746  0.00  0.00    +0.010 C 
ATOM     16  C   UNL     1      22.915  -6.997   3.108  0.00  0.00    +0.123 C 
ATOM     17  C   UNL     1      20.990  -5.581  -0.062  0.00  0.00    +0.049 C 
ATOM     18  C   UNL     1      23.236  -8.372   2.537  0.00  0.00    +0.032 C 
ATOM     19  C   UNL     1      22.652  -8.136  -0.570  0.00  0.00    +0.012 C 
ATOM     20  C   UNL     1      19.526  -7.529  -0.834  0.00  0.00    +0.058 A 
ATOM     22  C   UNL     1      22.007  -4.690   2.749  0.00  0.00    +0.016 C 
ATOM     23  C   UNL     1      19.887  -6.197  -0.854  0.00  0.00    +0.015 A 
ATOM     26  C   UNL     1      18.060  -6.782  -2.287  0.00  0.00    +0.165 A 
ATOM     28  C   UNL     1      16.200  -7.711  -3.641  0.00  0.00    +0.250 C 
ATOM     41  H   UNL     1      16.886  -5.727  -3.519  0.00  0.00    +0.157 HD
ENDROOT
BRANCH  28  30
ATOM     30  C   UNL     1      15.151  -7.305  -4.614  0.00  0.00    +0.037 A 
ATOM     31  C   UNL     1      14.536  -8.278  -5.372  0.00  0.00    +0.016 A 
ATOM     32  C   UNL     1      14.828  -5.969  -4.724  0.00  0.00    +0.016 A 
ATOM     34  C   UNL     1      13.551  -7.897  -6.283  0.00  0.00    +0.046 A 
ATOM     35  C   UNL     1      13.843  -5.588  -5.635  0.00  0.00    +0.046 A 
ATOM     36  C   UNL     1      13.205  -6.552  -6.416  0.00  0.00    +0.120 A 
BRANCH  36   7
ATOM      7  O   UNL     1      12.245  -6.181  -7.306  0.00  0.00    -0.495 OA
ATOM     37  C   UNL     1      11.544  -7.227  -7.978  0.00  0.00    +0.277 C 
ENDBRANCH  36   7
ENDBRANCH  28  30
BRANCH  16   2
ATOM      2  O   UNL     1      24.027  -6.549   3.882  0.00  0.00    -0.391 OA
ATOM     38  H   UNL     1      24.712  -6.233   3.271  0.00  0.00    +0.210 HD
ENDBRANCH  16   2
BRANCH  13  21
ATOM     21  C   UNL     1      23.813  -5.479   1.263  0.00  0.00    +0.165 C 
BRANCH  21   3
ATOM      3  O   UNL     1      24.340  -4.367   1.952  0.00  0.00    -0.394 OA
ATOM     39  H   UNL     1      25.043  -4.685   2.542  0.00  0.00    +0.209 HD
ENDBRANCH  21   3
ENDBRANCH  13  21
BRANCH  14  24
ATOM     24  C   UNL     1      20.235  -9.932  -0.628  0.00  0.00    +0.106 C 
BRANCH  24  25
ATOM      4  O   UNL     1      20.009 -11.986   0.632  0.00  0.00    -0.276 OA
ATOM      9  N   UNL     1      18.147 -10.635   0.298  0.00  0.00    -0.313 N 
ATOM     25  C   UNL     1      19.486 -10.975   0.169  0.00  0.00    +0.214 C 
ATOM     40  H   UNL     1      17.814  -9.751  -0.073  0.00  0.00    +0.149 HD
BRANCH   9  27
ATOM     27  C   UNL     1      17.189 -11.451   1.008  0.00  0.00    +0.132 C 
BRANCH  27  29
ATOM     29  C   UNL     1      16.370 -12.304   0.057  0.00  0.00    +0.178 C 
BRANCH  29   6
ATOM      6  O   UNL     1      15.511 -13.154   0.806  0.00  0.00    -0.381 OA
ATOM     33  C   UNL     1      15.342 -12.683   2.136  0.00  0.00    +0.194 C 
ENDBRANCH  29   6
ENDBRANCH  27  29
ENDBRANCH   9  27
ENDBRANCH  24  25
ENDBRANCH  14  24
TORSDOF 10
ENDMDL
