REMARK  Name = 11912241
REMARK  8 active torsions:
REMARK  status: ('A' for Active; 'I' for Inactive)
REMARK    1  A    between atoms: S_1  and  C_19
REMARK    2  A    between atoms: S_1  and  C_24
REMARK    3  A    between atoms: O_5  and  C_27
REMARK    4  A    between atoms: N_7  and  C_13
REMARK    5  A    between atoms: N_8  and  C_14
REMARK    6  A    between atoms: C_17  and  C_19
REMARK    7  A    between atoms: C_20  and  C_23
REMARK    8  A    between atoms: C_24  and  C_27
REMARK                            x       y       z     vdW  Elec       q    Type
REMARK                         _______ _______ _______ _____ _____    ______ ____
ROOT
ATOM      2  O   UNL     1      -0.372   2.367   1.199  0.00  0.00    -0.370 OA
ATOM      3  O   UNL     1      -1.783   2.922  -1.528  0.00  0.00    -0.370 OA
ATOM     11  C   UNL     1      -1.885   1.859  -0.566  0.00  0.00    +0.171 C 
ATOM     12  C   UNL     1      -0.492   1.611  -0.018  0.00  0.00    +0.171 C 
ATOM     13  C   UNL     1      -2.678   2.315   0.638  0.00  0.00    +0.130 C 
ATOM     14  C   UNL     1       0.426   2.174  -1.077  0.00  0.00    +0.130 C 
ATOM     15  C   UNL     1      -1.623   3.015   1.476  0.00  0.00    +0.185 C 
ATOM     16  C   UNL     1      -0.404   3.293  -1.678  0.00  0.00    +0.185 C 
ENDROOT
BRANCH  14   8
ATOM      8  N   UNL     1       0.707   1.166  -2.075  0.00  0.00    -0.306 N 
ATOM      9  N   UNL     1       2.447   0.275  -0.823  0.00  0.00    -0.214 NA
ATOM     10  N   UNL     1       1.846  -0.651  -2.965  0.00  0.00    -0.223 NA
ATOM     18  C   UNL     1       1.710   0.222  -1.949  0.00  0.00    +0.216 A 
ATOM     20  C   UNL     1       3.416  -0.660  -0.733  0.00  0.00    +0.076 A 
ATOM     21  C   UNL     1       2.833  -1.558  -2.809  0.00  0.00    +0.116 A 
ATOM     22  C   UNL     1       3.658  -1.611  -1.703  0.00  0.00    +0.048 A 
ATOM     32  H   UNL     1       0.115   1.099  -2.896  0.00  0.00    +0.149 HD
BRANCH  20  23
ATOM     23  C   UNL     1       4.208  -0.607   0.473  0.00  0.00    +0.001 A 
ATOM     25  C   UNL     1       4.242  -1.705   1.333  0.00  0.00    +0.010 A 
ATOM     26  C   UNL     1       4.939   0.540   0.778  0.00  0.00    +0.010 A 
ATOM     28  C   UNL     1       5.007  -1.655   2.499  0.00  0.00    +0.001 A 
ATOM     29  C   UNL     1       5.705   0.591   1.943  0.00  0.00    +0.001 A 
ATOM     30  C   UNL     1       5.738  -0.507   2.804  0.00  0.00    +0.000 A 
ENDBRANCH  20  23
ENDBRANCH  14   8
BRANCH  13   7
ATOM      4  O   UNL     1      -5.337   1.215   0.328  0.00  0.00    -0.275 OA
ATOM      7  N   UNL     1      -3.247   1.192   1.344  0.00  0.00    -0.307 N 
ATOM     17  C   UNL     1      -4.537   0.733   1.128  0.00  0.00    +0.223 C 
ATOM     31  H   UNL     1      -2.646   0.687   1.988  0.00  0.00    +0.149 HD
BRANCH  17  19
ATOM     19  C   UNL     1      -4.901  -0.443   2.004  0.00  0.00    +0.165 C 
BRANCH  19   1
ATOM      1  S   UNL     1      -5.288  -1.861   0.952  0.00  0.00    -0.140 S 
BRANCH   1  24
ATOM     24  C   UNL     1      -3.599  -2.393   0.584  0.00  0.00    +0.189 C 
BRANCH  24  27
ATOM      6  O   UNL     1      -4.530  -3.826  -1.116  0.00  0.00    -0.250 OA
ATOM     27  C   UNL     1      -3.638  -3.600  -0.308  0.00  0.00    +0.315 C 
BRANCH  27   5
ATOM      5  O   UNL     1      -2.567  -4.415  -0.135  0.00  0.00    -0.480 OA
ATOM     33  H   UNL     1      -2.601  -5.195  -0.728  0.00  0.00    +0.295 HD
ENDBRANCH  27   5
ENDBRANCH  24  27
ENDBRANCH   1  24
ENDBRANCH  19   1
ENDBRANCH  17  19
ENDBRANCH  13   7
TORSDOF 8
