REMARK  Name = 45360468
REMARK  6 active torsions:
REMARK  status: ('A' for Active; 'I' for Inactive)
REMARK    1  A    between atoms: N_3  and  C_13
REMARK    2  A    between atoms: N_3  and  C_15
REMARK    3  A    between atoms: C_7  and  C_13
REMARK    4  A    between atoms: C_8  and  C_14
REMARK    5  A    between atoms: C_22  and  C_24
REMARK    6  A    between atoms: C_23  and  C_25
REMARK                            x       y       z     vdW  Elec       q    Type
REMARK                         _______ _______ _______ _____ _____    ______ ____
ROOT
ATOM      2  N   UNL     1       1.276   2.703   1.449  0.00  0.00    -0.298 NA
ATOM      6  C   UNL     1       0.325   2.921  -0.966  0.00  0.00    +0.002 C 
ATOM      7  C   UNL     1       2.218   2.091   0.475  0.00  0.00    +0.071 C 
ATOM      8  C   UNL     1      -0.750   2.335  -0.009  0.00  0.00    +0.055 C 
ATOM      9  C   UNL     1       1.581   2.025  -0.930  0.00  0.00    +0.024 C 
ATOM     10  C   UNL     1       0.731   4.295  -0.392  0.00  0.00    +0.019 C 
ATOM     11  C   UNL     1      -0.053   2.048   1.352  0.00  0.00    +0.094 C 
ATOM     12  C   UNL     1       1.114   4.132   1.089  0.00  0.00    +0.085 C 
ENDROOT
BRANCH   8  14
ATOM      4  N   UNL     1      -1.304   0.688  -1.730  0.00  0.00    -0.237 NA
ATOM      5  N   UNL     1      -3.030  -0.964  -1.419  0.00  0.00    -0.229 NA
ATOM     14  C   UNL     1      -1.578   1.154  -0.494  0.00  0.00    +0.050 A 
ATOM     18  C   UNL     1      -2.550   0.621   0.328  0.00  0.00    +0.055 A 
ATOM     22  C   UNL     1      -3.252  -0.448  -0.192  0.00  0.00    +0.110 A 
ATOM     23  C   UNL     1      -2.057  -0.357  -2.124  0.00  0.00    +0.127 A 
ATOM     25  C   UNL     1      -1.782  -0.901  -3.485  0.00  0.00    +0.088 C 
BRANCH  22  24
ATOM      1  O   UNL     1      -4.904  -2.136  -0.073  0.00  0.00    -0.461 OA
ATOM     24  C   UNL     1      -4.294  -1.098   0.557  0.00  0.00    +0.153 A 
ATOM     26  C   UNL     1      -4.835  -0.906   1.808  0.00  0.00    +0.051 A 
ATOM     27  C   UNL     1      -5.842  -1.889   1.955  0.00  0.00    +0.042 A 
ATOM     28  C   UNL     1      -5.845  -2.612   0.784  0.00  0.00    +0.196 A 
ENDBRANCH  22  24
ENDBRANCH   8  14
BRANCH   7  13
ATOM     13  C   UNL     1       2.726   0.724   0.935  0.00  0.00    +0.100 C 
BRANCH  13   3
ATOM      3  N   UNL     1       3.752   0.225   0.034  0.00  0.00    -0.312 NA
ATOM     29  H   UNL     1       4.517   0.898   0.001  0.00  0.00    +0.122 HD
BRANCH   3  15
ATOM     15  C   UNL     1       4.256  -1.073   0.480  0.00  0.00    +0.054 C 
ATOM     16  C   UNL     1       5.647  -1.323  -0.113  0.00  0.00    +0.019 C 
ATOM     17  C   UNL     1       3.275  -2.179   0.074  0.00  0.00    +0.019 C 
ATOM     19  C   UNL     1       6.174  -2.705   0.270  0.00  0.00    +0.002 C 
ATOM     20  C   UNL     1       3.806  -3.560   0.456  0.00  0.00    +0.002 C 
ATOM     21  C   UNL     1       5.196  -3.809  -0.122  0.00  0.00    +0.000 C 
ENDBRANCH   3  15
ENDBRANCH  13   3
ENDBRANCH   7  13
TORSDOF 5
