MODEL 1
REMARK VINA RESULT:      -7.7      0.000      0.000
REMARK  Name = 11884556
REMARK  5 active torsions:
REMARK  status: ('A' for Active; 'I' for Inactive)
REMARK    1  A    between atoms: O_4  and  C_30
REMARK    2  A    between atoms: O_4  and  C_35
REMARK    3  A    between atoms: N_7  and  C_18
REMARK    4  A    between atoms: N_8  and  C_25
REMARK    5  A    between atoms: N_9  and  C_29
REMARK                            x       y       z     vdW  Elec       q    Type
REMARK                         _______ _______ _______ _____ _____    ______ ____
ROOT
ATOM      1  O   UNL     1      -2.705 -10.256  15.904  0.00  0.00    -0.253 OA
ATOM      2  O   UNL     1      -6.533 -11.165  11.314  0.00  0.00    -0.266 OA
ATOM      5  N   UNL     1      -3.105 -12.288  14.856  0.00  0.00    -0.285 N 
ATOM      6  N   UNL     1      -4.394 -11.877  11.928  0.00  0.00    -0.310 N 
ATOM      7  N   UNL     1      -4.600 -11.418  16.469  0.00  0.00    -0.296 N 
ATOM     10  C   UNL     1      -3.976 -14.021  13.258  0.00  0.00    +0.027 C 
ATOM     11  C   UNL     1      -2.081 -12.608  12.601  0.00  0.00    +0.054 C 
ATOM     12  C   UNL     1      -2.624 -14.033  12.559  0.00  0.00    +0.018 C 
ATOM     13  C   UNL     1      -3.842 -13.555  14.720  0.00  0.00    +0.114 C 
ATOM     14  C   UNL     1      -1.871 -12.188  14.065  0.00  0.00    +0.119 C 
ATOM     15  C   UNL     1      -4.937 -13.133  12.460  0.00  0.00    +0.130 C 
ATOM     16  C   UNL     1      -3.018 -11.635  11.912  0.00  0.00    +0.027 A 
ATOM     17  C   UNL     1      -3.421 -11.251  15.752  0.00  0.00    +0.302 C 
ATOM     19  C   UNL     1      -2.532 -10.534  11.315  0.00  0.00    +0.024 A 
ATOM     20  C   UNL     1      -5.315 -10.985  11.342  0.00  0.00    +0.273 A 
ATOM     25  C   UNL     1      -4.736  -9.758  10.709  0.00  0.00    +0.100 A 
ATOM     27  C   UNL     1      -3.411  -9.577  10.703  0.00  0.00    +0.030 A 
ATOM     36  H   UNL     1      -5.243 -12.162  16.245  0.00  0.00    +0.151 HD
ENDROOT
BRANCH  25   8
ATOM      3  O   UNL     1      -6.041 -10.040   8.198  0.00  0.00    -0.252 OA
ATOM      8  N   UNL     1      -5.595  -8.862  10.144  0.00  0.00    -0.265 N 
ATOM      9  N   UNL     1      -7.034  -7.952   8.605  0.00  0.00    -0.266 N 
ATOM     28  C   UNL     1      -6.215  -9.048   8.901  0.00  0.00    +0.308 C 
ATOM     37  H   UNL     1      -5.593  -7.919  10.525  0.00  0.00    +0.157 HD
ATOM     38  H   UNL     1      -7.067  -7.207   9.295  0.00  0.00    +0.156 HD
BRANCH   9  29
ATOM     29  C   UNL     1      -7.828  -7.749   7.452  0.00  0.00    +0.077 A 
ATOM     30  C   UNL     1      -9.043  -7.068   7.536  0.00  0.00    +0.141 A 
ATOM     31  C   UNL     1      -7.387  -8.237   6.222  0.00  0.00    +0.027 A 
ATOM     32  C   UNL     1      -9.816  -6.876   6.392  0.00  0.00    +0.047 A 
ATOM     33  C   UNL     1      -8.160  -8.045   5.077  0.00  0.00    +0.002 A 
ATOM     34  C   UNL     1      -9.374  -7.364   5.162  0.00  0.00    +0.004 A 
BRANCH  30   4
ATOM      4  O   UNL     1      -9.493  -6.583   8.729  0.00  0.00    -0.493 OA
ATOM     35  C   UNL     1      -9.994  -5.249   8.737  0.00  0.00    +0.277 C 
ENDBRANCH  30   4
ENDBRANCH   9  29
ENDBRANCH  25   8
BRANCH   7  18
ATOM     18  C   UNL     1      -5.061 -10.444  17.433  0.00  0.00    +0.074 C 
ATOM     21  C   UNL     1      -5.092 -11.039  18.845  0.00  0.00    +0.022 C 
ATOM     22  C   UNL     1      -6.430  -9.880  17.037  0.00  0.00    +0.022 C 
ATOM     23  C   UNL     1      -6.221 -12.052  19.028  0.00  0.00    +0.002 C 
ATOM     24  C   UNL     1      -7.556 -10.896  17.222  0.00  0.00    +0.002 C 
ATOM     26  C   UNL     1      -7.574 -11.466  18.637  0.00  0.00    +0.000 C 
ENDBRANCH   7  18
TORSDOF 4
ENDMDL
MODEL 2
REMARK VINA RESULT:      -7.5     25.273     28.113
REMARK  Name = 11884556
REMARK  5 active torsions:
REMARK  status: ('A' for Active; 'I' for Inactive)
REMARK    1  A    between atoms: O_4  and  C_30
REMARK    2  A    between atoms: O_4  and  C_35
REMARK    3  A    between atoms: N_7  and  C_18
REMARK    4  A    between atoms: N_8  and  C_25
REMARK    5  A    between atoms: N_9  and  C_29
REMARK                            x       y       z     vdW  Elec       q    Type
REMARK                         _______ _______ _______ _____ _____    ______ ____
ROOT
ATOM      1  O   UNL     1       9.565   8.075   2.899  0.00  0.00    -0.253 OA
ATOM      2  O   UNL     1      13.677   6.565   7.067  0.00  0.00    -0.266 OA
ATOM      5  N   UNL     1       9.119   7.048   4.933  0.00  0.00    -0.285 N 
ATOM      6  N   UNL     1      11.528   7.483   7.033  0.00  0.00    -0.310 N 
ATOM      7  N   UNL     1       9.940   5.820   3.085  0.00  0.00    -0.296 N 
ATOM     10  C   UNL     1       9.411   6.061   7.225  0.00  0.00    +0.027 C 
ATOM     11  C   UNL     1       9.223   8.493   6.966  0.00  0.00    +0.054 C 
ATOM     12  C   UNL     1       8.785   7.311   7.826  0.00  0.00    +0.018 C 
ATOM     13  C   UNL     1       8.947   5.851   5.772  0.00  0.00    +0.114 C 
ATOM     14  C   UNL     1       8.680   8.311   5.539  0.00  0.00    +0.119 C 
ATOM     15  C   UNL     1      10.936   6.172   7.329  0.00  0.00    +0.130 C 
ATOM     16  C   UNL     1      10.733   8.627   6.933  0.00  0.00    +0.027 A 
ATOM     17  C   UNL     1       9.545   7.052   3.592  0.00  0.00    +0.302 C 
ATOM     19  C   UNL     1      11.302   9.835   6.779  0.00  0.00    +0.024 A 
ATOM     20  C   UNL     1      12.935   7.542   6.964  0.00  0.00    +0.273 A 
ATOM     25  C   UNL     1      13.529   8.902   6.768  0.00  0.00    +0.100 A 
ATOM     27  C   UNL     1      12.729   9.972   6.694  0.00  0.00    +0.030 A 
ATOM     36  H   UNL     1      10.045   5.019   3.691  0.00  0.00    +0.151 HD
ENDROOT
BRANCH  25   8
ATOM      3  O   UNL     1      15.135   8.061   4.577  0.00  0.00    -0.252 OA
ATOM      8  N   UNL     1      14.886   9.002   6.681  0.00  0.00    -0.265 N 
ATOM      9  N   UNL     1      16.996   8.812   5.795  0.00  0.00    -0.266 N 
ATOM     28  C   UNL     1      15.634   8.572   5.576  0.00  0.00    +0.308 C 
ATOM     37  H   UNL     1      15.392   9.167   7.547  0.00  0.00    +0.157 HD
ATOM     38  H   UNL     1      17.246   9.243   6.681  0.00  0.00    +0.156 HD
BRANCH   9  29
ATOM     29  C   UNL     1      18.078   8.526   4.930  0.00  0.00    +0.077 A 
ATOM     30  C   UNL     1      19.338   8.220   5.444  0.00  0.00    +0.141 A 
ATOM     31  C   UNL     1      17.875   8.550   3.550  0.00  0.00    +0.027 A 
ATOM     32  C   UNL     1      20.395   7.940   4.579  0.00  0.00    +0.047 A 
ATOM     33  C   UNL     1      18.933   8.270   2.685  0.00  0.00    +0.002 A 
ATOM     34  C   UNL     1      20.193   7.965   3.200  0.00  0.00    +0.004 A 
BRANCH  30   4
ATOM      4  O   UNL     1      19.557   8.191   6.790  0.00  0.00    -0.493 OA
ATOM     35  C   UNL     1      20.289   9.278   7.350  0.00  0.00    +0.277 C 
ENDBRANCH  30   4
ENDBRANCH   9  29
ENDBRANCH  25   8
BRANCH   7  18
ATOM     18  C   UNL     1      10.398   5.656   1.724  0.00  0.00    +0.074 C 
ATOM     21  C   UNL     1      10.473   4.174   1.342  0.00  0.00    +0.022 C 
ATOM     22  C   UNL     1      11.744   6.355   1.507  0.00  0.00    +0.022 C 
ATOM     23  C   UNL     1      11.629   3.451   2.031  0.00  0.00    +0.002 C 
ATOM     24  C   UNL     1      12.898   5.628   2.197  0.00  0.00    +0.002 C 
ATOM     26  C   UNL     1      12.959   4.159   1.793  0.00  0.00    +0.000 C 
ENDBRANCH   7  18
TORSDOF 4
ENDMDL
MODEL 3
REMARK VINA RESULT:      -7.2      5.512     11.536
REMARK  Name = 11884556
REMARK  5 active torsions:
REMARK  status: ('A' for Active; 'I' for Inactive)
REMARK    1  A    between atoms: O_4  and  C_30
REMARK    2  A    between atoms: O_4  and  C_35
REMARK    3  A    between atoms: N_7  and  C_18
REMARK    4  A    between atoms: N_8  and  C_25
REMARK    5  A    between atoms: N_9  and  C_29
REMARK                            x       y       z     vdW  Elec       q    Type
REMARK                         _______ _______ _______ _____ _____    ______ ____
ROOT
ATOM      1  O   UNL     1     -14.839  -4.635  13.818  0.00  0.00    -0.253 OA
ATOM      2  O   UNL     1     -10.576  -8.909  13.488  0.00  0.00    -0.266 OA
ATOM      5  N   UNL     1     -15.106  -6.746  12.889  0.00  0.00    -0.285 N 
ATOM      6  N   UNL     1     -12.862  -8.802  13.958  0.00  0.00    -0.310 N 
ATOM      7  N   UNL     1     -14.031  -5.005  11.703  0.00  0.00    -0.296 N 
ATOM     10  C   UNL     1     -14.661  -9.112  12.167  0.00  0.00    +0.027 C 
ATOM     11  C   UNL     1     -15.320  -8.654  14.486  0.00  0.00    +0.054 C 
ATOM     12  C   UNL     1     -15.530  -9.608  13.313  0.00  0.00    +0.018 C 
ATOM     13  C   UNL     1     -15.052  -7.680  11.753  0.00  0.00    +0.114 C 
ATOM     14  C   UNL     1     -15.795  -7.247  14.086  0.00  0.00    +0.119 C 
ATOM     15  C   UNL     1     -13.189  -9.205  12.585  0.00  0.00    +0.130 C 
ATOM     16  C   UNL     1     -13.866  -8.609  14.912  0.00  0.00    +0.027 A 
ATOM     17  C   UNL     1     -14.669  -5.409  12.870  0.00  0.00    +0.302 C 
ATOM     19  C   UNL     1     -13.542  -8.356  16.191  0.00  0.00    +0.024 A 
ATOM     20  C   UNL     1     -11.494  -8.727  14.289  0.00  0.00    +0.273 A 
ATOM     25  C   UNL     1     -11.176  -8.420  15.719  0.00  0.00    +0.100 A 
ATOM     27  C   UNL     1     -12.169  -8.259  16.600  0.00  0.00    +0.030 A 
ATOM     36  H   UNL     1     -13.780  -5.673  10.990  0.00  0.00    +0.151 HD
ENDROOT
BRANCH  25   8
ATOM      3  O   UNL     1      -9.526 -10.549  16.631  0.00  0.00    -0.252 OA
ATOM      8  N   UNL     1      -9.863  -8.324  16.077  0.00  0.00    -0.265 N 
ATOM      9  N   UNL     1      -7.789  -8.981  16.808  0.00  0.00    -0.266 N 
ATOM     28  C   UNL     1      -9.091  -9.406  16.520  0.00  0.00    +0.308 C 
ATOM     37  H   UNL     1      -9.504  -7.391  16.262  0.00  0.00    +0.157 HD
ATOM     38  H   UNL     1      -7.589  -7.994  16.665  0.00  0.00    +0.156 HD
BRANCH   9  29
ATOM     29  C   UNL     1      -6.706  -9.759  17.280  0.00  0.00    +0.077 A 
ATOM     30  C   UNL     1      -5.648 -10.093  16.433  0.00  0.00    +0.141 A 
ATOM     31  C   UNL     1      -6.702 -10.193  18.605  0.00  0.00    +0.027 A 
ATOM     32  C   UNL     1      -4.588 -10.861  16.912  0.00  0.00    +0.047 A 
ATOM     33  C   UNL     1      -5.641 -10.962  19.084  0.00  0.00    +0.002 A 
ATOM     34  C   UNL     1      -4.584 -11.295  18.238  0.00  0.00    +0.004 A 
BRANCH  30   4
ATOM      4  O   UNL     1      -5.633  -9.678  15.135  0.00  0.00    -0.493 OA
ATOM     35  C   UNL     1      -5.682 -10.690  14.132  0.00  0.00    +0.277 C 
ENDBRANCH  30   4
ENDBRANCH   9  29
ENDBRANCH  25   8
BRANCH   7  18
ATOM     18  C   UNL     1     -13.529  -3.661  11.524  0.00  0.00    +0.074 C 
ATOM     21  C   UNL     1     -14.239  -2.957  10.362  0.00  0.00    +0.022 C 
ATOM     22  C   UNL     1     -12.010  -3.661  11.328  0.00  0.00    +0.022 C 
ATOM     23  C   UNL     1     -13.821  -3.511   9.000  0.00  0.00    +0.002 C 
ATOM     24  C   UNL     1     -11.595  -4.214   9.965  0.00  0.00    +0.002 C 
ATOM     26  C   UNL     1     -12.306  -3.492   8.825  0.00  0.00    +0.000 C 
ENDBRANCH   7  18
TORSDOF 4
ENDMDL
MODEL 4
REMARK VINA RESULT:      -7.1      4.268      7.690
REMARK  Name = 11884556
REMARK  5 active torsions:
REMARK  status: ('A' for Active; 'I' for Inactive)
REMARK    1  A    between atoms: O_4  and  C_30
REMARK    2  A    between atoms: O_4  and  C_35
REMARK    3  A    between atoms: N_7  and  C_18
REMARK    4  A    between atoms: N_8  and  C_25
REMARK    5  A    between atoms: N_9  and  C_29
REMARK                            x       y       z     vdW  Elec       q    Type
REMARK                         _______ _______ _______ _____ _____    ______ ____
ROOT
ATOM      1  O   UNL     1      -6.271 -13.523  14.108  0.00  0.00    -0.253 OA
ATOM      2  O   UNL     1      -7.721  -8.800  17.594  0.00  0.00    -0.266 OA
ATOM      5  N   UNL     1      -4.879 -12.510  15.666  0.00  0.00    -0.285 N 
ATOM      6  N   UNL     1      -6.562 -10.815  17.833  0.00  0.00    -0.310 N 
ATOM      7  N   UNL     1      -5.230 -11.563  13.527  0.00  0.00    -0.296 N 
ATOM     10  C   UNL     1      -4.034 -11.008  17.495  0.00  0.00    +0.027 C 
ATOM     11  C   UNL     1      -5.340 -13.004  18.070  0.00  0.00    +0.054 C 
ATOM     12  C   UNL     1      -4.126 -12.172  18.471  0.00  0.00    +0.018 C 
ATOM     13  C   UNL     1      -3.870 -11.509  16.047  0.00  0.00    +0.114 C 
ATOM     14  C   UNL     1      -5.124 -13.567  16.656  0.00  0.00    +0.119 C 
ATOM     15  C   UNL     1      -5.277 -10.126  17.658  0.00  0.00    +0.130 C 
ATOM     16  C   UNL     1      -6.614 -12.184  18.111  0.00  0.00    +0.027 A 
ATOM     17  C   UNL     1      -5.514 -12.595  14.413  0.00  0.00    +0.302 C 
ATOM     19  C   UNL     1      -7.791 -12.773  18.385  0.00  0.00    +0.024 A 
ATOM     20  C   UNL     1      -7.720 -10.012  17.814  0.00  0.00    +0.273 A 
ATOM     25  C   UNL     1      -9.013 -10.710  18.100  0.00  0.00    +0.100 A 
ATOM     27  C   UNL     1      -9.013 -12.019  18.377  0.00  0.00    +0.030 A 
ATOM     36  H   UNL     1      -4.720 -10.746  13.828  0.00  0.00    +0.151 HD
ENDROOT
BRANCH  25   8
ATOM      3  O   UNL     1     -10.383  -9.815  15.775  0.00  0.00    -0.252 OA
ATOM      8  N   UNL     1     -10.159  -9.972  18.076  0.00  0.00    -0.265 N 
ATOM      9  N   UNL     1     -11.945  -8.817  17.214  0.00  0.00    -0.266 N 
ATOM     28  C   UNL     1     -10.798  -9.555  16.901  0.00  0.00    +0.308 C 
ATOM     37  H   UNL     1     -10.421  -9.502  18.939  0.00  0.00    +0.157 HD
ATOM     38  H   UNL     1     -12.150  -8.688  18.202  0.00  0.00    +0.156 HD
BRANCH   9  29
ATOM     29  C   UNL     1     -12.864  -8.219  16.320  0.00  0.00    +0.077 A 
ATOM     30  C   UNL     1     -12.692  -6.900  15.899  0.00  0.00    +0.141 A 
ATOM     31  C   UNL     1     -13.951  -8.962  15.858  0.00  0.00    +0.027 A 
ATOM     32  C   UNL     1     -13.606  -6.325  15.017  0.00  0.00    +0.047 A 
ATOM     33  C   UNL     1     -14.865  -8.386  14.976  0.00  0.00    +0.002 A 
ATOM     34  C   UNL     1     -14.693  -7.068  14.556  0.00  0.00    +0.004 A 
BRANCH  30   4
ATOM      4  O   UNL     1     -11.637  -6.157  16.339  0.00  0.00    -0.493 OA
ATOM     35  C   UNL     1     -10.458  -6.172  15.539  0.00  0.00    +0.277 C 
ENDBRANCH  30   4
ENDBRANCH   9  29
ENDBRANCH  25   8
BRANCH   7  18
ATOM     18  C   UNL     1      -5.799 -11.508  12.199  0.00  0.00    +0.074 C 
ATOM     21  C   UNL     1      -4.712 -11.279  11.143  0.00  0.00    +0.022 C 
ATOM     22  C   UNL     1      -6.893 -10.439  12.112  0.00  0.00    +0.022 C 
ATOM     23  C   UNL     1      -4.150  -9.858  11.181  0.00  0.00    +0.002 C 
ATOM     24  C   UNL     1      -6.328  -9.019  12.148  0.00  0.00    +0.002 C 
ATOM     26  C   UNL     1      -5.256  -8.812  11.082  0.00  0.00    +0.000 C 
ENDBRANCH   7  18
TORSDOF 4
ENDMDL
MODEL 5
REMARK VINA RESULT:      -7.1      4.554      8.042
REMARK  Name = 11884556
REMARK  5 active torsions:
REMARK  status: ('A' for Active; 'I' for Inactive)
REMARK    1  A    between atoms: O_4  and  C_30
REMARK    2  A    between atoms: O_4  and  C_35
REMARK    3  A    between atoms: N_7  and  C_18
REMARK    4  A    between atoms: N_8  and  C_25
REMARK    5  A    between atoms: N_9  and  C_29
REMARK                            x       y       z     vdW  Elec       q    Type
REMARK                         _______ _______ _______ _____ _____    ______ ____
ROOT
ATOM      1  O   UNL     1      -3.561 -15.140  14.650  0.00  0.00    -0.253 OA
ATOM      2  O   UNL     1      -6.468  -9.876  14.023  0.00  0.00    -0.266 OA
ATOM      5  N   UNL     1      -3.139 -13.545  13.016  0.00  0.00    -0.285 N 
ATOM      6  N   UNL     1      -4.268 -10.647  13.871  0.00  0.00    -0.310 N 
ATOM      7  N   UNL     1      -4.961 -15.042  12.835  0.00  0.00    -0.296 N 
ATOM     10  C   UNL     1      -3.220 -11.424  11.671  0.00  0.00    +0.027 C 
ATOM     11  C   UNL     1      -1.902 -11.499  13.739  0.00  0.00    +0.054 C 
ATOM     12  C   UNL     1      -1.903 -10.993  12.300  0.00  0.00    +0.018 C 
ATOM     13  C   UNL     1      -3.369 -12.957  11.687  0.00  0.00    +0.114 C 
ATOM     14  C   UNL     1      -1.965 -13.036  13.737  0.00  0.00    +0.119 C 
ATOM     15  C   UNL     1      -4.371 -10.730  12.409  0.00  0.00    +0.130 C 
ATOM     16  C   UNL     1      -3.068 -10.935  14.528  0.00  0.00    +0.027 A 
ATOM     17  C   UNL     1      -3.867 -14.611  13.576  0.00  0.00    +0.302 C 
ATOM     19  C   UNL     1      -2.959 -10.740  15.853  0.00  0.00    +0.024 A 
ATOM     20  C   UNL     1      -5.398 -10.162  14.560  0.00  0.00    +0.273 A 
ATOM     25  C   UNL     1      -5.244  -9.982  16.039  0.00  0.00    +0.100 A 
ATOM     27  C   UNL     1      -4.071 -10.255  16.621  0.00  0.00    +0.030 A 
ATOM     36  H   UNL     1      -5.281 -14.523  12.031  0.00  0.00    +0.151 HD
ENDROOT
BRANCH  25   8
ATOM      3  O   UNL     1      -7.484 -11.530  16.859  0.00  0.00    -0.252 OA
ATOM      8  N   UNL     1      -6.319  -9.529  16.745  0.00  0.00    -0.265 N 
ATOM      9  N   UNL     1      -8.337  -9.574  17.837  0.00  0.00    -0.266 N 
ATOM     28  C   UNL     1      -7.401 -10.334  17.126  0.00  0.00    +0.308 C 
ATOM     37  H   UNL     1      -6.454  -8.522  16.781  0.00  0.00    +0.157 HD
ATOM     38  H   UNL     1      -8.118  -8.590  17.973  0.00  0.00    +0.156 HD
BRANCH   9  29
ATOM     29  C   UNL     1      -9.563 -10.007  18.394  0.00  0.00    +0.077 A 
ATOM     30  C   UNL     1      -9.582 -10.897  19.468  0.00  0.00    +0.141 A 
ATOM     31  C   UNL     1     -10.762  -9.535  17.859  0.00  0.00    +0.027 A 
ATOM     32  C   UNL     1     -10.798 -11.315  20.006  0.00  0.00    +0.047 A 
ATOM     33  C   UNL     1     -11.979  -9.954  18.398  0.00  0.00    +0.002 A 
ATOM     34  C   UNL     1     -11.997 -10.843  19.472  0.00  0.00    +0.004 A 
BRANCH  30   4
ATOM      4  O   UNL     1      -8.421 -11.370  20.005  0.00  0.00    -0.493 OA
ATOM     35  C   UNL     1      -8.234 -12.783  19.999  0.00  0.00    +0.277 C 
ENDBRANCH  30   4
ENDBRANCH   9  29
ENDBRANCH  25   8
BRANCH   7  18
ATOM     18  C   UNL     1      -5.807 -16.131  13.271  0.00  0.00    +0.074 C 
ATOM     21  C   UNL     1      -6.246 -16.996  12.084  0.00  0.00    +0.022 C 
ATOM     22  C   UNL     1      -7.014 -15.610  14.057  0.00  0.00    +0.022 C 
ATOM     23  C   UNL     1      -7.269 -16.291  11.194  0.00  0.00    +0.002 C 
ATOM     24  C   UNL     1      -8.035 -14.907  13.163  0.00  0.00    +0.002 C 
ATOM     26  C   UNL     1      -8.466 -15.791  11.997  0.00  0.00    +0.000 C 
ENDBRANCH   7  18
TORSDOF 4
ENDMDL
MODEL 6
REMARK VINA RESULT:      -7.0     24.121     27.336
REMARK  Name = 11884556
REMARK  5 active torsions:
REMARK  status: ('A' for Active; 'I' for Inactive)
REMARK    1  A    between atoms: O_4  and  C_30
REMARK    2  A    between atoms: O_4  and  C_35
REMARK    3  A    between atoms: N_7  and  C_18
REMARK    4  A    between atoms: N_8  and  C_25
REMARK    5  A    between atoms: N_9  and  C_29
REMARK                            x       y       z     vdW  Elec       q    Type
REMARK                         _______ _______ _______ _____ _____    ______ ____
ROOT
ATOM      1  O   UNL     1       9.212   4.379  -2.236  0.00  0.00    -0.253 OA
ATOM      2  O   UNL     1      13.297   7.372   1.066  0.00  0.00    -0.266 OA
ATOM      5  N   UNL     1      11.298   5.083  -2.973  0.00  0.00    -0.285 N 
ATOM      6  N   UNL     1      13.299   5.644  -0.506  0.00  0.00    -0.310 N 
ATOM      7  N   UNL     1       9.474   6.581  -2.823  0.00  0.00    -0.296 N 
ATOM     10  C   UNL     1      13.616   6.051  -3.011  0.00  0.00    +0.027 C 
ATOM     11  C   UNL     1      13.268   3.767  -2.185  0.00  0.00    +0.054 C 
ATOM     12  C   UNL     1      14.188   4.641  -3.033  0.00  0.00    +0.018 C 
ATOM     13  C   UNL     1      12.188   6.081  -3.587  0.00  0.00    +0.114 C 
ATOM     14  C   UNL     1      11.868   3.738  -2.820  0.00  0.00    +0.119 C 
ATOM     15  C   UNL     1      13.665   6.583  -1.574  0.00  0.00    +0.130 C 
ATOM     16  C   UNL     1      13.180   4.275  -0.759  0.00  0.00    +0.027 A 
ATOM     17  C   UNL     1       9.944   5.285  -2.647  0.00  0.00    +0.302 C 
ATOM     19  C   UNL     1      12.960   3.418   0.253  0.00  0.00    +0.024 A 
ATOM     20  C   UNL     1      13.181   6.177   0.793  0.00  0.00    +0.273 A 
ATOM     25  C   UNL     1      12.911   5.193   1.889  0.00  0.00    +0.100 A 
ATOM     27  C   UNL     1      12.822   3.889   1.602  0.00  0.00    +0.030 A 
ATOM     36  H   UNL     1      10.106   7.339  -3.031  0.00  0.00    +0.151 HD
ENDROOT
BRANCH  25   8
ATOM      3  O   UNL     1      10.464   5.557   3.291  0.00  0.00    -0.252 OA
ATOM      8  N   UNL     1      12.775   5.670   3.159  0.00  0.00    -0.265 N 
ATOM      9  N   UNL     1      11.743   6.338   5.097  0.00  0.00    -0.266 N 
ATOM     28  C   UNL     1      11.544   5.830   3.808  0.00  0.00    +0.308 C 
ATOM     37  H   UNL     1      13.576   6.155   3.557  0.00  0.00    +0.157 HD
ATOM     38  H   UNL     1      12.705   6.514   5.375  0.00  0.00    +0.156 HD
BRANCH   9  29
ATOM     29  C   UNL     1      10.763   6.642   6.071  0.00  0.00    +0.077 A 
ATOM     30  C   UNL     1      10.138   7.889   6.086  0.00  0.00    +0.141 A 
ATOM     31  C   UNL     1      10.424   5.680   7.023  0.00  0.00    +0.027 A 
ATOM     32  C   UNL     1       9.174   8.174   7.053  0.00  0.00    +0.047 A 
ATOM     33  C   UNL     1       9.460   5.966   7.990  0.00  0.00    +0.002 A 
ATOM     34  C   UNL     1       8.834   7.212   8.004  0.00  0.00    +0.004 A 
BRANCH  30   4
ATOM      4  O   UNL     1      10.455   8.842   5.165  0.00  0.00    -0.493 OA
ATOM     35  C   UNL     1       9.531   9.044   4.099  0.00  0.00    +0.277 C 
ENDBRANCH  30   4
ENDBRANCH   9  29
ENDBRANCH  25   8
BRANCH   7  18
ATOM     18  C   UNL     1       8.105   6.950  -2.538  0.00  0.00    +0.074 C 
ATOM     21  C   UNL     1       7.229   6.827  -3.790  0.00  0.00    +0.022 C 
ATOM     22  C   UNL     1       8.026   8.359  -1.942  0.00  0.00    +0.022 C 
ATOM     23  C   UNL     1       7.521   7.918  -4.818  0.00  0.00    +0.002 C 
ATOM     24  C   UNL     1       8.318   9.448  -2.973  0.00  0.00    +0.002 C 
ATOM     26  C   UNL     1       7.427   9.312  -4.204  0.00  0.00    +0.000 C 
ENDBRANCH   7  18
TORSDOF 4
ENDMDL
MODEL 7
REMARK VINA RESULT:      -6.9     25.252     27.837
REMARK  Name = 11884556
REMARK  5 active torsions:
REMARK  status: ('A' for Active; 'I' for Inactive)
REMARK    1  A    between atoms: O_4  and  C_30
REMARK    2  A    between atoms: O_4  and  C_35
REMARK    3  A    between atoms: N_7  and  C_18
REMARK    4  A    between atoms: N_8  and  C_25
REMARK    5  A    between atoms: N_9  and  C_29
REMARK                            x       y       z     vdW  Elec       q    Type
REMARK                         _______ _______ _______ _____ _____    ______ ____
ROOT
ATOM      1  O   UNL     1       8.539   9.571   6.789  0.00  0.00    -0.253 OA
ATOM      2  O   UNL     1      12.328   6.858   2.938  0.00  0.00    -0.266 OA
ATOM      5  N   UNL     1       8.576   7.302   6.296  0.00  0.00    -0.285 N 
ATOM      6  N   UNL     1      11.409   6.409   5.039  0.00  0.00    -0.310 N 
ATOM      7  N   UNL     1       7.560   8.863   4.839  0.00  0.00    -0.296 N 
ATOM     10  C   UNL     1       9.250   5.074   5.349  0.00  0.00    +0.027 C 
ATOM     11  C   UNL     1      10.423   5.964   7.312  0.00  0.00    +0.054 C 
ATOM     12  C   UNL     1       9.836   4.695   6.702  0.00  0.00    +0.018 C 
ATOM     13  C   UNL     1       8.148   6.140   5.501  0.00  0.00    +0.114 C 
ATOM     14  C   UNL     1       9.297   6.986   7.536  0.00  0.00    +0.119 C 
ATOM     15  C   UNL     1      10.384   5.549   4.434  0.00  0.00    +0.130 C 
ATOM     16  C   UNL     1      11.497   6.562   6.425  0.00  0.00    +0.027 A 
ATOM     17  C   UNL     1       8.247   8.643   6.027  0.00  0.00    +0.302 C 
ATOM     19  C   UNL     1      12.512   7.258   6.965  0.00  0.00    +0.024 A 
ATOM     20  C   UNL     1      12.354   6.981   4.163  0.00  0.00    +0.273 A 
ATOM     25  C   UNL     1      13.455   7.769   4.802  0.00  0.00    +0.100 A 
ATOM     27  C   UNL     1      13.508   7.874   6.135  0.00  0.00    +0.030 A 
ATOM     36  H   UNL     1       7.443   8.124   4.162  0.00  0.00    +0.151 HD
ENDROOT
BRANCH  25   8
ATOM      3  O   UNL     1      15.974   6.668   4.073  0.00  0.00    -0.252 OA
ATOM      8  N   UNL     1      14.382   8.351   3.989  0.00  0.00    -0.265 N 
ATOM      9  N   UNL     1      16.333   8.612   2.809  0.00  0.00    -0.266 N 
ATOM     28  C   UNL     1      15.611   7.766   3.658  0.00  0.00    +0.308 C 
ATOM     37  H   UNL     1      14.281   9.348   3.816  0.00  0.00    +0.157 HD
ATOM     38  H   UNL     1      15.891   9.493   2.558  0.00  0.00    +0.156 HD
BRANCH   9  29
ATOM     29  C   UNL     1      17.614   8.394   2.249  0.00  0.00    +0.077 A 
ATOM     30  C   UNL     1      18.767   8.651   2.991  0.00  0.00    +0.141 A 
ATOM     31  C   UNL     1      17.718   7.917   0.943  0.00  0.00    +0.027 A 
ATOM     32  C   UNL     1      20.023   8.432   2.427  0.00  0.00    +0.047 A 
ATOM     33  C   UNL     1      18.975   7.698   0.378  0.00  0.00    +0.002 A 
ATOM     34  C   UNL     1      20.127   7.954   1.121  0.00  0.00    +0.004 A 
BRANCH  30   4
ATOM      4  O   UNL     1      18.688   9.118   4.270  0.00  0.00    -0.493 OA
ATOM     35  C   UNL     1      19.287   8.321   5.288  0.00  0.00    +0.277 C 
ENDBRANCH  30   4
ENDBRANCH   9  29
ENDBRANCH  25   8
BRANCH   7  18
ATOM     18  C   UNL     1       7.145  10.184   4.421  0.00  0.00    +0.074 C 
ATOM     21  C   UNL     1       5.924  10.112   3.498  0.00  0.00    +0.022 C 
ATOM     22  C   UNL     1       8.300  10.940   3.757  0.00  0.00    +0.022 C 
ATOM     23  C   UNL     1       6.269   9.563   2.114  0.00  0.00    +0.002 C 
ATOM     24  C   UNL     1       8.642  10.389   2.373  0.00  0.00    +0.002 C 
ATOM     26  C   UNL     1       7.414  10.337   1.469  0.00  0.00    +0.000 C 
ENDBRANCH   7  18
TORSDOF 4
ENDMDL
MODEL 8
REMARK VINA RESULT:      -6.9      3.263      8.310
REMARK  Name = 11884556
REMARK  5 active torsions:
REMARK  status: ('A' for Active; 'I' for Inactive)
REMARK    1  A    between atoms: O_4  and  C_30
REMARK    2  A    between atoms: O_4  and  C_35
REMARK    3  A    between atoms: N_7  and  C_18
REMARK    4  A    between atoms: N_8  and  C_25
REMARK    5  A    between atoms: N_9  and  C_29
REMARK                            x       y       z     vdW  Elec       q    Type
REMARK                         _______ _______ _______ _____ _____    ______ ____
ROOT
ATOM      1  O   UNL     1      -7.787 -13.940   9.499  0.00  0.00    -0.253 OA
ATOM      2  O   UNL     1      -5.779  -8.761  11.887  0.00  0.00    -0.266 OA
ATOM      5  N   UNL     1      -7.318 -11.995   8.319  0.00  0.00    -0.285 N 
ATOM      6  N   UNL     1      -5.358 -10.046   9.981  0.00  0.00    -0.310 N 
ATOM      7  N   UNL     1      -9.336 -12.248   9.528  0.00  0.00    -0.296 N 
ATOM     10  C   UNL     1      -6.566  -9.664   7.759  0.00  0.00    +0.027 C 
ATOM     11  C   UNL     1      -4.907 -11.463   7.949  0.00  0.00    +0.054 C 
ATOM     12  C   UNL     1      -5.306 -10.240   7.128  0.00  0.00    +0.018 C 
ATOM     13  C   UNL     1      -7.711 -10.695   7.754  0.00  0.00    +0.114 C 
ATOM     14  C   UNL     1      -6.023 -12.517   7.864  0.00  0.00    +0.119 C 
ATOM     15  C   UNL     1      -6.234  -9.185   9.177  0.00  0.00    +0.130 C 
ATOM     16  C   UNL     1      -4.648 -11.098   9.398  0.00  0.00    +0.027 A 
ATOM     17  C   UNL     1      -8.123 -12.806   9.142  0.00  0.00    +0.302 C 
ATOM     19  C   UNL     1      -3.762 -11.801  10.125  0.00  0.00    +0.024 A 
ATOM     20  C   UNL     1      -5.190  -9.691  11.335  0.00  0.00    +0.273 A 
ATOM     25  C   UNL     1      -4.213 -10.514  12.117  0.00  0.00    +0.100 A 
ATOM     27  C   UNL     1      -3.544 -11.501  11.512  0.00  0.00    +0.030 A 
ATOM     36  H   UNL     1      -9.543 -11.278   9.344  0.00  0.00    +0.151 HD
ENDROOT
BRANCH  25   8
ATOM      3  O   UNL     1      -5.553 -11.726  14.313  0.00  0.00    -0.252 OA
ATOM      8  N   UNL     1      -4.033 -10.213  13.435  0.00  0.00    -0.265 N 
ATOM      9  N   UNL     1      -4.310 -10.309  15.711  0.00  0.00    -0.266 N 
ATOM     28  C   UNL     1      -4.719 -10.841  14.483  0.00  0.00    +0.308 C 
ATOM     37  H   UNL     1      -3.567  -9.335  13.646  0.00  0.00    +0.157 HD
ATOM     38  H   UNL     1      -3.607  -9.575  15.680  0.00  0.00    +0.156 HD
BRANCH   9  29
ATOM     29  C   UNL     1      -4.759 -10.667  17.004  0.00  0.00    +0.077 A 
ATOM     30  C   UNL     1      -5.984 -10.205  17.485  0.00  0.00    +0.141 A 
ATOM     31  C   UNL     1      -3.963 -11.490  17.801  0.00  0.00    +0.027 A 
ATOM     32  C   UNL     1      -6.413 -10.566  18.762  0.00  0.00    +0.047 A 
ATOM     33  C   UNL     1      -4.392 -11.851  19.078  0.00  0.00    +0.002 A 
ATOM     34  C   UNL     1      -5.617 -11.389  19.558  0.00  0.00    +0.004 A 
BRANCH  30   4
ATOM      4  O   UNL     1      -6.777  -9.400  16.722  0.00  0.00    -0.493 OA
ATOM     35  C   UNL     1      -8.075  -9.101  17.231  0.00  0.00    +0.277 C 
ENDBRANCH  30   4
ENDBRANCH   9  29
ENDBRANCH  25   8
BRANCH   7  18
ATOM     18  C   UNL     1     -10.277 -12.954  10.368  0.00  0.00    +0.074 C 
ATOM     21  C   UNL     1     -11.719 -12.554  10.037  0.00  0.00    +0.022 C 
ATOM     22  C   UNL     1      -9.965 -12.735  11.852  0.00  0.00    +0.022 C 
ATOM     23  C   UNL     1     -12.055 -11.138  10.506  0.00  0.00    +0.002 C 
ATOM     24  C   UNL     1     -10.303 -11.319  12.317  0.00  0.00    +0.002 C 
ATOM     26  C   UNL     1     -11.745 -10.947  11.988  0.00  0.00    +0.000 C 
ENDBRANCH   7  18
TORSDOF 4
ENDMDL
MODEL 9
REMARK VINA RESULT:      -6.8     23.445     26.759
REMARK  Name = 11884556
REMARK  5 active torsions:
REMARK  status: ('A' for Active; 'I' for Inactive)
REMARK    1  A    between atoms: O_4  and  C_30
REMARK    2  A    between atoms: O_4  and  C_35
REMARK    3  A    between atoms: N_7  and  C_18
REMARK    4  A    between atoms: N_8  and  C_25
REMARK    5  A    between atoms: N_9  and  C_29
REMARK                            x       y       z     vdW  Elec       q    Type
REMARK                         _______ _______ _______ _____ _____    ______ ____
ROOT
ATOM      1  O   UNL     1       7.471 -12.263  35.212  0.00  0.00    -0.253 OA
ATOM      2  O   UNL     1       6.294  -6.988  32.502  0.00  0.00    -0.266 OA
ATOM      5  N   UNL     1       7.223 -11.939  32.926  0.00  0.00    -0.285 N 
ATOM      6  N   UNL     1       7.655  -8.848  32.114  0.00  0.00    -0.310 N 
ATOM      7  N   UNL     1       5.348 -12.089  34.360  0.00  0.00    -0.296 N 
ATOM     10  C   UNL     1       6.908 -10.837  30.690  0.00  0.00    +0.027 C 
ATOM     11  C   UNL     1       9.129 -10.853  31.734  0.00  0.00    +0.054 C 
ATOM     12  C   UNL     1       8.393 -11.022  30.408  0.00  0.00    +0.018 C 
ATOM     13  C   UNL     1       6.402 -11.878  31.706  0.00  0.00    +0.114 C 
ATOM     14  C   UNL     1       8.675 -11.952  32.709  0.00  0.00    +0.119 C 
ATOM     15  C   UNL     1       6.672  -9.402  31.174  0.00  0.00    +0.130 C 
ATOM     16  C   UNL     1       8.877  -9.486  32.339  0.00  0.00    +0.027 A 
ATOM     17  C   UNL     1       6.732 -12.106  34.234  0.00  0.00    +0.302 C 
ATOM     19  C   UNL     1       9.811  -8.905  33.111  0.00  0.00    +0.024 A 
ATOM     20  C   UNL     1       7.349  -7.597  32.687  0.00  0.00    +0.273 A 
ATOM     25  C   UNL     1       8.405  -6.994  33.560  0.00  0.00    +0.100 A 
ATOM     27  C   UNL     1       9.567  -7.634  33.734  0.00  0.00    +0.030 A 
ATOM     36  H   UNL     1       4.759 -11.830  33.583  0.00  0.00    +0.151 HD
ENDROOT
BRANCH  25   8
ATOM      3  O   UNL     1       7.399  -6.594  36.190  0.00  0.00    -0.252 OA
ATOM      8  N   UNL     1       8.142  -5.791  34.146  0.00  0.00    -0.265 N 
ATOM      9  N   UNL     1       7.485  -4.289  35.753  0.00  0.00    -0.266 N 
ATOM     28  C   UNL     1       7.646  -5.646  35.449  0.00  0.00    +0.308 C 
ATOM     37  H   UNL     1       8.071  -4.985  33.531  0.00  0.00    +0.157 HD
ATOM     38  H   UNL     1       7.735  -3.625  35.025  0.00  0.00    +0.156 HD
BRANCH   9  29
ATOM     29  C   UNL     1       7.010  -3.720  36.958  0.00  0.00    +0.077 A 
ATOM     30  C   UNL     1       7.896  -3.381  37.981  0.00  0.00    +0.141 A 
ATOM     31  C   UNL     1       5.642  -3.499  37.118  0.00  0.00    +0.027 A 
ATOM     32  C   UNL     1       7.413  -2.820  39.163  0.00  0.00    +0.047 A 
ATOM     33  C   UNL     1       5.160  -2.939  38.301  0.00  0.00    +0.002 A 
ATOM     34  C   UNL     1       6.046  -2.599  39.323  0.00  0.00    +0.004 A 
BRANCH  30   4
ATOM      4  O   UNL     1       9.236  -3.589  37.845  0.00  0.00    -0.493 OA
ATOM     35  C   UNL     1      10.045  -2.445  37.579  0.00  0.00    +0.277 C 
ENDBRANCH  30   4
ENDBRANCH   9  29
ENDBRANCH  25   8
BRANCH   7  18
ATOM     18  C   UNL     1       4.688 -12.253  35.636  0.00  0.00    +0.074 C 
ATOM     21  C   UNL     1       3.277 -12.824  35.457  0.00  0.00    +0.022 C 
ATOM     22  C   UNL     1       4.659 -10.934  36.416  0.00  0.00    +0.022 C 
ATOM     23  C   UNL     1       2.306 -11.808  34.858  0.00  0.00    +0.002 C 
ATOM     24  C   UNL     1       3.686  -9.921  35.814  0.00  0.00    +0.002 C 
ATOM     26  C   UNL     1       2.287 -10.508  35.656  0.00  0.00    +0.000 C 
ENDBRANCH   7  18
TORSDOF 4
ENDMDL
MODEL 10
REMARK VINA RESULT:      -6.8      2.913      8.408
REMARK  Name = 11884556
REMARK  5 active torsions:
REMARK  status: ('A' for Active; 'I' for Inactive)
REMARK    1  A    between atoms: O_4  and  C_30
REMARK    2  A    between atoms: O_4  and  C_35
REMARK    3  A    between atoms: N_7  and  C_18
REMARK    4  A    between atoms: N_8  and  C_25
REMARK    5  A    between atoms: N_9  and  C_29
REMARK                            x       y       z     vdW  Elec       q    Type
REMARK                         _______ _______ _______ _____ _____    ______ ____
ROOT
ATOM      1  O   UNL     1      -6.108 -13.258  11.705  0.00  0.00    -0.253 OA
ATOM      2  O   UNL     1      -4.918  -9.644  16.403  0.00  0.00    -0.266 OA
ATOM      5  N   UNL     1      -4.010 -12.465  12.307  0.00  0.00    -0.285 N 
ATOM      6  N   UNL     1      -3.946 -11.510  15.387  0.00  0.00    -0.310 N 
ATOM      7  N   UNL     1      -5.549 -11.109  11.128  0.00  0.00    -0.296 N 
ATOM     10  C   UNL     1      -2.160 -11.322  13.566  0.00  0.00    +0.027 C 
ATOM     11  C   UNL     1      -2.933 -13.536  14.289  0.00  0.00    +0.054 C 
ATOM     12  C   UNL     1      -1.690 -12.678  14.073  0.00  0.00    +0.018 C 
ATOM     13  C   UNL     1      -2.935 -11.463  12.243  0.00  0.00    +0.114 C 
ATOM     14  C   UNL     1      -3.649 -13.738  12.943  0.00  0.00    +0.119 C 
ATOM     15  C   UNL     1      -3.005 -10.652  14.656  0.00  0.00    +0.130 C 
ATOM     16  C   UNL     1      -3.879 -12.902  15.289  0.00  0.00    +0.027 A 
ATOM     17  C   UNL     1      -5.281 -12.341  11.715  0.00  0.00    +0.302 C 
ATOM     19  C   UNL     1      -4.670 -13.672  16.055  0.00  0.00    +0.024 A 
ATOM     20  C   UNL     1      -4.838 -10.865  16.268  0.00  0.00    +0.273 A 
ATOM     25  C   UNL     1      -5.719 -11.757  17.086  0.00  0.00    +0.100 A 
ATOM     27  C   UNL     1      -5.609 -13.085  16.971  0.00  0.00    +0.030 A 
ATOM     36  H   UNL     1      -4.925 -10.327  11.255  0.00  0.00    +0.151 HD
ENDROOT
BRANCH  25   8
ATOM      3  O   UNL     1      -8.551 -11.771  16.827  0.00  0.00    -0.252 OA
ATOM      8  N   UNL     1      -6.607 -11.173  17.940  0.00  0.00    -0.265 N 
ATOM      9  N   UNL     1      -8.628 -10.518  18.810  0.00  0.00    -0.266 N 
ATOM     28  C   UNL     1      -7.998 -11.208  17.768  0.00  0.00    +0.308 C 
ATOM     37  H   UNL     1      -6.237 -10.480  18.586  0.00  0.00    +0.157 HD
ATOM     38  H   UNL     1      -8.023 -10.104  19.515  0.00  0.00    +0.156 HD
BRANCH   9  29
ATOM     29  C   UNL     1     -10.014 -10.321  19.007  0.00  0.00    +0.077 A 
ATOM     30  C   UNL     1     -10.736  -9.465  18.175  0.00  0.00    +0.141 A 
ATOM     31  C   UNL     1     -10.660 -10.991  20.046  0.00  0.00    +0.027 A 
ATOM     32  C   UNL     1     -12.103  -9.280  18.381  0.00  0.00    +0.047 A 
ATOM     33  C   UNL     1     -12.027 -10.806  20.252  0.00  0.00    +0.002 A 
ATOM     34  C   UNL     1     -12.749  -9.951  19.419  0.00  0.00    +0.004 A 
BRANCH  30   4
ATOM      4  O   UNL     1     -10.124  -8.800  17.154  0.00  0.00    -0.493 OA
ATOM     35  C   UNL     1     -10.463  -7.426  16.981  0.00  0.00    +0.277 C 
ENDBRANCH  30   4
ENDBRANCH   9  29
ENDBRANCH  25   8
BRANCH   7  18
ATOM     18  C   UNL     1      -6.807 -10.825  10.473  0.00  0.00    +0.074 C 
ATOM     21  C   UNL     1      -6.818 -11.373   9.042  0.00  0.00    +0.022 C 
ATOM     22  C   UNL     1      -7.114  -9.324  10.496  0.00  0.00    +0.022 C 
ATOM     23  C   UNL     1      -5.917 -10.573   8.102  0.00  0.00    +0.002 C 
ATOM     24  C   UNL     1      -6.211  -8.528   9.555  0.00  0.00    +0.002 C 
ATOM     26  C   UNL     1      -6.248  -9.084   8.135  0.00  0.00    +0.000 C 
ENDBRANCH   7  18
TORSDOF 4
ENDMDL
