MODEL 1
REMARK VINA RESULT:      -8.5      0.000      0.000
REMARK  Name = 11879564
REMARK  8 active torsions:
REMARK  status: ('A' for Active; 'I' for Inactive)
REMARK    1  A    between atoms: O_3  and  C_18
REMARK    2  A    between atoms: O_3  and  C_21
REMARK    3  A    between atoms: N_6  and  C_14
REMARK    4  A    between atoms: N_7  and  C_15
REMARK    5  A    between atoms: N_11  and  C_27
REMARK    6  A    between atoms: N_11  and  C_30
REMARK    7  A    between atoms: N_11  and  C_31
REMARK    8  A    between atoms: C_19  and  C_20
REMARK                            x       y       z     vdW  Elec       q    Type
REMARK                         _______ _______ _______ _____ _____    ______ ____
ROOT
ATOM      1  O   UNL     1      13.366   7.835  21.980  0.00  0.00    -0.370 OA
ATOM      2  O   UNL     1      10.306   8.159  21.325  0.00  0.00    -0.370 OA
ATOM     12  C   UNL     1      11.518   8.523  20.639  0.00  0.00    +0.176 C 
ATOM     13  C   UNL     1      12.516   8.958  21.694  0.00  0.00    +0.171 C 
ATOM     14  C   UNL     1      12.140   7.296  20.003  0.00  0.00    +0.171 C 
ATOM     15  C   UNL     1      11.665   9.291  22.900  0.00  0.00    +0.130 C 
ATOM     16  C   UNL     1      13.024   6.743  21.115  0.00  0.00    +0.190 C 
ATOM     17  C   UNL     1      10.489   8.347  22.735  0.00  0.00    +0.185 C 
ENDROOT
BRANCH  14   6
ATOM      6  N   UNL     1      12.837   7.604  18.751  0.00  0.00    -0.187 N 
ATOM      8  N   UNL     1      12.227   7.453  17.571  0.00  0.00    -0.041 NA
ATOM      9  N   UNL     1      14.310   8.192  17.284  0.00  0.00    -0.071 NA
ATOM     10  N   UNL     1      13.135   7.816  16.675  0.00  0.00    -0.020 NA
ATOM     18  C   UNL     1      14.101   8.052  18.573  0.00  0.00    +0.342 A 
BRANCH  18   3
ATOM      3  O   UNL     1      14.962   8.300  19.543  0.00  0.00    -0.423 OA
BRANCH   3  21
ATOM     21  C   UNL     1      16.112   7.548  19.733  0.00  0.00    +0.134 A 
ATOM     24  C   UNL     1      17.033   7.956  20.678  0.00  0.00    +0.069 A 
ATOM     26  C   UNL     1      16.305   6.411  18.970  0.00  0.00    +0.046 A 
ATOM     27  C   UNL     1      18.189   7.200  20.870  0.00  0.00    +0.033 A 
ATOM     28  C   UNL     1      17.461   5.655  19.161  0.00  0.00    +0.005 A 
ATOM     29  C   UNL     1      18.403   6.050  20.111  0.00  0.00    +0.023 A 
BRANCH  27  11
ATOM     11  N   UNL     1      19.142   7.598  21.830  0.00  0.00    -0.336 N 
ATOM     30  C   UNL     1      19.866   6.606  22.600  0.00  0.00    +0.129 C 
ATOM     31  C   UNL     1      19.400   9.004  22.069  0.00  0.00    +0.129 C 
ENDBRANCH  27  11
ENDBRANCH   3  21
ENDBRANCH  18   3
ENDBRANCH  14   6
BRANCH  15   7
ATOM      4  O   UNL     1      11.205  10.988  25.170  0.00  0.00    -0.267 OA
ATOM      7  N   UNL     1      11.238  10.669  22.873  0.00  0.00    -0.301 N 
ATOM     19  C   UNL     1      11.041  11.410  24.028  0.00  0.00    +0.280 C 
ATOM     32  H   UNL     1      11.028  11.094  21.974  0.00  0.00    +0.150 HD
BRANCH  19  20
ATOM      5  O   UNL     1      10.458  13.201  22.567  0.00  0.00    -0.458 OA
ATOM     20  C   UNL     1      10.575  12.808  23.832  0.00  0.00    +0.189 A 
ATOM     22  C   UNL     1      10.254  13.731  24.740  0.00  0.00    +0.054 A 
ATOM     23  C   UNL     1       9.885  14.861  23.970  0.00  0.00    +0.042 A 
ATOM     25  C   UNL     1      10.026  14.486  22.653  0.00  0.00    +0.196 A 
ENDBRANCH  19  20
ENDBRANCH  15   7
TORSDOF 6
ENDMDL
MODEL 2
REMARK VINA RESULT:      -7.4     26.711     28.351
REMARK  Name = 11879564
REMARK  8 active torsions:
REMARK  status: ('A' for Active; 'I' for Inactive)
REMARK    1  A    between atoms: O_3  and  C_18
REMARK    2  A    between atoms: O_3  and  C_21
REMARK    3  A    between atoms: N_6  and  C_14
REMARK    4  A    between atoms: N_7  and  C_15
REMARK    5  A    between atoms: N_11  and  C_27
REMARK    6  A    between atoms: N_11  and  C_30
REMARK    7  A    between atoms: N_11  and  C_31
REMARK    8  A    between atoms: C_19  and  C_20
REMARK                            x       y       z     vdW  Elec       q    Type
REMARK                         _______ _______ _______ _____ _____    ______ ____
ROOT
ATOM      1  O   UNL     1      -4.861 -10.999  18.155  0.00  0.00    -0.370 OA
ATOM      2  O   UNL     1      -6.488 -11.945  15.635  0.00  0.00    -0.370 OA
ATOM     12  C   UNL     1      -5.416 -11.006  15.836  0.00  0.00    +0.176 C 
ATOM     13  C   UNL     1      -5.661 -10.326  17.169  0.00  0.00    +0.171 C 
ATOM     14  C   UNL     1      -4.107 -11.750  16.017  0.00  0.00    +0.171 C 
ATOM     15  C   UNL     1      -7.131 -10.555  17.442  0.00  0.00    +0.130 C 
ATOM     16  C   UNL     1      -4.063 -12.008  17.519  0.00  0.00    +0.190 C 
ATOM     17  C   UNL     1      -7.384 -11.883  16.754  0.00  0.00    +0.185 C 
ENDROOT
BRANCH  14   6
ATOM      6  N   UNL     1      -2.962 -11.010  15.481  0.00  0.00    -0.187 N 
ATOM      8  N   UNL     1      -2.113 -10.376  16.296  0.00  0.00    -0.041 NA
ATOM      9  N   UNL     1      -1.500 -10.108  14.169  0.00  0.00    -0.071 NA
ATOM     10  N   UNL     1      -1.218  -9.824  15.486  0.00  0.00    -0.020 NA
ATOM     18  C   UNL     1      -2.587 -10.845  14.191  0.00  0.00    +0.342 A 
BRANCH  18   3
ATOM      3  O   UNL     1      -3.220 -11.348  13.148  0.00  0.00    -0.423 OA
BRANCH   3  21
ATOM     21  C   UNL     1      -3.738 -10.555  12.133  0.00  0.00    +0.134 A 
ATOM     24  C   UNL     1      -5.093 -10.291  12.113  0.00  0.00    +0.069 A 
ATOM     26  C   UNL     1      -2.881 -10.053  11.171  0.00  0.00    +0.046 A 
ATOM     27  C   UNL     1      -5.614  -9.493  11.094  0.00  0.00    +0.033 A 
ATOM     28  C   UNL     1      -3.402  -9.255  10.152  0.00  0.00    +0.005 A 
ATOM     29  C   UNL     1      -4.767  -8.976  10.113  0.00  0.00    +0.023 A 
BRANCH  27  11
ATOM     11  N   UNL     1      -6.994  -9.210  11.054  0.00  0.00    -0.336 N 
ATOM     30  C   UNL     1      -7.849  -9.568  12.169  0.00  0.00    +0.129 C 
ATOM     31  C   UNL     1      -7.579  -8.569   9.893  0.00  0.00    +0.129 C 
ENDBRANCH  27  11
ENDBRANCH   3  21
ENDBRANCH  18   3
ENDBRANCH  14   6
BRANCH  15   7
ATOM      4  O   UNL     1      -9.773  -9.783  18.257  0.00  0.00    -0.267 OA
ATOM      7  N   UNL     1      -7.938  -9.506  16.867  0.00  0.00    -0.301 N 
ATOM     19  C   UNL     1      -9.210  -9.206  17.331  0.00  0.00    +0.280 C 
ATOM     32  H   UNL     1      -7.577  -9.003  16.061  0.00  0.00    +0.150 HD
BRANCH  19  20
ATOM      5  O   UNL     1     -10.548  -7.234  17.391  0.00  0.00    -0.458 OA
ATOM     20  C   UNL     1      -9.922  -8.115  16.615  0.00  0.00    +0.189 A 
ATOM     22  C   UNL     1     -10.028  -7.888  15.305  0.00  0.00    +0.054 A 
ATOM     23  C   UNL     1     -10.819  -6.716  15.220  0.00  0.00    +0.042 A 
ATOM     25  C   UNL     1     -11.109  -6.358  16.517  0.00  0.00    +0.196 A 
ENDBRANCH  19  20
ENDBRANCH  15   7
TORSDOF 6
ENDMDL
MODEL 3
REMARK VINA RESULT:      -7.2      4.295     10.384
REMARK  Name = 11879564
REMARK  8 active torsions:
REMARK  status: ('A' for Active; 'I' for Inactive)
REMARK    1  A    between atoms: O_3  and  C_18
REMARK    2  A    between atoms: O_3  and  C_21
REMARK    3  A    between atoms: N_6  and  C_14
REMARK    4  A    between atoms: N_7  and  C_15
REMARK    5  A    between atoms: N_11  and  C_27
REMARK    6  A    between atoms: N_11  and  C_30
REMARK    7  A    between atoms: N_11  and  C_31
REMARK    8  A    between atoms: C_19  and  C_20
REMARK                            x       y       z     vdW  Elec       q    Type
REMARK                         _______ _______ _______ _____ _____    ______ ____
ROOT
ATOM      1  O   UNL     1      19.516   6.884  22.885  0.00  0.00    -0.370 OA
ATOM      2  O   UNL     1      21.399   7.558  20.457  0.00  0.00    -0.370 OA
ATOM     12  C   UNL     1      20.248   6.710  20.623  0.00  0.00    +0.176 C 
ATOM     13  C   UNL     1      20.338   6.098  22.007  0.00  0.00    +0.171 C 
ATOM     14  C   UNL     1      18.987   7.552  20.654  0.00  0.00    +0.171 C 
ATOM     15  C   UNL     1      21.795   6.241  22.385  0.00  0.00    +0.130 C 
ATOM     16  C   UNL     1      18.846   7.905  22.131  0.00  0.00    +0.190 C 
ATOM     17  C   UNL     1      22.198   7.504  21.647  0.00  0.00    +0.185 C 
ENDROOT
BRANCH  14   6
ATOM      6  N   UNL     1      17.835   6.861  20.069  0.00  0.00    -0.187 N 
ATOM      8  N   UNL     1      18.005   5.860  19.200  0.00  0.00    -0.041 NA
ATOM      9  N   UNL     1      15.834   6.233  19.547  0.00  0.00    -0.071 NA
ATOM     10  N   UNL     1      16.774   5.477  18.883  0.00  0.00    -0.020 NA
ATOM     18  C   UNL     1      16.517   7.085  20.277  0.00  0.00    +0.342 A 
BRANCH  18   3
ATOM      3  O   UNL     1      16.022   8.007  21.081  0.00  0.00    -0.423 OA
BRANCH   3  21
ATOM     21  C   UNL     1      14.842   8.684  20.806  0.00  0.00    +0.134 A 
ATOM     24  C   UNL     1      13.736   8.456  21.602  0.00  0.00    +0.069 A 
ATOM     26  C   UNL     1      14.808   9.569  19.744  0.00  0.00    +0.046 A 
ATOM     27  C   UNL     1      12.551   9.137  21.326  0.00  0.00    +0.033 A 
ATOM     28  C   UNL     1      13.623  10.250  19.469  0.00  0.00    +0.005 A 
ATOM     29  C   UNL     1      12.495  10.034  20.259  0.00  0.00    +0.023 A 
BRANCH  27  11
ATOM     11  N   UNL     1      11.409   8.920  22.125  0.00  0.00    -0.336 N 
ATOM     30  C   UNL     1      10.672   7.675  22.029  0.00  0.00    +0.129 C 
ATOM     31  C   UNL     1      10.951   9.944  23.044  0.00  0.00    +0.129 C 
ENDBRANCH  27  11
ENDBRANCH   3  21
ENDBRANCH  18   3
ENDBRANCH  14   6
BRANCH  15   7
ATOM      4  O   UNL     1      22.141   3.750  23.772  0.00  0.00    -0.267 OA
ATOM      7  N   UNL     1      22.565   5.106  21.938  0.00  0.00    -0.301 N 
ATOM     19  C   UNL     1      22.674   3.940  22.681  0.00  0.00    +0.280 C 
ATOM     32  H   UNL     1      23.084   5.185  21.068  0.00  0.00    +0.150 HD
BRANCH  19  20
ATOM      5  O   UNL     1      23.950   3.095  20.853  0.00  0.00    -0.458 OA
ATOM     20  C   UNL     1      23.525   2.872  22.094  0.00  0.00    +0.189 A 
ATOM     22  C   UNL     1      23.929   1.718  22.628  0.00  0.00    +0.054 A 
ATOM     23  C   UNL     1      24.710   1.120  21.611  0.00  0.00    +0.042 A 
ATOM     25  C   UNL     1      24.692   1.998  20.551  0.00  0.00    +0.196 A 
ENDBRANCH  19  20
ENDBRANCH  15   7
TORSDOF 6
ENDMDL
MODEL 4
REMARK VINA RESULT:      -7.1     26.791     29.434
REMARK  Name = 11879564
REMARK  8 active torsions:
REMARK  status: ('A' for Active; 'I' for Inactive)
REMARK    1  A    between atoms: O_3  and  C_18
REMARK    2  A    between atoms: O_3  and  C_21
REMARK    3  A    between atoms: N_6  and  C_14
REMARK    4  A    between atoms: N_7  and  C_15
REMARK    5  A    between atoms: N_11  and  C_27
REMARK    6  A    between atoms: N_11  and  C_30
REMARK    7  A    between atoms: N_11  and  C_31
REMARK    8  A    between atoms: C_19  and  C_20
REMARK                            x       y       z     vdW  Elec       q    Type
REMARK                         _______ _______ _______ _____ _____    ______ ____
ROOT
ATOM      1  O   UNL     1      -4.670 -12.964  17.099  0.00  0.00    -0.370 OA
ATOM      2  O   UNL     1      -3.764  -9.952  17.056  0.00  0.00    -0.370 OA
ATOM     12  C   UNL     1      -5.043 -10.609  17.107  0.00  0.00    +0.176 C 
ATOM     13  C   UNL     1      -4.946 -11.847  16.238  0.00  0.00    +0.171 C 
ATOM     14  C   UNL     1      -5.296 -11.138  18.506  0.00  0.00    +0.171 C 
ATOM     15  C   UNL     1      -3.764 -11.578  15.334  0.00  0.00    +0.130 C 
ATOM     16  C   UNL     1      -4.668 -12.527  18.465  0.00  0.00    +0.190 C 
ATOM     17  C   UNL     1      -2.885 -10.701  16.205  0.00  0.00    +0.185 C 
ENDROOT
BRANCH  14   6
ATOM      6  N   UNL     1      -6.714 -11.109  18.870  0.00  0.00    -0.187 N 
ATOM      8  N   UNL     1      -7.199 -11.929  19.808  0.00  0.00    -0.041 NA
ATOM      9  N   UNL     1      -8.820 -10.636  18.989  0.00  0.00    -0.071 NA
ATOM     10  N   UNL     1      -8.491 -11.635  19.877  0.00  0.00    -0.020 NA
ATOM     18  C   UNL     1      -7.701 -10.326  18.376  0.00  0.00    +0.342 A 
BRANCH  18   3
ATOM      3  O   UNL     1      -7.544  -9.411  17.436  0.00  0.00    -0.423 OA
BRANCH   3  21
ATOM     21  C   UNL     1      -8.394  -9.307  16.345  0.00  0.00    +0.134 A 
ATOM     24  C   UNL     1      -9.356  -8.315  16.335  0.00  0.00    +0.069 A 
ATOM     26  C   UNL     1      -8.254 -10.199  15.298  0.00  0.00    +0.046 A 
ATOM     27  C   UNL     1     -10.210  -8.210  15.237  0.00  0.00    +0.033 A 
ATOM     28  C   UNL     1      -9.108 -10.093  14.200  0.00  0.00    +0.005 A 
ATOM     29  C   UNL     1     -10.086  -9.099  14.170  0.00  0.00    +0.023 A 
BRANCH  27  11
ATOM     11  N   UNL     1     -11.198  -7.204  15.206  0.00  0.00    -0.336 N 
ATOM     30  C   UNL     1     -11.174  -6.122  16.170  0.00  0.00    +0.129 C 
ATOM     31  C   UNL     1     -12.258  -7.248  14.218  0.00  0.00    +0.129 C 
ENDBRANCH  27  11
ENDBRANCH   3  21
ENDBRANCH  18   3
ENDBRANCH  14   6
BRANCH  15   7
ATOM      4  O   UNL     1      -2.247 -11.310  12.911  0.00  0.00    -0.267 OA
ATOM      7  N   UNL     1      -4.170 -10.885  14.135  0.00  0.00    -0.301 N 
ATOM     19  C   UNL     1      -3.365 -10.809  13.009  0.00  0.00    +0.280 C 
ATOM     32  H   UNL     1      -5.061 -10.395  14.136  0.00  0.00    +0.150 HD
BRANCH  19  20
ATOM      5  O   UNL     1      -5.162  -9.595  12.021  0.00  0.00    -0.458 OA
ATOM     20  C   UNL     1      -3.917 -10.037  11.866  0.00  0.00    +0.189 A 
ATOM     22  C   UNL     1      -3.347  -9.719  10.701  0.00  0.00    +0.054 A 
ATOM     23  C   UNL     1      -4.344  -8.981  10.018  0.00  0.00    +0.042 A 
ATOM     25  C   UNL     1      -5.429  -8.933  10.864  0.00  0.00    +0.196 A 
ENDBRANCH  19  20
ENDBRANCH  15   7
TORSDOF 6
ENDMDL
MODEL 5
REMARK VINA RESULT:      -7.0     26.856     29.561
REMARK  Name = 11879564
REMARK  8 active torsions:
REMARK  status: ('A' for Active; 'I' for Inactive)
REMARK    1  A    between atoms: O_3  and  C_18
REMARK    2  A    between atoms: O_3  and  C_21
REMARK    3  A    between atoms: N_6  and  C_14
REMARK    4  A    between atoms: N_7  and  C_15
REMARK    5  A    between atoms: N_11  and  C_27
REMARK    6  A    between atoms: N_11  and  C_30
REMARK    7  A    between atoms: N_11  and  C_31
REMARK    8  A    between atoms: C_19  and  C_20
REMARK                            x       y       z     vdW  Elec       q    Type
REMARK                         _______ _______ _______ _____ _____    ______ ____
ROOT
ATOM      1  O   UNL     1      -4.756 -13.003  17.098  0.00  0.00    -0.370 OA
ATOM      2  O   UNL     1      -3.842  -9.993  17.129  0.00  0.00    -0.370 OA
ATOM     12  C   UNL     1      -5.122 -10.649  17.188  0.00  0.00    +0.176 C 
ATOM     13  C   UNL     1      -5.048 -11.860  16.279  0.00  0.00    +0.171 C 
ATOM     14  C   UNL     1      -5.344 -11.221  18.575  0.00  0.00    +0.171 C 
ATOM     15  C   UNL     1      -3.886 -11.565  15.357  0.00  0.00    +0.130 C 
ATOM     16  C   UNL     1      -4.721 -12.609  18.478  0.00  0.00    +0.190 C 
ATOM     17  C   UNL     1      -2.985 -10.716  16.235  0.00  0.00    +0.185 C 
ENDROOT
BRANCH  14   6
ATOM      6  N   UNL     1      -6.754 -11.200  18.973  0.00  0.00    -0.187 N 
ATOM      8  N   UNL     1      -7.231 -12.082  19.857  0.00  0.00    -0.041 NA
ATOM      9  N   UNL     1      -8.850 -10.710  19.174  0.00  0.00    -0.071 NA
ATOM     10  N   UNL     1      -8.516 -11.777  19.977  0.00  0.00    -0.020 NA
ATOM     18  C   UNL     1      -7.739 -10.369  18.560  0.00  0.00    +0.342 A 
BRANCH  18   3
ATOM      3  O   UNL     1      -7.590  -9.390  17.689  0.00  0.00    -0.423 OA
BRANCH   3  21
ATOM     21  C   UNL     1      -8.573  -9.047  16.771  0.00  0.00    +0.134 A 
ATOM     24  C   UNL     1      -8.695  -9.787  15.611  0.00  0.00    +0.069 A 
ATOM     26  C   UNL     1      -9.402  -7.976  17.045  0.00  0.00    +0.046 A 
ATOM     27  C   UNL     1      -9.683  -9.443  14.689  0.00  0.00    +0.033 A 
ATOM     28  C   UNL     1     -10.391  -7.632  16.123  0.00  0.00    +0.005 A 
ATOM     29  C   UNL     1     -10.531  -8.366  14.945  0.00  0.00    +0.023 A 
BRANCH  27  11
ATOM     11  N   UNL     1      -9.826 -10.185  13.498  0.00  0.00    -0.336 N 
ATOM     30  C   UNL     1     -10.759 -11.292  13.431  0.00  0.00    +0.129 C 
ATOM     31  C   UNL     1      -9.033  -9.857  12.330  0.00  0.00    +0.129 C 
ENDBRANCH  27  11
ENDBRANCH   3  21
ENDBRANCH  18   3
ENDBRANCH  14   6
BRANCH  15   7
ATOM      4  O   UNL     1      -2.535 -11.420  12.828  0.00  0.00    -0.267 OA
ATOM      7  N   UNL     1      -4.318 -10.834  14.190  0.00  0.00    -0.301 N 
ATOM     19  C   UNL     1      -3.594 -10.824  13.007  0.00  0.00    +0.280 C 
ATOM     32  H   UNL     1      -5.159 -10.268  14.256  0.00  0.00    +0.150 HD
BRANCH  19  20
ATOM      5  O   UNL     1      -5.381  -9.520  12.119  0.00  0.00    -0.458 OA
ATOM     20  C   UNL     1      -4.159 -10.002  11.906  0.00  0.00    +0.189 A 
ATOM     22  C   UNL     1      -3.622  -9.673  10.730  0.00  0.00    +0.054 A 
ATOM     23  C   UNL     1      -4.615  -8.882  10.104  0.00  0.00    +0.042 A 
ATOM     25  C   UNL     1      -5.666  -8.819  10.991  0.00  0.00    +0.196 A 
ENDBRANCH  19  20
ENDBRANCH  15   7
TORSDOF 6
ENDMDL
MODEL 6
REMARK VINA RESULT:      -6.8     27.218     29.302
REMARK  Name = 11879564
REMARK  8 active torsions:
REMARK  status: ('A' for Active; 'I' for Inactive)
REMARK    1  A    between atoms: O_3  and  C_18
REMARK    2  A    between atoms: O_3  and  C_21
REMARK    3  A    between atoms: N_6  and  C_14
REMARK    4  A    between atoms: N_7  and  C_15
REMARK    5  A    between atoms: N_11  and  C_27
REMARK    6  A    between atoms: N_11  and  C_30
REMARK    7  A    between atoms: N_11  and  C_31
REMARK    8  A    between atoms: C_19  and  C_20
REMARK                            x       y       z     vdW  Elec       q    Type
REMARK                         _______ _______ _______ _____ _____    ______ ____
ROOT
ATOM      1  O   UNL     1      -6.405 -10.134  16.687  0.00  0.00    -0.370 OA
ATOM      2  O   UNL     1      -5.083 -11.255  19.312  0.00  0.00    -0.370 OA
ATOM     12  C   UNL     1      -5.408 -11.830  18.034  0.00  0.00    +0.176 C 
ATOM     13  C   UNL     1      -6.717 -11.212  17.584  0.00  0.00    +0.171 C 
ATOM     14  C   UNL     1      -4.395 -11.386  16.996  0.00  0.00    +0.171 C 
ATOM     15  C   UNL     1      -7.333 -10.674  18.856  0.00  0.00    +0.130 C 
ATOM     16  C   UNL     1      -4.987 -10.081  16.475  0.00  0.00    +0.190 C 
ATOM     17  C   UNL     1      -6.111 -10.327  19.685  0.00  0.00    +0.185 C 
ENDROOT
BRANCH  14   6
ATOM      6  N   UNL     1      -4.153 -12.408  15.974  0.00  0.00    -0.187 N 
ATOM      8  N   UNL     1      -4.674 -13.633  16.092  0.00  0.00    -0.041 NA
ATOM      9  N   UNL     1      -3.478 -13.471  14.218  0.00  0.00    -0.071 NA
ATOM     10  N   UNL     1      -4.258 -14.281  15.012  0.00  0.00    -0.020 NA
ATOM     18  C   UNL     1      -3.427 -12.313  14.836  0.00  0.00    +0.342 A 
BRANCH  18   3
ATOM      3  O   UNL     1      -2.786 -11.232  14.433  0.00  0.00    -0.423 OA
BRANCH   3  21
ATOM     21  C   UNL     1      -2.983 -10.668  13.181  0.00  0.00    +0.134 A 
ATOM     24  C   UNL     1      -4.260 -10.298  12.805  0.00  0.00    +0.069 A 
ATOM     26  C   UNL     1      -1.896 -10.491  12.346  0.00  0.00    +0.046 A 
ATOM     27  C   UNL     1      -4.458  -9.730  11.547  0.00  0.00    +0.033 A 
ATOM     28  C   UNL     1      -2.094  -9.922  11.088  0.00  0.00    +0.005 A 
ATOM     29  C   UNL     1      -3.375  -9.542  10.689  0.00  0.00    +0.023 A 
BRANCH  27  11
ATOM     11  N   UNL     1      -5.753  -9.344  11.143  0.00  0.00    -0.336 N 
ATOM     30  C   UNL     1      -6.043  -9.101   9.743  0.00  0.00    +0.129 C 
ATOM     31  C   UNL     1      -6.808  -9.174  12.122  0.00  0.00    +0.129 C 
ENDBRANCH  27  11
ENDBRANCH   3  21
ENDBRANCH  18   3
ENDBRANCH  14   6
BRANCH  15   7
ATOM      4  O   UNL     1     -10.154 -10.532  19.375  0.00  0.00    -0.267 OA
ATOM      7  N   UNL     1      -8.141 -11.675  19.510  0.00  0.00    -0.301 N 
ATOM     19  C   UNL     1      -9.503 -11.516  19.716  0.00  0.00    +0.280 C 
ATOM     32  H   UNL     1      -7.683 -12.506  19.873  0.00  0.00    +0.150 HD
BRANCH  19  20
ATOM      5  O   UNL     1      -9.428 -13.684  20.705  0.00  0.00    -0.458 OA
ATOM     20  C   UNL     1     -10.187 -12.627  20.427  0.00  0.00    +0.189 A 
ATOM     22  C   UNL     1     -11.455 -12.723  20.831  0.00  0.00    +0.054 A 
ATOM     23  C   UNL     1     -11.527 -13.997  21.445  0.00  0.00    +0.042 A 
ATOM     25  C   UNL     1     -10.267 -14.541  21.342  0.00  0.00    +0.196 A 
ENDBRANCH  19  20
ENDBRANCH  15   7
TORSDOF 6
ENDMDL
MODEL 7
REMARK VINA RESULT:      -6.8     26.947     30.196
REMARK  Name = 11879564
REMARK  8 active torsions:
REMARK  status: ('A' for Active; 'I' for Inactive)
REMARK    1  A    between atoms: O_3  and  C_18
REMARK    2  A    between atoms: O_3  and  C_21
REMARK    3  A    between atoms: N_6  and  C_14
REMARK    4  A    between atoms: N_7  and  C_15
REMARK    5  A    between atoms: N_11  and  C_27
REMARK    6  A    between atoms: N_11  and  C_30
REMARK    7  A    between atoms: N_11  and  C_31
REMARK    8  A    between atoms: C_19  and  C_20
REMARK                            x       y       z     vdW  Elec       q    Type
REMARK                         _______ _______ _______ _____ _____    ______ ____
ROOT
ATOM      1  O   UNL     1      -5.404  -8.867   8.851  0.00  0.00    -0.370 OA
ATOM      2  O   UNL     1      -5.596 -12.003   8.997  0.00  0.00    -0.370 OA
ATOM     12  C   UNL     1      -4.516 -11.062   9.129  0.00  0.00    +0.176 C 
ATOM     13  C   UNL     1      -4.773  -9.943   8.139  0.00  0.00    +0.171 C 
ATOM     14  C   UNL     1      -4.576 -10.394  10.489  0.00  0.00    +0.171 C 
ATOM     15  C   UNL     1      -5.734 -10.544   7.137  0.00  0.00    +0.130 C 
ATOM     16  C   UNL     1      -5.489  -9.198  10.244  0.00  0.00    +0.190 C 
ATOM     17  C   UNL     1      -6.501 -11.542   7.984  0.00  0.00    +0.185 C 
ENDROOT
BRANCH  14   6
ATOM      6  N   UNL     1      -3.248 -10.064  11.013  0.00  0.00    -0.187 N 
ATOM      8  N   UNL     1      -2.446  -9.215  10.363  0.00  0.00    -0.041 NA
ATOM      9  N   UNL     1      -1.458  -9.956  12.219  0.00  0.00    -0.071 NA
ATOM     10  N   UNL     1      -1.349  -9.152  11.107  0.00  0.00    -0.020 NA
ATOM     18  C   UNL     1      -2.645 -10.512  12.139  0.00  0.00    +0.342 A 
BRANCH  18   3
ATOM      3  O   UNL     1      -3.177 -11.362  12.997  0.00  0.00    -0.423 OA
BRANCH   3  21
ATOM     21  C   UNL     1      -3.713 -10.962  14.213  0.00  0.00    +0.134 A 
ATOM     24  C   UNL     1      -5.049 -10.616  14.275  0.00  0.00    +0.069 A 
ATOM     26  C   UNL     1      -2.895 -10.922  15.326  0.00  0.00    +0.046 A 
ATOM     27  C   UNL     1      -5.588 -10.215  15.498  0.00  0.00    +0.033 A 
ATOM     28  C   UNL     1      -3.434 -10.520  16.548  0.00  0.00    +0.005 A 
ATOM     29  C   UNL     1      -4.780 -10.167  16.634  0.00  0.00    +0.023 A 
BRANCH  27  11
ATOM     11  N   UNL     1      -6.950  -9.858  15.585  0.00  0.00    -0.336 N 
ATOM     30  C   UNL     1      -7.502  -9.373  16.835  0.00  0.00    +0.129 C 
ATOM     31  C   UNL     1      -7.817  -9.982  14.431  0.00  0.00    +0.129 C 
ENDBRANCH  27  11
ENDBRANCH   3  21
ENDBRANCH  18   3
ENDBRANCH  14   6
BRANCH  15   7
ATOM      4  O   UNL     1      -6.741 -11.096   4.505  0.00  0.00    -0.267 OA
ATOM      7  N   UNL     1      -5.027 -11.201   6.065  0.00  0.00    -0.301 N 
ATOM     19  C   UNL     1      -5.600 -11.425   4.822  0.00  0.00    +0.280 C 
ATOM     32  H   UNL     1      -4.092 -11.555   6.246  0.00  0.00    +0.150 HD
BRANCH  19  20
ATOM      5  O   UNL     1      -5.320 -12.378   2.655  0.00  0.00    -0.458 OA
ATOM     20  C   UNL     1      -4.750 -12.138   3.833  0.00  0.00    +0.189 A 
ATOM     22  C   UNL     1      -3.495 -12.576   3.951  0.00  0.00    +0.054 A 
ATOM     23  C   UNL     1      -3.217 -13.173   2.697  0.00  0.00    +0.042 A 
ATOM     25  C   UNL     1      -4.359 -13.025   1.944  0.00  0.00    +0.196 A 
ENDBRANCH  19  20
ENDBRANCH  15   7
TORSDOF 6
ENDMDL
MODEL 8
REMARK VINA RESULT:      -6.8     16.525     19.470
REMARK  Name = 11879564
REMARK  8 active torsions:
REMARK  status: ('A' for Active; 'I' for Inactive)
REMARK    1  A    between atoms: O_3  and  C_18
REMARK    2  A    between atoms: O_3  and  C_21
REMARK    3  A    between atoms: N_6  and  C_14
REMARK    4  A    between atoms: N_7  and  C_15
REMARK    5  A    between atoms: N_11  and  C_27
REMARK    6  A    between atoms: N_11  and  C_30
REMARK    7  A    between atoms: N_11  and  C_31
REMARK    8  A    between atoms: C_19  and  C_20
REMARK                            x       y       z     vdW  Elec       q    Type
REMARK                         _______ _______ _______ _____ _____    ______ ____
ROOT
ATOM      1  O   UNL     1      14.341   7.274   4.398  0.00  0.00    -0.370 OA
ATOM      2  O   UNL     1      15.602   8.184   1.663  0.00  0.00    -0.370 OA
ATOM     12  C   UNL     1      15.272   6.905   2.234  0.00  0.00    +0.176 C 
ATOM     13  C   UNL     1      15.573   6.984   3.717  0.00  0.00    +0.171 C 
ATOM     14  C   UNL     1      13.774   6.676   2.156  0.00  0.00    +0.171 C 
ATOM     15  C   UNL     1      16.528   8.151   3.843  0.00  0.00    +0.130 C 
ATOM     16  C   UNL     1      13.264   7.301   3.451  0.00  0.00    +0.190 C 
ATOM     17  C   UNL     1      16.095   9.047   2.697  0.00  0.00    +0.185 C 
ENDROOT
BRANCH  14   6
ATOM      6  N   UNL     1      13.430   5.264   1.972  0.00  0.00    -0.187 N 
ATOM      8  N   UNL     1      14.384   4.334   1.863  0.00  0.00    -0.041 NA
ATOM      9  N   UNL     1      12.365   3.400   1.721  0.00  0.00    -0.071 NA
ATOM     10  N   UNL     1      13.725   3.192   1.709  0.00  0.00    -0.020 NA
ATOM     18  C   UNL     1      12.206   4.694   1.885  0.00  0.00    +0.342 A 
BRANCH  18   3
ATOM      3  O   UNL     1      11.060   5.345   1.956  0.00  0.00    -0.423 OA
BRANCH   3  21
ATOM     21  C   UNL     1      10.377   5.530   3.150  0.00  0.00    +0.134 A 
ATOM     24  C   UNL     1       9.706   6.719   3.361  0.00  0.00    +0.069 A 
ATOM     26  C   UNL     1      10.386   4.519   4.092  0.00  0.00    +0.046 A 
ATOM     27  C   UNL     1       9.018   6.904   4.561  0.00  0.00    +0.033 A 
ATOM     28  C   UNL     1       9.699   4.704   5.291  0.00  0.00    +0.005 A 
ATOM     29  C   UNL     1       9.015   5.897   5.525  0.00  0.00    +0.023 A 
BRANCH  27  11
ATOM     11  N   UNL     1       8.326   8.110   4.798  0.00  0.00    -0.336 N 
ATOM     30  C   UNL     1       8.317   8.702   6.122  0.00  0.00    +0.129 C 
ATOM     31  C   UNL     1       7.605   8.766   3.726  0.00  0.00    +0.129 C 
ENDBRANCH  27  11
ENDBRANCH   3  21
ENDBRANCH  18   3
ENDBRANCH  14   6
BRANCH  15   7
ATOM      4  O   UNL     1      18.662   8.505   5.730  0.00  0.00    -0.267 OA
ATOM      7  N   UNL     1      17.897   7.725   3.685  0.00  0.00    -0.301 N 
ATOM     19  C   UNL     1      18.862   7.942   4.657  0.00  0.00    +0.280 C 
ATOM     32  H   UNL     1      18.172   7.292   2.807  0.00  0.00    +0.150 HD
BRANCH  19  20
ATOM      5  O   UNL     1      20.507   7.358   3.034  0.00  0.00    -0.458 OA
ATOM     20  C   UNL     1      20.232   7.466   4.331  0.00  0.00    +0.189 A 
ATOM     22  C   UNL     1      21.231   7.129   5.149  0.00  0.00    +0.054 A 
ATOM     23  C   UNL     1      22.282   6.758   4.277  0.00  0.00    +0.042 A 
ATOM     25  C   UNL     1      21.792   6.915   3.000  0.00  0.00    +0.196 A 
ENDBRANCH  19  20
ENDBRANCH  15   7
TORSDOF 6
ENDMDL
MODEL 9
REMARK VINA RESULT:      -6.7     26.884     30.082
REMARK  Name = 11879564
REMARK  8 active torsions:
REMARK  status: ('A' for Active; 'I' for Inactive)
REMARK    1  A    between atoms: O_3  and  C_18
REMARK    2  A    between atoms: O_3  and  C_21
REMARK    3  A    between atoms: N_6  and  C_14
REMARK    4  A    between atoms: N_7  and  C_15
REMARK    5  A    between atoms: N_11  and  C_27
REMARK    6  A    between atoms: N_11  and  C_30
REMARK    7  A    between atoms: N_11  and  C_31
REMARK    8  A    between atoms: C_19  and  C_20
REMARK                            x       y       z     vdW  Elec       q    Type
REMARK                         _______ _______ _______ _____ _____    ______ ____
ROOT
ATOM      1  O   UNL     1     -16.712   4.233  22.385  0.00  0.00    -0.370 OA
ATOM      2  O   UNL     1     -13.920   4.415  23.821  0.00  0.00    -0.370 OA
ATOM     12  C   UNL     1     -15.262   4.772  24.199  0.00  0.00    +0.176 C 
ATOM     13  C   UNL     1     -15.949   5.307  22.958  0.00  0.00    +0.171 C 
ATOM     14  C   UNL     1     -16.043   3.525  24.565  0.00  0.00    +0.171 C 
ATOM     15  C   UNL     1     -14.813   5.693  22.038  0.00  0.00    +0.130 C 
ATOM     16  C   UNL     1     -16.619   3.075  23.226  0.00  0.00    +0.190 C 
ATOM     17  C   UNL     1     -13.731   4.703  22.428  0.00  0.00    +0.185 C 
ENDROOT
BRANCH  14   6
ATOM      6  N   UNL     1     -17.034   3.770  25.615  0.00  0.00    -0.187 N 
ATOM      8  N   UNL     1     -18.311   4.021  25.309  0.00  0.00    -0.041 NA
ATOM      9  N   UNL     1     -18.019   4.049  27.519  0.00  0.00    -0.071 NA
ATOM     10  N   UNL     1     -18.911   4.191  26.480  0.00  0.00    -0.020 NA
ATOM     18  C   UNL     1     -16.861   3.788  26.957  0.00  0.00    +0.342 A 
BRANCH  18   3
ATOM      3  O   UNL     1     -15.714   3.578  27.576  0.00  0.00    -0.423 OA
BRANCH   3  21
ATOM     21  C   UNL     1     -15.583   2.674  28.622  0.00  0.00    +0.134 A 
ATOM     24  C   UNL     1     -14.953   3.079  29.783  0.00  0.00    +0.069 A 
ATOM     26  C   UNL     1     -16.086   1.396  28.471  0.00  0.00    +0.046 A 
ATOM     27  C   UNL     1     -14.822   2.171  30.834  0.00  0.00    +0.033 A 
ATOM     28  C   UNL     1     -15.955   0.488  29.522  0.00  0.00    +0.005 A 
ATOM     29  C   UNL     1     -15.323   0.876  30.703  0.00  0.00    +0.023 A 
BRANCH  27  11
ATOM     11  N   UNL     1     -14.183   2.562  32.029  0.00  0.00    -0.336 N 
ATOM     30  C   UNL     1     -13.083   3.505  31.998  0.00  0.00    +0.129 C 
ATOM     31  C   UNL     1     -14.611   2.016  33.302  0.00  0.00    +0.129 C 
ENDBRANCH  27  11
ENDBRANCH   3  21
ENDBRANCH  18   3
ENDBRANCH  14   6
BRANCH  15   7
ATOM      4  O   UNL     1     -13.155   7.292  20.323  0.00  0.00    -0.267 OA
ATOM      7  N   UNL     1     -14.389   7.052  22.272  0.00  0.00    -0.301 N 
ATOM     19  C   UNL     1     -13.584   7.745  21.381  0.00  0.00    +0.280 C 
ATOM     32  H   UNL     1     -14.652   7.498  23.147  0.00  0.00    +0.150 HD
BRANCH  19  20
ATOM      5  O   UNL     1     -12.550   9.830  20.866  0.00  0.00    -0.458 OA
ATOM     20  C   UNL     1     -13.213   9.128  21.781  0.00  0.00    +0.189 A 
ATOM     22  C   UNL     1     -13.446   9.772  22.926  0.00  0.00    +0.054 A 
ATOM     23  C   UNL     1     -12.864  11.048  22.730  0.00  0.00    +0.042 A 
ATOM     25  C   UNL     1     -12.332  11.033  21.460  0.00  0.00    +0.196 A 
ENDBRANCH  19  20
ENDBRANCH  15   7
TORSDOF 6
ENDMDL
MODEL 10
REMARK VINA RESULT:      -6.5     15.142     17.889
REMARK  Name = 11879564
REMARK  8 active torsions:
REMARK  status: ('A' for Active; 'I' for Inactive)
REMARK    1  A    between atoms: O_3  and  C_18
REMARK    2  A    between atoms: O_3  and  C_21
REMARK    3  A    between atoms: N_6  and  C_14
REMARK    4  A    between atoms: N_7  and  C_15
REMARK    5  A    between atoms: N_11  and  C_27
REMARK    6  A    between atoms: N_11  and  C_30
REMARK    7  A    between atoms: N_11  and  C_31
REMARK    8  A    between atoms: C_19  and  C_20
REMARK                            x       y       z     vdW  Elec       q    Type
REMARK                         _______ _______ _______ _____ _____    ______ ____
ROOT
ATOM      1  O   UNL     1      12.313   9.309   7.000  0.00  0.00    -0.370 OA
ATOM      2  O   UNL     1      13.215   9.194   3.990  0.00  0.00    -0.370 OA
ATOM     12  C   UNL     1      12.868   8.196   4.967  0.00  0.00    +0.176 C 
ATOM     13  C   UNL     1      13.398   8.675   6.304  0.00  0.00    +0.171 C 
ATOM     14  C   UNL     1      11.363   8.147   5.143  0.00  0.00    +0.171 C 
ATOM     15  C   UNL     1      14.456   9.694   5.944  0.00  0.00    +0.130 C 
ATOM     16  C   UNL     1      11.110   9.190   6.227  0.00  0.00    +0.190 C 
ATOM     17  C   UNL     1      13.931  10.255   4.635  0.00  0.00    +0.185 C 
ENDROOT
BRANCH  14   6
ATOM      6  N   UNL     1      10.876   6.800   5.452  0.00  0.00    -0.187 N 
ATOM      8  N   UNL     1      10.623   6.435   6.713  0.00  0.00    -0.041 NA
ATOM      9  N   UNL     1      10.200   4.753   5.312  0.00  0.00    -0.071 NA
ATOM     10  N   UNL     1      10.208   5.178   6.621  0.00  0.00    -0.020 NA
ATOM     18  C   UNL     1      10.618   5.777   4.605  0.00  0.00    +0.342 A 
BRANCH  18   3
ATOM      3  O   UNL     1      10.768   5.821   3.294  0.00  0.00    -0.423 OA
BRANCH   3  21
ATOM     21  C   UNL     1      11.813   5.185   2.639  0.00  0.00    +0.134 A 
ATOM     24  C   UNL     1      12.932   5.917   2.291  0.00  0.00    +0.069 A 
ATOM     26  C   UNL     1      11.704   3.838   2.352  0.00  0.00    +0.046 A 
ATOM     27  C   UNL     1      13.982   5.278   1.633  0.00  0.00    +0.033 A 
ATOM     28  C   UNL     1      12.754   3.198   1.694  0.00  0.00    +0.005 A 
ATOM     29  C   UNL     1      13.893   3.918   1.335  0.00  0.00    +0.023 A 
BRANCH  27  11
ATOM     11  N   UNL     1      15.135   6.005   1.269  0.00  0.00    -0.336 N 
ATOM     30  C   UNL     1      15.938   5.589   0.136  0.00  0.00    +0.129 C 
ATOM     31  C   UNL     1      15.538   7.170   2.031  0.00  0.00    +0.129 C 
ENDBRANCH  27  11
ENDBRANCH   3  21
ENDBRANCH  18   3
ENDBRANCH  14   6
BRANCH  15   7
ATOM      4  O   UNL     1      17.022  10.894   6.411  0.00  0.00    -0.267 OA
ATOM      7  N   UNL     1      15.744   9.070   5.766  0.00  0.00    -0.301 N 
ATOM     19  C   UNL     1      16.935   9.733   6.019  0.00  0.00    +0.280 C 
ATOM     32  H   UNL     1      15.777   8.123   5.396  0.00  0.00    +0.150 HD
BRANCH  19  20
ATOM      5  O   UNL     1      18.275   8.417   4.551  0.00  0.00    -0.458 OA
ATOM     20  C   UNL     1      18.178   8.959   5.762  0.00  0.00    +0.189 A 
ATOM     22  C   UNL     1      19.215   8.726   6.568  0.00  0.00    +0.054 A 
ATOM     23  C   UNL     1      20.092   7.937   5.785  0.00  0.00    +0.042 A 
ATOM     25  C   UNL     1      19.473   7.777   4.565  0.00  0.00    +0.196 A 
ENDBRANCH  19  20
ENDBRANCH  15   7
TORSDOF 6
ENDMDL
