MODEL 1
REMARK VINA RESULT:      -6.6      0.000      0.000
REMARK  Name = 40777123
REMARK  10 active torsions:
REMARK  status: ('A' for Active; 'I' for Inactive)
REMARK    1  A    between atoms: N_4  and  C_14
REMARK    2  A    between atoms: C_8  and  C_15
REMARK    3  A    between atoms: C_9  and  C_14
REMARK    4  A    between atoms: C_17  and  C_20
REMARK    5  A    between atoms: C_18  and  C_21
REMARK    6  A    between atoms: C_19  and  C_22
REMARK    7  A    between atoms: C_27  and  C_28
REMARK    8  A    between atoms: C_27  and  C_33
REMARK    9  A    between atoms: C_27  and  C_34
REMARK   10  A    between atoms: C_27  and  C_35
REMARK                            x       y       z     vdW  Elec       q    Type
REMARK                         _______ _______ _______ _____ _____    ______ ____
ROOT
ATOM      3  N   UNL     1      -5.054 -11.397   9.721  0.00  0.00    -0.297 NA
ATOM      7  C   UNL     1      -4.519  -9.183  10.983  0.00  0.00    +0.002 C 
ATOM      8  C   UNL     1      -3.710 -10.364  11.588  0.00  0.00    +0.055 C 
ATOM      9  C   UNL     1      -6.317 -10.717  10.112  0.00  0.00    +0.074 C 
ATOM     10  C   UNL     1      -6.025  -9.516  11.037  0.00  0.00    +0.024 C 
ATOM     11  C   UNL     1      -4.127  -9.093   9.493  0.00  0.00    +0.019 C 
ATOM     12  C   UNL     1      -4.229 -11.671  10.924  0.00  0.00    +0.094 C 
ATOM     13  C   UNL     1      -4.297 -10.476   8.840  0.00  0.00    +0.085 C 
ENDROOT
BRANCH   8  15
ATOM      5  N   UNL     1      -2.398 -10.498  13.649  0.00  0.00    -0.237 NA
ATOM      6  N   UNL     1      -3.429 -10.684  15.819  0.00  0.00    -0.232 NA
ATOM     15  C   UNL     1      -3.632 -10.478  13.104  0.00  0.00    +0.050 A 
ATOM     16  C   UNL     1      -4.796 -10.556  13.841  0.00  0.00    +0.052 A 
ATOM     17  C   UNL     1      -4.632 -10.658  15.208  0.00  0.00    +0.076 A 
ATOM     19  C   UNL     1      -2.370 -10.602  14.991  0.00  0.00    +0.127 A 
ATOM     22  C   UNL     1      -1.023 -10.628  15.629  0.00  0.00    +0.088 C 
BRANCH  17  20
ATOM      1 BR   UNL     1      -5.610 -13.632  15.862  0.00  0.00    -0.050 Br
ATOM     20  C   UNL     1      -5.771 -10.749  16.090  0.00  0.00    +0.014 A 
ATOM     25  C   UNL     1      -6.316 -11.975  16.470  0.00  0.00    +0.027 A 
ATOM     26  C   UNL     1      -6.327  -9.562  16.565  0.00  0.00    +0.011 A 
ATOM     31  C   UNL     1      -7.417 -12.014  17.325  0.00  0.00    +0.016 A 
ATOM     32  C   UNL     1      -7.429  -9.600  17.420  0.00  0.00    +0.001 A 
ATOM     36  C   UNL     1      -7.973 -10.826  17.800  0.00  0.00    +0.001 A 
ENDBRANCH  17  20
ENDBRANCH   8  15
BRANCH   9  14
ATOM     14  C   UNL     1      -7.330 -11.681  10.733  0.00  0.00    +0.123 C 
BRANCH  14   4
ATOM      2  O   UNL     1      -7.937 -12.745  13.329  0.00  0.00    -0.270 OA
ATOM      4  N   UNL     1      -8.082 -11.037  11.765  0.00  0.00    -0.310 N 
ATOM     18  C   UNL     1      -8.331 -11.628  13.002  0.00  0.00    +0.244 C 
ATOM     37  H   UNL     1      -8.489 -10.137  11.538  0.00  0.00    +0.149 HD
BRANCH  18  21
ATOM     21  C   UNL     1      -9.150 -10.840  13.957  0.00  0.00    +0.037 A 
ATOM     23  C   UNL     1     -10.056 -11.486  14.799  0.00  0.00    +0.013 A 
ATOM     24  C   UNL     1      -9.016  -9.452  14.012  0.00  0.00    +0.013 A 
ATOM     28  C   UNL     1     -10.691  -9.357  15.750  0.00  0.00    -0.042 A 
ATOM     29  C   UNL     1     -10.827 -10.745  15.695  0.00  0.00    +0.005 A 
ATOM     30  C   UNL     1      -9.785  -8.711  14.909  0.00  0.00    +0.005 A 
BRANCH  28  27
ATOM     27  C   UNL     1     -11.514  -8.565  16.708  0.00  0.00    -0.013 C 
ATOM     33  C   UNL     1     -10.933  -7.130  16.902  0.00  0.00    +0.015 C 
ATOM     34  C   UNL     1     -11.563  -9.247  18.110  0.00  0.00    +0.015 C 
ATOM     35  C   UNL     1     -13.009  -8.355  16.296  0.00  0.00    +0.015 C 
ENDBRANCH  28  27
ENDBRANCH  18  21
ENDBRANCH  14   4
ENDBRANCH   9  14
TORSDOF 6
ENDMDL
MODEL 2
REMARK VINA RESULT:      -6.5      2.253      3.679
REMARK  Name = 40777123
REMARK  10 active torsions:
REMARK  status: ('A' for Active; 'I' for Inactive)
REMARK    1  A    between atoms: N_4  and  C_14
REMARK    2  A    between atoms: C_8  and  C_15
REMARK    3  A    between atoms: C_9  and  C_14
REMARK    4  A    between atoms: C_17  and  C_20
REMARK    5  A    between atoms: C_18  and  C_21
REMARK    6  A    between atoms: C_19  and  C_22
REMARK    7  A    between atoms: C_27  and  C_28
REMARK    8  A    between atoms: C_27  and  C_33
REMARK    9  A    between atoms: C_27  and  C_34
REMARK   10  A    between atoms: C_27  and  C_35
REMARK                            x       y       z     vdW  Elec       q    Type
REMARK                         _______ _______ _______ _____ _____    ______ ____
ROOT
ATOM      3  N   UNL     1      -5.743 -10.439   9.472  0.00  0.00    -0.297 NA
ATOM      7  C   UNL     1      -3.871  -9.102  10.695  0.00  0.00    +0.002 C 
ATOM      8  C   UNL     1      -3.716 -10.625  10.963  0.00  0.00    +0.055 C 
ATOM      9  C   UNL     1      -6.341  -9.321  10.248  0.00  0.00    +0.074 C 
ATOM     10  C   UNL     1      -5.277  -8.647  11.140  0.00  0.00    +0.024 C 
ATOM     11  C   UNL     1      -3.796  -8.910   9.165  0.00  0.00    +0.019 C 
ATOM     12  C   UNL     1      -4.972 -11.330  10.375  0.00  0.00    +0.094 C 
ATOM     13  C   UNL     1      -4.803  -9.854   8.485  0.00  0.00    +0.085 C 
ENDROOT
BRANCH   8  15
ATOM      5  N   UNL     1      -2.563 -10.309  13.097  0.00  0.00    -0.237 NA
ATOM      6  N   UNL     1      -2.828 -11.839  14.939  0.00  0.00    -0.232 NA
ATOM     15  C   UNL     1      -3.412 -11.076  12.385  0.00  0.00    +0.050 A 
ATOM     16  C   UNL     1      -4.002 -12.225  12.874  0.00  0.00    +0.052 A 
ATOM     17  C   UNL     1      -3.671 -12.560  14.171  0.00  0.00    +0.076 A 
ATOM     19  C   UNL     1      -2.319 -10.742  14.348  0.00  0.00    +0.127 A 
ATOM     22  C   UNL     1      -1.382  -9.919  15.167  0.00  0.00    +0.088 C 
BRANCH  17  20
ATOM      1 BR   UNL     1      -1.884 -15.198  13.899  0.00  0.00    -0.050 Br
ATOM     20  C   UNL     1      -4.219 -13.739  14.799  0.00  0.00    +0.014 A 
ATOM     25  C   UNL     1      -3.559 -14.967  14.768  0.00  0.00    +0.027 A 
ATOM     26  C   UNL     1      -5.446 -13.622  15.450  0.00  0.00    +0.011 A 
ATOM     31  C   UNL     1      -4.126 -16.079  15.389  0.00  0.00    +0.016 A 
ATOM     32  C   UNL     1      -6.015 -14.735  16.070  0.00  0.00    +0.001 A 
ATOM     36  C   UNL     1      -5.355 -15.963  16.040  0.00  0.00    +0.001 A 
ENDBRANCH  17  20
ENDBRANCH   8  15
BRANCH   9  14
ATOM     14  C   UNL     1      -7.565  -9.760  11.053  0.00  0.00    +0.123 C 
BRANCH  14   4
ATOM      2  O   UNL     1      -9.238  -9.523  13.374  0.00  0.00    -0.270 OA
ATOM      4  N   UNL     1      -7.205 -10.072  12.401  0.00  0.00    -0.310 N 
ATOM     18  C   UNL     1      -8.082  -9.927  13.474  0.00  0.00    +0.244 C 
ATOM     37  H   UNL     1      -6.243 -10.352  12.563  0.00  0.00    +0.149 HD
BRANCH  18  21
ATOM     21  C   UNL     1      -7.547 -10.269  14.816  0.00  0.00    +0.037 A 
ATOM     23  C   UNL     1      -8.352 -10.935  15.741  0.00  0.00    +0.013 A 
ATOM     24  C   UNL     1      -6.238  -9.923  15.154  0.00  0.00    +0.013 A 
ATOM     28  C   UNL     1      -6.541 -10.908  17.339  0.00  0.00    -0.042 A 
ATOM     29  C   UNL     1      -7.849 -11.255  17.002  0.00  0.00    +0.005 A 
ATOM     30  C   UNL     1      -5.735 -10.243  16.415  0.00  0.00    +0.005 A 
BRANCH  28  27
ATOM     27  C   UNL     1      -6.002 -11.250  18.687  0.00  0.00    -0.013 C 
ATOM     33  C   UNL     1      -6.279 -10.107  19.713  0.00  0.00    +0.015 C 
ATOM     34  C   UNL     1      -4.460 -11.477  18.639  0.00  0.00    +0.015 C 
ATOM     35  C   UNL     1      -6.593 -12.544  19.337  0.00  0.00    +0.015 C 
ENDBRANCH  28  27
ENDBRANCH  18  21
ENDBRANCH  14   4
ENDBRANCH   9  14
TORSDOF 6
ENDMDL
MODEL 3
REMARK VINA RESULT:      -6.2     24.201     27.492
REMARK  Name = 40777123
REMARK  10 active torsions:
REMARK  status: ('A' for Active; 'I' for Inactive)
REMARK    1  A    between atoms: N_4  and  C_14
REMARK    2  A    between atoms: C_8  and  C_15
REMARK    3  A    between atoms: C_9  and  C_14
REMARK    4  A    between atoms: C_17  and  C_20
REMARK    5  A    between atoms: C_18  and  C_21
REMARK    6  A    between atoms: C_19  and  C_22
REMARK    7  A    between atoms: C_27  and  C_28
REMARK    8  A    between atoms: C_27  and  C_33
REMARK    9  A    between atoms: C_27  and  C_34
REMARK   10  A    between atoms: C_27  and  C_35
REMARK                            x       y       z     vdW  Elec       q    Type
REMARK                         _______ _______ _______ _____ _____    ______ ____
ROOT
ATOM      3  N   UNL     1       9.930   6.892   7.684  0.00  0.00    -0.297 NA
ATOM      7  C   UNL     1       9.823   5.068   5.828  0.00  0.00    +0.002 C 
ATOM      8  C   UNL     1      11.132   5.895   5.703  0.00  0.00    +0.055 C 
ATOM      9  C   UNL     1       8.616   6.948   6.992  0.00  0.00    +0.074 C 
ATOM     10  C   UNL     1       8.610   6.019   5.758  0.00  0.00    +0.024 C 
ATOM     11  C   UNL     1       9.827   4.440   7.238  0.00  0.00    +0.019 C 
ATOM     12  C   UNL     1      11.030   7.080   6.706  0.00  0.00    +0.094 C 
ATOM     13  C   UNL     1      10.070   5.542   8.283  0.00  0.00    +0.085 C 
ENDROOT
BRANCH   8  15
ATOM      5  N   UNL     1      12.276   7.493   4.245  0.00  0.00    -0.237 NA
ATOM      6  N   UNL     1      12.368   7.211   1.853  0.00  0.00    -0.232 NA
ATOM     15  C   UNL     1      11.566   6.348   4.316  0.00  0.00    +0.050 A 
ATOM     16  C   UNL     1      11.222   5.590   3.215  0.00  0.00    +0.052 A 
ATOM     17  C   UNL     1      11.655   6.074   1.998  0.00  0.00    +0.076 A 
ATOM     19  C   UNL     1      12.639   7.860   3.002  0.00  0.00    +0.127 A 
ATOM     22  C   UNL     1      13.425   9.122   2.883  0.00  0.00    +0.088 C 
BRANCH  17  20
ATOM      1 BR   UNL     1      13.684   3.715   1.256  0.00  0.00    -0.050 Br
ATOM     20  C   UNL     1      11.360   5.375   0.769  0.00  0.00    +0.014 A 
ATOM     25  C   UNL     1      12.151   4.322   0.310  0.00  0.00    +0.027 A 
ATOM     26  C   UNL     1      10.246   5.781   0.037  0.00  0.00    +0.011 A 
ATOM     31  C   UNL     1      11.827   3.675  -0.883  0.00  0.00    +0.016 A 
ATOM     32  C   UNL     1       9.921   5.136  -1.156  0.00  0.00    +0.001 A 
ATOM     36  C   UNL     1      10.712   4.083  -1.616  0.00  0.00    +0.001 A 
ENDBRANCH  17  20
ENDBRANCH   8  15
BRANCH   9  14
ATOM     14  C   UNL     1       8.208   8.378   6.631  0.00  0.00    +0.123 C 
BRANCH  14   4
ATOM      2  O   UNL     1       9.811   9.729   4.670  0.00  0.00    -0.270 OA
ATOM      4  N   UNL     1       7.931   8.492   5.232  0.00  0.00    -0.310 N 
ATOM     18  C   UNL     1       8.767   9.169   4.347  0.00  0.00    +0.244 C 
ATOM     37  H   UNL     1       7.051   8.105   4.909  0.00  0.00    +0.149 HD
BRANCH  18  21
ATOM     21  C   UNL     1       8.326   9.221   2.930  0.00  0.00    +0.037 A 
ATOM     23  C   UNL     1       9.233   8.949   1.905  0.00  0.00    +0.013 A 
ATOM     24  C   UNL     1       7.003   9.542   2.622  0.00  0.00    +0.013 A 
ATOM     28  C   UNL     1       7.496   9.320   0.268  0.00  0.00    -0.042 A 
ATOM     29  C   UNL     1       8.818   8.999   0.575  0.00  0.00    +0.005 A 
ATOM     30  C   UNL     1       6.588   9.591   1.292  0.00  0.00    +0.005 A 
BRANCH  28  27
ATOM     27  C   UNL     1       7.052   9.373  -1.155  0.00  0.00    -0.013 C 
ATOM     33  C   UNL     1       5.506   9.196  -1.272  0.00  0.00    +0.015 C 
ATOM     34  C   UNL     1       7.720   8.243  -1.998  0.00  0.00    +0.015 C 
ATOM     35  C   UNL     1       7.377  10.703  -1.911  0.00  0.00    +0.015 C 
ENDBRANCH  28  27
ENDBRANCH  18  21
ENDBRANCH  14   4
ENDBRANCH   9  14
TORSDOF 6
ENDMDL
MODEL 4
REMARK VINA RESULT:      -6.1     24.905     28.612
REMARK  Name = 40777123
REMARK  10 active torsions:
REMARK  status: ('A' for Active; 'I' for Inactive)
REMARK    1  A    between atoms: N_4  and  C_14
REMARK    2  A    between atoms: C_8  and  C_15
REMARK    3  A    between atoms: C_9  and  C_14
REMARK    4  A    between atoms: C_17  and  C_20
REMARK    5  A    between atoms: C_18  and  C_21
REMARK    6  A    between atoms: C_19  and  C_22
REMARK    7  A    between atoms: C_27  and  C_28
REMARK    8  A    between atoms: C_27  and  C_33
REMARK    9  A    between atoms: C_27  and  C_34
REMARK   10  A    between atoms: C_27  and  C_35
REMARK                            x       y       z     vdW  Elec       q    Type
REMARK                         _______ _______ _______ _____ _____    ______ ____
ROOT
ATOM      3  N   UNL     1       8.692   6.279   6.262  0.00  0.00    -0.297 NA
ATOM      7  C   UNL     1       9.905   8.430   5.435  0.00  0.00    +0.002 C 
ATOM      8  C   UNL     1       8.564   8.236   4.675  0.00  0.00    +0.055 C 
ATOM      9  C   UNL     1      10.108   5.968   5.930  0.00  0.00    +0.074 C 
ATOM     10  C   UNL     1      10.784   7.176   5.246  0.00  0.00    +0.024 C 
ATOM     11  C   UNL     1       9.559   8.519   6.936  0.00  0.00    +0.019 C 
ATOM     12  C   UNL     1       8.003   6.841   5.074  0.00  0.00    +0.094 C 
ATOM     13  C   UNL     1       8.692   7.310   7.328  0.00  0.00    +0.085 C 
ENDROOT
BRANCH   8  15
ATOM      5  N   UNL     1       7.698   9.384   2.696  0.00  0.00    -0.237 NA
ATOM      6  N   UNL     1       8.488   8.887   0.474  0.00  0.00    -0.232 NA
ATOM     15  C   UNL     1       8.553   8.454   3.169  0.00  0.00    +0.050 A 
ATOM     16  C   UNL     1       9.396   7.710   2.368  0.00  0.00    +0.052 A 
ATOM     17  C   UNL     1       9.320   7.973   1.015  0.00  0.00    +0.076 A 
ATOM     19  C   UNL     1       7.717   9.546   1.360  0.00  0.00    +0.127 A 
ATOM     22  C   UNL     1       6.783  10.566   0.799  0.00  0.00    +0.088 C 
BRANCH  17  20
ATOM      1 BR   UNL     1      11.870   9.588  -0.042  0.00  0.00    -0.050 Br
ATOM     20  C   UNL     1      10.148   7.261   0.071  0.00  0.00    +0.014 A 
ATOM     25  C   UNL     1      11.295   7.829  -0.482  0.00  0.00    +0.027 A 
ATOM     26  C   UNL     1       9.770   5.967  -0.286  0.00  0.00    +0.011 A 
ATOM     31  C   UNL     1      12.065   7.104  -1.391  0.00  0.00    +0.016 A 
ATOM     32  C   UNL     1      10.538   5.241  -1.195  0.00  0.00    +0.001 A 
ATOM     36  C   UNL     1      11.686   5.810  -1.748  0.00  0.00    +0.001 A 
ENDBRANCH  17  20
ENDBRANCH   8  15
BRANCH   9  14
ATOM     14  C   UNL     1      10.245   4.691   5.099  0.00  0.00    +0.123 C 
BRANCH  14   4
ATOM      2  O   UNL     1      10.199   3.755   2.386  0.00  0.00    -0.270 OA
ATOM      4  N   UNL     1      11.291   4.820   4.133  0.00  0.00    -0.310 N 
ATOM     18  C   UNL     1      11.185   4.335   2.832  0.00  0.00    +0.244 C 
ATOM     37  H   UNL     1      12.160   5.235   4.454  0.00  0.00    +0.149 HD
BRANCH  18  21
ATOM     21  C   UNL     1      12.371   4.525   1.958  0.00  0.00    +0.037 A 
ATOM     23  C   UNL     1      12.779   3.501   1.102  0.00  0.00    +0.013 A 
ATOM     24  C   UNL     1      13.078   5.727   1.992  0.00  0.00    +0.013 A 
ATOM     28  C   UNL     1      14.600   4.881   0.317  0.00  0.00    -0.042 A 
ATOM     29  C   UNL     1      13.893   3.679   0.282  0.00  0.00    +0.005 A 
ATOM     30  C   UNL     1      14.192   5.906   1.172  0.00  0.00    +0.005 A 
BRANCH  28  27
ATOM     27  C   UNL     1      15.791   5.073  -0.560  0.00  0.00    -0.013 C 
ATOM     33  C   UNL     1      16.625   6.315  -0.118  0.00  0.00    +0.015 C 
ATOM     34  C   UNL     1      15.369   5.293  -2.046  0.00  0.00    +0.015 C 
ATOM     35  C   UNL     1      16.803   3.880  -0.586  0.00  0.00    +0.015 C 
ENDBRANCH  28  27
ENDBRANCH  18  21
ENDBRANCH  14   4
ENDBRANCH   9  14
TORSDOF 6
ENDMDL
MODEL 5
REMARK VINA RESULT:      -6.0     26.333     29.996
REMARK  Name = 40777123
REMARK  10 active torsions:
REMARK  status: ('A' for Active; 'I' for Inactive)
REMARK    1  A    between atoms: N_4  and  C_14
REMARK    2  A    between atoms: C_8  and  C_15
REMARK    3  A    between atoms: C_9  and  C_14
REMARK    4  A    between atoms: C_17  and  C_20
REMARK    5  A    between atoms: C_18  and  C_21
REMARK    6  A    between atoms: C_19  and  C_22
REMARK    7  A    between atoms: C_27  and  C_28
REMARK    8  A    between atoms: C_27  and  C_33
REMARK    9  A    between atoms: C_27  and  C_34
REMARK   10  A    between atoms: C_27  and  C_35
REMARK                            x       y       z     vdW  Elec       q    Type
REMARK                         _______ _______ _______ _____ _____    ______ ____
ROOT
ATOM      3  N   UNL     1      18.768  -2.763  32.858  0.00  0.00    -0.297 NA
ATOM      7  C   UNL     1      16.359  -2.330  31.966  0.00  0.00    +0.002 C 
ATOM      8  C   UNL     1      16.636  -3.855  32.065  0.00  0.00    +0.055 C 
ATOM      9  C   UNL     1      18.809  -1.788  31.735  0.00  0.00    +0.074 C 
ATOM     10  C   UNL     1      17.425  -1.676  31.060  0.00  0.00    +0.024 C 
ATOM     11  C   UNL     1      16.550  -1.749  33.383  0.00  0.00    +0.019 C 
ATOM     12  C   UNL     1      18.144  -4.032  32.407  0.00  0.00    +0.094 C 
ATOM     13  C   UNL     1      17.921  -2.186  33.929  0.00  0.00    +0.085 C 
ENDROOT
BRANCH   8  15
ATOM      5  N   UNL     1      15.025  -5.392  31.051  0.00  0.00    -0.237 NA
ATOM      6  N   UNL     1      15.364  -6.349  28.865  0.00  0.00    -0.232 NA
ATOM     15  C   UNL     1      16.198  -4.742  30.908  0.00  0.00    +0.050 A 
ATOM     16  C   UNL     1      17.000  -4.844  29.789  0.00  0.00    +0.052 A 
ATOM     17  C   UNL     1      16.527  -5.669  28.789  0.00  0.00    +0.076 A 
ATOM     19  C   UNL     1      14.674  -6.167  30.007  0.00  0.00    +0.127 A 
ATOM     22  C   UNL     1      13.382  -6.902  30.130  0.00  0.00    +0.088 C 
BRANCH  17  20
ATOM      1 BR   UNL     1      19.686  -5.994  29.163  0.00  0.00    -0.050 Br
ATOM     20  C   UNL     1      17.272  -5.863  27.568  0.00  0.00    +0.014 A 
ATOM     25  C   UNL     1      18.658  -6.021  27.564  0.00  0.00    +0.027 A 
ATOM     26  C   UNL     1      16.564  -5.890  26.367  0.00  0.00    +0.011 A 
ATOM     31  C   UNL     1      19.336  -6.205  26.360  0.00  0.00    +0.016 A 
ATOM     32  C   UNL     1      17.242  -6.074  25.162  0.00  0.00    +0.001 A 
ATOM     36  C   UNL     1      18.628  -6.232  25.158  0.00  0.00    +0.001 A 
ENDBRANCH  17  20
ENDBRANCH   8  15
BRANCH   9  14
ATOM     14  C   UNL     1      19.912  -2.110  30.725  0.00  0.00    +0.123 C 
BRANCH  14   4
ATOM      2  O   UNL     1      21.405  -2.430  28.294  0.00  0.00    -0.270 OA
ATOM      4  N   UNL     1      19.378  -2.211  29.402  0.00  0.00    -0.310 N 
ATOM     18  C   UNL     1      20.178  -2.366  28.272  0.00  0.00    +0.244 C 
ATOM     37  H   UNL     1      18.374  -2.103  29.306  0.00  0.00    +0.149 HD
BRANCH  18  21
ATOM     21  C   UNL     1      19.473  -2.429  26.967  0.00  0.00    +0.037 A 
ATOM     23  C   UNL     1      20.202  -2.559  25.784  0.00  0.00    +0.013 A 
ATOM     24  C   UNL     1      18.080  -2.356  26.922  0.00  0.00    +0.013 A 
ATOM     28  C   UNL     1      18.146  -2.545  24.515  0.00  0.00    -0.042 A 
ATOM     29  C   UNL     1      19.539  -2.616  24.558  0.00  0.00    +0.005 A 
ATOM     30  C   UNL     1      17.416  -2.415  25.697  0.00  0.00    +0.005 A 
BRANCH  28  27
ATOM     27  C   UNL     1      17.437  -2.607  23.205  0.00  0.00    -0.013 C 
ATOM     33  C   UNL     1      18.187  -3.533  22.198  0.00  0.00    +0.015 C 
ATOM     34  C   UNL     1      17.327  -1.194  22.553  0.00  0.00    +0.015 C 
ATOM     35  C   UNL     1      15.972  -3.154  23.259  0.00  0.00    +0.015 C 
ENDBRANCH  28  27
ENDBRANCH  18  21
ENDBRANCH  14   4
ENDBRANCH   9  14
TORSDOF 6
ENDMDL
MODEL 6
REMARK VINA RESULT:      -6.0     26.677     28.545
REMARK  Name = 40777123
REMARK  10 active torsions:
REMARK  status: ('A' for Active; 'I' for Inactive)
REMARK    1  A    between atoms: N_4  and  C_14
REMARK    2  A    between atoms: C_8  and  C_15
REMARK    3  A    between atoms: C_9  and  C_14
REMARK    4  A    between atoms: C_17  and  C_20
REMARK    5  A    between atoms: C_18  and  C_21
REMARK    6  A    between atoms: C_19  and  C_22
REMARK    7  A    between atoms: C_27  and  C_28
REMARK    8  A    between atoms: C_27  and  C_33
REMARK    9  A    between atoms: C_27  and  C_34
REMARK   10  A    between atoms: C_27  and  C_35
REMARK                            x       y       z     vdW  Elec       q    Type
REMARK                         _______ _______ _______ _____ _____    ______ ____
ROOT
ATOM      3  N   UNL     1      18.287  -2.825  23.053  0.00  0.00    -0.297 NA
ATOM      7  C   UNL     1      16.890  -1.799  24.997  0.00  0.00    +0.002 C 
ATOM      8  C   UNL     1      18.364  -2.011  25.439  0.00  0.00    +0.055 C 
ATOM      9  C   UNL     1      17.039  -3.609  23.250  0.00  0.00    +0.074 C 
ATOM     10  C   UNL     1      16.301  -3.145  24.525  0.00  0.00    +0.024 C 
ATOM     11  C   UNL     1      16.923  -0.864  23.770  0.00  0.00    +0.019 C 
ATOM     12  C   UNL     1      19.079  -2.805  24.308  0.00  0.00    +0.094 C 
ATOM     13  C   UNL     1      17.901  -1.431  22.726  0.00  0.00    +0.085 C 
ENDROOT
BRANCH   8  15
ATOM      5  N   UNL     1      19.862  -3.085  27.048  0.00  0.00    -0.237 NA
ATOM      6  N   UNL     1      19.143  -3.692  29.266  0.00  0.00    -0.232 NA
ATOM     15  C   UNL     1      18.623  -2.607  26.816  0.00  0.00    +0.050 A 
ATOM     16  C   UNL     1      17.603  -2.636  27.747  0.00  0.00    +0.052 A 
ATOM     17  C   UNL     1      17.925  -3.195  28.967  0.00  0.00    +0.076 A 
ATOM     19  C   UNL     1      20.051  -3.606  28.275  0.00  0.00    +0.127 A 
ATOM     22  C   UNL     1      21.410  -4.145  28.568  0.00  0.00    +0.088 C 
BRANCH  17  20
ATOM      1 BR   UNL     1      18.015  -0.821  31.108  0.00  0.00    -0.050 Br
ATOM     20  C   UNL     1      16.947  -3.286  30.025  0.00  0.00    +0.014 A 
ATOM     25  C   UNL     1      16.859  -2.328  31.035  0.00  0.00    +0.027 A 
ATOM     26  C   UNL     1      16.075  -4.374  30.018  0.00  0.00    +0.011 A 
ATOM     31  C   UNL     1      15.899  -2.458  32.038  0.00  0.00    +0.016 A 
ATOM     32  C   UNL     1      15.114  -4.505  31.020  0.00  0.00    +0.001 A 
ATOM     36  C   UNL     1      15.026  -3.547  32.030  0.00  0.00    +0.001 A 
ENDBRANCH  17  20
ENDBRANCH   8  15
BRANCH   9  14
ATOM     14  C   UNL     1      17.292  -5.117  23.255  0.00  0.00    +0.123 C 
BRANCH  14   4
ATOM      2  O   UNL     1      19.067  -5.983  25.338  0.00  0.00    -0.270 OA
ATOM      4  N   UNL     1      16.920  -5.694  24.510  0.00  0.00    -0.310 N 
ATOM     18  C   UNL     1      17.850  -6.088  25.468  0.00  0.00    +0.244 C 
ATOM     37  H   UNL     1      15.931  -5.867  24.656  0.00  0.00    +0.149 HD
BRANCH  18  21
ATOM     21  C   UNL     1      17.304  -6.694  26.709  0.00  0.00    +0.037 A 
ATOM     23  C   UNL     1      15.932  -6.919  26.831  0.00  0.00    +0.013 A 
ATOM     24  C   UNL     1      18.162  -7.039  27.754  0.00  0.00    +0.013 A 
ATOM     28  C   UNL     1      16.277  -7.832  29.041  0.00  0.00    -0.042 A 
ATOM     29  C   UNL     1      15.419  -7.487  27.997  0.00  0.00    +0.005 A 
ATOM     30  C   UNL     1      17.649  -7.609  28.919  0.00  0.00    +0.005 A 
BRANCH  28  27
ATOM     27  C   UNL     1      15.729  -8.440  30.287  0.00  0.00    -0.013 C 
ATOM     33  C   UNL     1      16.477  -7.912  31.551  0.00  0.00    +0.015 C 
ATOM     34  C   UNL     1      15.875  -9.993  30.269  0.00  0.00    +0.015 C 
ATOM     35  C   UNL     1      14.213  -8.167  30.557  0.00  0.00    +0.015 C 
ENDBRANCH  28  27
ENDBRANCH  18  21
ENDBRANCH  14   4
ENDBRANCH   9  14
TORSDOF 6
ENDMDL
MODEL 7
REMARK VINA RESULT:      -6.0      2.774      6.205
REMARK  Name = 40777123
REMARK  10 active torsions:
REMARK  status: ('A' for Active; 'I' for Inactive)
REMARK    1  A    between atoms: N_4  and  C_14
REMARK    2  A    between atoms: C_8  and  C_15
REMARK    3  A    between atoms: C_9  and  C_14
REMARK    4  A    between atoms: C_17  and  C_20
REMARK    5  A    between atoms: C_18  and  C_21
REMARK    6  A    between atoms: C_19  and  C_22
REMARK    7  A    between atoms: C_27  and  C_28
REMARK    8  A    between atoms: C_27  and  C_33
REMARK    9  A    between atoms: C_27  and  C_34
REMARK   10  A    between atoms: C_27  and  C_35
REMARK                            x       y       z     vdW  Elec       q    Type
REMARK                         _______ _______ _______ _____ _____    ______ ____
ROOT
ATOM      3  N   UNL     1      -7.435 -11.207  17.263  0.00  0.00    -0.297 NA
ATOM      7  C   UNL     1      -5.017 -11.249  18.229  0.00  0.00    +0.002 C 
ATOM      8  C   UNL     1      -5.084 -10.342  16.969  0.00  0.00    +0.055 C 
ATOM      9  C   UNL     1      -7.003 -12.612  17.488  0.00  0.00    +0.074 C 
ATOM     10  C   UNL     1      -5.505 -12.667  17.863  0.00  0.00    +0.024 C 
ATOM     11  C   UNL     1      -6.022 -10.672  19.247  0.00  0.00    +0.019 C 
ATOM     12  C   UNL     1      -6.494 -10.527  16.338  0.00  0.00    +0.094 C 
ATOM     13  C   UNL     1      -7.392 -10.504  18.567  0.00  0.00    +0.085 C 
ENDROOT
BRANCH   8  15
ATOM      5  N   UNL     1      -2.706 -10.329  16.391  0.00  0.00    -0.237 NA
ATOM      6  N   UNL     1      -1.931 -10.663  14.134  0.00  0.00    -0.232 NA
ATOM     15  C   UNL     1      -3.970 -10.462  15.938  0.00  0.00    +0.050 A 
ATOM     16  C   UNL     1      -4.290 -10.693  14.615  0.00  0.00    +0.052 A 
ATOM     17  C   UNL     1      -3.219 -10.786  13.750  0.00  0.00    +0.076 A 
ATOM     19  C   UNL     1      -1.750 -10.439  15.449  0.00  0.00    +0.127 A 
ATOM     22  C   UNL     1      -0.340 -10.296  15.913  0.00  0.00    +0.088 C 
BRANCH  17  20
ATOM      1 BR   UNL     1      -3.392 -13.866  12.905  0.00  0.00    -0.050 Br
ATOM     20  C   UNL     1      -3.419 -11.025  12.340  0.00  0.00    +0.014 A 
ATOM     25  C   UNL     1      -3.515 -12.313  11.814  0.00  0.00    +0.027 A 
ATOM     26  C   UNL     1      -3.515  -9.919  11.497  0.00  0.00    +0.011 A 
ATOM     31  C   UNL     1      -3.708 -12.496  10.446  0.00  0.00    +0.016 A 
ATOM     32  C   UNL     1      -3.708 -10.100  10.127  0.00  0.00    +0.001 A 
ATOM     36  C   UNL     1      -3.805 -11.389   9.602  0.00  0.00    +0.001 A 
ENDBRANCH  17  20
ENDBRANCH   8  15
BRANCH   9  14
ATOM     14  C   UNL     1      -7.327 -13.519  16.301  0.00  0.00    +0.123 C 
BRANCH  14   4
ATOM      2  O   UNL     1      -6.832 -14.500  13.648  0.00  0.00    -0.270 OA
ATOM      4  N   UNL     1      -7.391 -12.768  15.086  0.00  0.00    -0.310 N 
ATOM     18  C   UNL     1      -7.135 -13.325  13.835  0.00  0.00    +0.244 C 
ATOM     37  H   UNL     1      -7.576 -11.774  15.174  0.00  0.00    +0.149 HD
BRANCH  18  21
ATOM     21  C   UNL     1      -7.218 -12.404  12.673  0.00  0.00    +0.037 A 
ATOM     23  C   UNL     1      -7.322 -12.919  11.380  0.00  0.00    +0.013 A 
ATOM     24  C   UNL     1      -7.189 -11.024  12.872  0.00  0.00    +0.013 A 
ATOM     28  C   UNL     1      -7.370 -10.674  10.489  0.00  0.00    -0.042 A 
ATOM     29  C   UNL     1      -7.398 -12.054  10.288  0.00  0.00    +0.005 A 
ATOM     30  C   UNL     1      -7.266 -10.158  11.781  0.00  0.00    +0.005 A 
BRANCH  28  27
ATOM     27  C   UNL     1      -7.452  -9.749   9.322  0.00  0.00    -0.013 C 
ATOM     33  C   UNL     1      -6.681  -8.421   9.598  0.00  0.00    +0.015 C 
ATOM     34  C   UNL     1      -8.932  -9.375   9.000  0.00  0.00    +0.015 C 
ATOM     35  C   UNL     1      -6.862 -10.302   7.983  0.00  0.00    +0.015 C 
ENDBRANCH  28  27
ENDBRANCH  18  21
ENDBRANCH  14   4
ENDBRANCH   9  14
TORSDOF 6
ENDMDL
MODEL 8
REMARK VINA RESULT:      -6.0     26.763     30.900
REMARK  Name = 40777123
REMARK  10 active torsions:
REMARK  status: ('A' for Active; 'I' for Inactive)
REMARK    1  A    between atoms: N_4  and  C_14
REMARK    2  A    between atoms: C_8  and  C_15
REMARK    3  A    between atoms: C_9  and  C_14
REMARK    4  A    between atoms: C_17  and  C_20
REMARK    5  A    between atoms: C_18  and  C_21
REMARK    6  A    between atoms: C_19  and  C_22
REMARK    7  A    between atoms: C_27  and  C_28
REMARK    8  A    between atoms: C_27  and  C_33
REMARK    9  A    between atoms: C_27  and  C_34
REMARK   10  A    between atoms: C_27  and  C_35
REMARK                            x       y       z     vdW  Elec       q    Type
REMARK                         _______ _______ _______ _____ _____    ______ ____
ROOT
ATOM      3  N   UNL     1      13.287  12.080  23.411  0.00  0.00    -0.297 NA
ATOM      7  C   UNL     1      10.919  11.250  22.713  0.00  0.00    +0.002 C 
ATOM      8  C   UNL     1      11.893  10.050  22.867  0.00  0.00    +0.055 C 
ATOM      9  C   UNL     1      12.801  12.858  22.240  0.00  0.00    +0.074 C 
ATOM     10  C   UNL     1      11.497  12.246  21.685  0.00  0.00    +0.024 C 
ATOM     11  C   UNL     1      10.886  11.974  24.076  0.00  0.00    +0.019 C 
ATOM     12  C   UNL     1      13.319  10.633  23.084  0.00  0.00    +0.094 C 
ATOM     13  C   UNL     1      12.325  12.283  24.521  0.00  0.00    +0.085 C 
ENDROOT
BRANCH   8  15
ATOM      5  N   UNL     1      11.415   7.751  22.178  0.00  0.00    -0.237 NA
ATOM      6  N   UNL     1      11.806   6.977  19.930  0.00  0.00    -0.232 NA
ATOM     15  C   UNL     1      11.869   8.964  21.800  0.00  0.00    +0.050 A 
ATOM     16  C   UNL     1      12.303   9.256  20.523  0.00  0.00    +0.052 A 
ATOM     17  C   UNL     1      12.248   8.213  19.621  0.00  0.00    +0.076 A 
ATOM     19  C   UNL     1      11.411   6.818  21.208  0.00  0.00    +0.127 A 
ATOM     22  C   UNL     1      10.917   5.463  21.589  0.00  0.00    +0.088 C 
BRANCH  17  20
ATOM      1 BR   UNL     1      15.171   7.099  18.958  0.00  0.00    -0.050 Br
ATOM     20  C   UNL     1      12.675   8.388  18.253  0.00  0.00    +0.014 A 
ATOM     25  C   UNL     1      13.923   7.955  17.807  0.00  0.00    +0.027 A 
ATOM     26  C   UNL     1      11.796   9.012  17.368  0.00  0.00    +0.011 A 
ATOM     31  C   UNL     1      14.294   8.146  16.476  0.00  0.00    +0.016 A 
ATOM     32  C   UNL     1      12.166   9.203  16.037  0.00  0.00    +0.001 A 
ATOM     36  C   UNL     1      13.414   8.770  15.591  0.00  0.00    +0.001 A 
ENDBRANCH  17  20
ENDBRANCH   8  15
BRANCH   9  14
ATOM     14  C   UNL     1      13.869  13.006  21.155  0.00  0.00    +0.123 C 
BRANCH  14   4
ATOM      2  O   UNL     1      16.713  13.221  21.481  0.00  0.00    -0.270 OA
ATOM      4  N   UNL     1      14.807  11.927  21.211  0.00  0.00    -0.310 N 
ATOM     18  C   UNL     1      16.177  12.122  21.372  0.00  0.00    +0.244 C 
ATOM     37  H   UNL     1      14.437  10.994  21.064  0.00  0.00    +0.149 HD
BRANCH  18  21
ATOM     21  C   UNL     1      17.020  10.900  21.383  0.00  0.00    +0.037 A 
ATOM     23  C   UNL     1      16.434   9.648  21.573  0.00  0.00    +0.013 A 
ATOM     24  C   UNL     1      18.400  11.002  21.206  0.00  0.00    +0.013 A 
ATOM     28  C   UNL     1      18.606   8.604  21.408  0.00  0.00    -0.042 A 
ATOM     29  C   UNL     1      17.226   8.500  21.586  0.00  0.00    +0.005 A 
ATOM     30  C   UNL     1      19.193   9.855  21.217  0.00  0.00    +0.005 A 
BRANCH  28  27
ATOM     27  C   UNL     1      19.454   7.377  21.420  0.00  0.00    -0.013 C 
ATOM     33  C   UNL     1      20.845   7.644  20.766  0.00  0.00    +0.015 C 
ATOM     34  C   UNL     1      18.777   6.214  20.630  0.00  0.00    +0.015 C 
ATOM     35  C   UNL     1      19.766   6.791  22.836  0.00  0.00    +0.015 C 
ENDBRANCH  28  27
ENDBRANCH  18  21
ENDBRANCH  14   4
ENDBRANCH   9  14
TORSDOF 6
ENDMDL
MODEL 9
REMARK VINA RESULT:      -5.7     24.747     28.575
REMARK  Name = 40777123
REMARK  10 active torsions:
REMARK  status: ('A' for Active; 'I' for Inactive)
REMARK    1  A    between atoms: N_4  and  C_14
REMARK    2  A    between atoms: C_8  and  C_15
REMARK    3  A    between atoms: C_9  and  C_14
REMARK    4  A    between atoms: C_17  and  C_20
REMARK    5  A    between atoms: C_18  and  C_21
REMARK    6  A    between atoms: C_19  and  C_22
REMARK    7  A    between atoms: C_27  and  C_28
REMARK    8  A    between atoms: C_27  and  C_33
REMARK    9  A    between atoms: C_27  and  C_34
REMARK   10  A    between atoms: C_27  and  C_35
REMARK                            x       y       z     vdW  Elec       q    Type
REMARK                         _______ _______ _______ _____ _____    ______ ____
ROOT
ATOM      3  N   UNL     1       9.384  10.870   2.340  0.00  0.00    -0.297 NA
ATOM      7  C   UNL     1       7.840   8.792   2.621  0.00  0.00    +0.002 C 
ATOM      8  C   UNL     1       8.949   8.796   3.710  0.00  0.00    +0.055 C 
ATOM      9  C   UNL     1       9.234  10.169   1.038  0.00  0.00    +0.074 C 
ATOM     10  C   UNL     1       8.496   8.825   1.225  0.00  0.00    +0.024 C 
ATOM     11  C   UNL     1       7.051  10.108   2.784  0.00  0.00    +0.019 C 
ATOM     12  C   UNL     1       9.940   9.942   3.357  0.00  0.00    +0.094 C 
ATOM     13  C   UNL     1       8.035  11.291   2.787  0.00  0.00    +0.085 C 
ENDROOT
BRANCH   8  15
ATOM      5  N   UNL     1       9.365   6.889   5.184  0.00  0.00    -0.237 NA
ATOM      6  N   UNL     1      10.917   5.137   4.611  0.00  0.00    -0.232 NA
ATOM     15  C   UNL     1       9.663   7.487   4.012  0.00  0.00    +0.050 A 
ATOM     16  C   UNL     1      10.566   6.978   3.100  0.00  0.00    +0.052 A 
ATOM     17  C   UNL     1      11.167   5.788   3.456  0.00  0.00    +0.076 A 
ATOM     19  C   UNL     1      10.018   5.735   5.416  0.00  0.00    +0.127 A 
ATOM     22  C   UNL     1       9.714   5.045   6.703  0.00  0.00    +0.088 C 
BRANCH  17  20
ATOM      1 BR   UNL     1      13.952   7.333   3.160  0.00  0.00    -0.050 Br
ATOM     20  C   UNL     1      12.132   5.152   2.590  0.00  0.00    +0.014 A 
ATOM     25  C   UNL     1      13.393   5.702   2.358  0.00  0.00    +0.027 A 
ATOM     26  C   UNL     1      11.771   3.954   1.977  0.00  0.00    +0.011 A 
ATOM     31  C   UNL     1      14.292   5.053   1.513  0.00  0.00    +0.016 A 
ATOM     32  C   UNL     1      12.670   3.304   1.131  0.00  0.00    +0.001 A 
ATOM     36  C   UNL     1      13.931   3.854   0.899  0.00  0.00    +0.001 A 
ENDBRANCH  17  20
ENDBRANCH   8  15
BRANCH   9  14
ATOM     14  C   UNL     1      10.570   9.989   0.315  0.00  0.00    +0.123 C 
BRANCH  14   4
ATOM      2  O   UNL     1      12.929   8.376   0.037  0.00  0.00    -0.270 OA
ATOM      4  N   UNL     1      10.655   8.695  -0.289  0.00  0.00    -0.310 N 
ATOM     18  C   UNL     1      11.845   7.978  -0.382  0.00  0.00    +0.244 C 
ATOM     37  H   UNL     1       9.806   8.334  -0.712  0.00  0.00    +0.149 HD
BRANCH  18  21
ATOM     21  C   UNL     1      11.771   6.660  -1.062  0.00  0.00    +0.037 A 
ATOM     23  C   UNL     1      12.857   6.193  -1.803  0.00  0.00    +0.013 A 
ATOM     24  C   UNL     1      10.613   5.887  -0.962  0.00  0.00    +0.013 A 
ATOM     28  C   UNL     1      11.629   4.184  -2.341  0.00  0.00    -0.042 A 
ATOM     29  C   UNL     1      12.787   4.956  -2.442  0.00  0.00    +0.005 A 
ATOM     30  C   UNL     1      10.542   4.649  -1.600  0.00  0.00    +0.005 A 
BRANCH  28  27
ATOM     27  C   UNL     1      11.553   2.860  -3.024  0.00  0.00    -0.013 C 
ATOM     33  C   UNL     1      12.019   1.709  -2.080  0.00  0.00    +0.015 C 
ATOM     34  C   UNL     1      12.460   2.826  -4.292  0.00  0.00    +0.015 C 
ATOM     35  C   UNL     1      10.129   2.441  -3.519  0.00  0.00    +0.015 C 
ENDBRANCH  28  27
ENDBRANCH  18  21
ENDBRANCH  14   4
ENDBRANCH   9  14
TORSDOF 6
ENDMDL
MODEL 10
REMARK VINA RESULT:      -5.6     24.251     27.375
REMARK  Name = 40777123
REMARK  10 active torsions:
REMARK  status: ('A' for Active; 'I' for Inactive)
REMARK    1  A    between atoms: N_4  and  C_14
REMARK    2  A    between atoms: C_8  and  C_15
REMARK    3  A    between atoms: C_9  and  C_14
REMARK    4  A    between atoms: C_17  and  C_20
REMARK    5  A    between atoms: C_18  and  C_21
REMARK    6  A    between atoms: C_19  and  C_22
REMARK    7  A    between atoms: C_27  and  C_28
REMARK    8  A    between atoms: C_27  and  C_33
REMARK    9  A    between atoms: C_27  and  C_34
REMARK   10  A    between atoms: C_27  and  C_35
REMARK                            x       y       z     vdW  Elec       q    Type
REMARK                         _______ _______ _______ _____ _____    ______ ____
ROOT
ATOM      3  N   UNL     1       9.984   6.849   7.360  0.00  0.00    -0.297 NA
ATOM      7  C   UNL     1       9.704   5.123   5.430  0.00  0.00    +0.002 C 
ATOM      8  C   UNL     1      11.031   5.915   5.263  0.00  0.00    +0.055 C 
ATOM      9  C   UNL     1       8.633   6.980   6.753  0.00  0.00    +0.074 C 
ATOM     10  C   UNL     1       8.522   6.113   5.480  0.00  0.00    +0.024 C 
ATOM     11  C   UNL     1       9.772   4.427   6.806  0.00  0.00    +0.019 C 
ATOM     12  C   UNL     1      11.029   7.052   6.325  0.00  0.00    +0.094 C 
ATOM     13  C   UNL     1      10.114   5.469   7.885  0.00  0.00    +0.085 C 
ENDROOT
BRANCH   8  15
ATOM      5  N   UNL     1      11.291   7.750   3.666  0.00  0.00    -0.237 NA
ATOM      6  N   UNL     1      12.032   7.387   1.402  0.00  0.00    -0.232 NA
ATOM     15  C   UNL     1      11.395   6.422   3.875  0.00  0.00    +0.050 A 
ATOM     16  C   UNL     1      11.804   5.524   2.909  0.00  0.00    +0.052 A 
ATOM     17  C   UNL     1      12.114   6.069   1.680  0.00  0.00    +0.076 A 
ATOM     19  C   UNL     1      11.620   8.158   2.426  0.00  0.00    +0.127 A 
ATOM     22  C   UNL     1      11.516   9.622   2.158  0.00  0.00    +0.088 C 
BRANCH  17  20
ATOM      1 BR   UNL     1       9.846   5.313  -0.445  0.00  0.00    -0.050 Br
ATOM     20  C   UNL     1      12.553   5.237   0.585  0.00  0.00    +0.014 A 
ATOM     25  C   UNL     1      11.683   4.822  -0.423  0.00  0.00    +0.027 A 
ATOM     26  C   UNL     1      13.892   4.848   0.554  0.00  0.00    +0.011 A 
ATOM     31  C   UNL     1      12.151   4.018  -1.462  0.00  0.00    +0.016 A 
ATOM     32  C   UNL     1      14.361   4.044  -0.484  0.00  0.00    +0.001 A 
ATOM     36  C   UNL     1      13.491   3.629  -1.492  0.00  0.00    +0.001 A 
ENDBRANCH  17  20
ENDBRANCH   8  15
BRANCH   9  14
ATOM     14  C   UNL     1       8.252   8.437   6.485  0.00  0.00    +0.123 C 
BRANCH  14   4
ATOM      2  O   UNL     1       7.685  10.901   5.125  0.00  0.00    -0.270 OA
ATOM      4  N   UNL     1       7.666   8.582   5.189  0.00  0.00    -0.310 N 
ATOM     18  C   UNL     1       7.424   9.821   4.600  0.00  0.00    +0.244 C 
ATOM     37  H   UNL     1       7.368   7.730   4.726  0.00  0.00    +0.149 HD
BRANCH  18  21
ATOM     21  C   UNL     1       6.784   9.802   3.261  0.00  0.00    +0.037 A 
ATOM     23  C   UNL     1       7.539   9.488   2.130  0.00  0.00    +0.013 A 
ATOM     24  C   UNL     1       5.427  10.100   3.131  0.00  0.00    +0.013 A 
ATOM     28  C   UNL     1       5.582   9.770   0.743  0.00  0.00    -0.042 A 
ATOM     29  C   UNL     1       6.939   9.472   0.871  0.00  0.00    +0.005 A 
ATOM     30  C   UNL     1       4.825  10.083   1.872  0.00  0.00    +0.005 A 
BRANCH  28  27
ATOM     27  C   UNL     1       4.938   9.752  -0.603  0.00  0.00    -0.013 C 
ATOM     33  C   UNL     1       4.856   8.301  -1.171  0.00  0.00    +0.015 C 
ATOM     34  C   UNL     1       5.743  10.613  -1.625  0.00  0.00    +0.015 C 
ATOM     35  C   UNL     1       3.475  10.303  -0.655  0.00  0.00    +0.015 C 
ENDBRANCH  28  27
ENDBRANCH  18  21
ENDBRANCH  14   4
ENDBRANCH   9  14
TORSDOF 6
ENDMDL
