MODEL 1
REMARK VINA RESULT:      -7.4      0.000      0.000
REMARK  Name = 40777175
REMARK  6 active torsions:
REMARK  status: ('A' for Active; 'I' for Inactive)
REMARK    1  A    between atoms: N_3  and  C_18
REMARK    2  A    between atoms: N_4  and  C_15
REMARK    3  A    between atoms: N_6  and  C_23
REMARK    4  A    between atoms: C_8  and  C_14
REMARK    5  A    between atoms: C_9  and  C_15
REMARK    6  A    between atoms: C_17  and  C_20
REMARK                            x       y       z     vdW  Elec       q    Type
REMARK                         _______ _______ _______ _____ _____    ______ ____
ROOT
ATOM      2  N   UNL     1      11.816  12.189  25.409  0.00  0.00    -0.297 NA
ATOM      7  C   UNL     1      11.058  13.087  23.085  0.00  0.00    +0.002 C 
ATOM      8  C   UNL     1      10.916  11.541  23.144  0.00  0.00    +0.055 C 
ATOM      9  C   UNL     1      12.852  13.099  24.853  0.00  0.00    +0.074 C 
ATOM     10  C   UNL     1      12.518  13.477  23.394  0.00  0.00    +0.024 C 
ATOM     11  C   UNL     1      10.185  13.657  24.224  0.00  0.00    +0.019 C 
ATOM     12  C   UNL     1      11.572  11.065  24.472  0.00  0.00    +0.094 C 
ATOM     13  C   UNL     1      10.558  12.960  25.545  0.00  0.00    +0.085 C 
ENDROOT
BRANCH   8  14
ATOM      3  N   UNL     1      11.093   9.408  21.779  0.00  0.00    -0.270 N 
ATOM      5  N   UNL     1      11.603   8.876  20.654  0.00  0.00    -0.171 NA
ATOM     14  C   UNL     1      11.386  10.730  21.944  0.00  0.00    +0.044 A 
ATOM     16  C   UNL     1      12.141  11.086  20.853  0.00  0.00    +0.053 A 
ATOM     17  C   UNL     1      12.241   9.906  20.093  0.00  0.00    +0.093 A 
ATOM     18  C   UNL     1      10.321   8.573  22.669  0.00  0.00    +0.172 C 
BRANCH  17  20
ATOM     20  C   UNL     1      12.937   9.743  18.844  0.00  0.00    +0.002 A 
ATOM     21  C   UNL     1      13.718  10.783  18.340  0.00  0.00    +0.010 A 
ATOM     22  C   UNL     1      12.830   8.545  18.136  0.00  0.00    +0.010 A 
ATOM     24  C   UNL     1      14.392  10.626  17.128  0.00  0.00    +0.001 A 
ATOM     25  C   UNL     1      13.505   8.389  16.926  0.00  0.00    +0.001 A 
ATOM     26  C   UNL     1      14.285   9.429  16.422  0.00  0.00    +0.000 A 
ENDBRANCH  17  20
ENDBRANCH   8  14
BRANCH   9  15
ATOM     15  C   UNL     1      14.264  12.526  24.986  0.00  0.00    +0.124 C 
BRANCH  15   4
ATOM      1  O   UNL     1      15.235  11.627  22.446  0.00  0.00    -0.253 OA
ATOM      4  N   UNL     1      14.311  11.153  24.510  0.00  0.00    -0.298 N 
ATOM      6  N   UNL     1      14.723   9.424  23.073  0.00  0.00    -0.269 N 
ATOM     19  C   UNL     1      14.803  10.807  23.253  0.00  0.00    +0.304 C 
ATOM     32  H   UNL     1      13.964  10.420  25.121  0.00  0.00    +0.150 HD
ATOM     33  H   UNL     1      14.336   8.884  23.843  0.00  0.00    +0.156 HD
BRANCH   6  23
ATOM     23  C   UNL     1      15.115   8.672  21.941  0.00  0.00    +0.035 A 
ATOM     27  C   UNL     1      16.058   9.192  21.053  0.00  0.00    +0.023 A 
ATOM     28  C   UNL     1      14.563   7.413  21.712  0.00  0.00    +0.023 A 
ATOM     29  C   UNL     1      16.447   8.451  19.937  0.00  0.00    +0.002 A 
ATOM     30  C   UNL     1      14.951   6.672  20.596  0.00  0.00    +0.002 A 
ATOM     31  C   UNL     1      15.893   7.191  19.708  0.00  0.00    +0.000 A 
ENDBRANCH   6  23
ENDBRANCH  15   4
ENDBRANCH   9  15
TORSDOF 5
ENDMDL
MODEL 2
REMARK VINA RESULT:      -7.3     27.316     30.053
REMARK  Name = 40777175
REMARK  6 active torsions:
REMARK  status: ('A' for Active; 'I' for Inactive)
REMARK    1  A    between atoms: N_3  and  C_18
REMARK    2  A    between atoms: N_4  and  C_15
REMARK    3  A    between atoms: N_6  and  C_23
REMARK    4  A    between atoms: C_8  and  C_14
REMARK    5  A    between atoms: C_9  and  C_15
REMARK    6  A    between atoms: C_17  and  C_20
REMARK                            x       y       z     vdW  Elec       q    Type
REMARK                         _______ _______ _______ _____ _____    ______ ____
ROOT
ATOM      2  N   UNL     1      -6.131 -10.427   9.496  0.00  0.00    -0.297 NA
ATOM      7  C   UNL     1      -4.164  -9.058  10.517  0.00  0.00    +0.002 C 
ATOM      8  C   UNL     1      -4.168 -10.506  11.079  0.00  0.00    +0.055 C 
ATOM      9  C   UNL     1      -6.632  -9.128  10.017  0.00  0.00    +0.074 C 
ATOM     10  C   UNL     1      -5.527  -8.395  10.807  0.00  0.00    +0.024 C 
ATOM     11  C   UNL     1      -4.034  -9.177   8.983  0.00  0.00    +0.019 C 
ATOM     12  C   UNL     1      -5.475 -11.192  10.585  0.00  0.00    +0.094 C 
ATOM     13  C   UNL     1      -5.114 -10.139   8.457  0.00  0.00    +0.085 C 
ENDROOT
BRANCH   8  14
ATOM      3  N   UNL     1      -2.729 -10.535  13.169  0.00  0.00    -0.270 N 
ATOM      5  N   UNL     1      -2.742 -10.752  14.496  0.00  0.00    -0.171 NA
ATOM     14  C   UNL     1      -3.944 -10.698  12.572  0.00  0.00    +0.044 A 
ATOM     16  C   UNL     1      -4.812 -11.048  13.578  0.00  0.00    +0.053 A 
ATOM     17  C   UNL     1      -4.017 -11.065  14.740  0.00  0.00    +0.093 A 
ATOM     18  C   UNL     1      -1.489 -10.168  12.526  0.00  0.00    +0.172 C 
BRANCH  17  20
ATOM     20  C   UNL     1      -4.452 -11.376  16.076  0.00  0.00    +0.002 A 
ATOM     21  C   UNL     1      -4.635 -12.705  16.458  0.00  0.00    +0.010 A 
ATOM     22  C   UNL     1      -4.689 -10.349  16.990  0.00  0.00    +0.010 A 
ATOM     24  C   UNL     1      -5.057 -13.007  17.753  0.00  0.00    +0.001 A 
ATOM     25  C   UNL     1      -5.110 -10.651  18.284  0.00  0.00    +0.001 A 
ATOM     26  C   UNL     1      -5.295 -11.980  18.666  0.00  0.00    +0.000 A 
ENDBRANCH  17  20
ENDBRANCH   8  14
BRANCH   9  15
ATOM     15  C   UNL     1      -7.913  -9.285  10.838  0.00  0.00    +0.124 C 
BRANCH  15   4
ATOM      1  O   UNL     1      -9.069 -10.833  12.952  0.00  0.00    -0.253 OA
ATOM      4  N   UNL     1      -7.633  -9.160  12.259  0.00  0.00    -0.298 N 
ATOM      6  N   UNL     1      -7.785  -9.616  14.495  0.00  0.00    -0.269 N 
ATOM     19  C   UNL     1      -8.247  -9.961  13.222  0.00  0.00    +0.304 C 
ATOM     32  H   UNL     1      -6.967  -8.455  12.559  0.00  0.00    +0.150 HD
ATOM     33  H   UNL     1      -7.100  -8.866  14.545  0.00  0.00    +0.156 HD
BRANCH   6  23
ATOM     23  C   UNL     1      -8.155 -10.185  15.735  0.00  0.00    +0.035 A 
ATOM     27  C   UNL     1      -8.455  -9.358  16.819  0.00  0.00    +0.023 A 
ATOM     28  C   UNL     1      -8.221 -11.570  15.877  0.00  0.00    +0.023 A 
ATOM     29  C   UNL     1      -8.821  -9.918  18.043  0.00  0.00    +0.002 A 
ATOM     30  C   UNL     1      -8.587 -12.130  17.101  0.00  0.00    +0.002 A 
ATOM     31  C   UNL     1      -8.887 -11.304  18.184  0.00  0.00    +0.000 A 
ENDBRANCH   6  23
ENDBRANCH  15   4
ENDBRANCH   9  15
TORSDOF 5
ENDMDL
MODEL 3
REMARK VINA RESULT:      -7.2     27.010     29.619
REMARK  Name = 40777175
REMARK  6 active torsions:
REMARK  status: ('A' for Active; 'I' for Inactive)
REMARK    1  A    between atoms: N_3  and  C_18
REMARK    2  A    between atoms: N_4  and  C_15
REMARK    3  A    between atoms: N_6  and  C_23
REMARK    4  A    between atoms: C_8  and  C_14
REMARK    5  A    between atoms: C_9  and  C_15
REMARK    6  A    between atoms: C_17  and  C_20
REMARK                            x       y       z     vdW  Elec       q    Type
REMARK                         _______ _______ _______ _____ _____    ______ ____
ROOT
ATOM      2  N   UNL     1      -6.383 -10.435  17.960  0.00  0.00    -0.297 NA
ATOM      7  C   UNL     1      -4.469 -12.101  17.374  0.00  0.00    +0.002 C 
ATOM      8  C   UNL     1      -4.207 -10.718  16.716  0.00  0.00    +0.055 C 
ATOM      9  C   UNL     1      -6.956 -11.713  17.461  0.00  0.00    +0.074 C 
ATOM     10  C   UNL     1      -5.842 -12.632  16.916  0.00  0.00    +0.024 C 
ATOM     11  C   UNL     1      -4.561 -11.858  18.896  0.00  0.00    +0.019 C 
ATOM     12  C   UNL     1      -5.479  -9.850  16.940  0.00  0.00    +0.094 C 
ATOM     13  C   UNL     1      -5.581 -10.738  19.169  0.00  0.00    +0.085 C 
ENDROOT
BRANCH   8  14
ATOM      3  N   UNL     1      -2.418 -10.670  14.916  0.00  0.00    -0.270 N 
ATOM      5  N   UNL     1      -2.212 -10.645  13.588  0.00  0.00    -0.171 NA
ATOM     14  C   UNL     1      -3.735 -10.689  15.269  0.00  0.00    +0.044 A 
ATOM     16  C   UNL     1      -4.440 -10.673  14.090  0.00  0.00    +0.053 A 
ATOM     17  C   UNL     1      -3.450 -10.646  13.089  0.00  0.00    +0.093 A 
ATOM     18  C   UNL     1      -1.281 -10.674  15.807  0.00  0.00    +0.172 C 
BRANCH  17  20
ATOM     20  C   UNL     1      -3.666 -10.621  11.666  0.00  0.00    +0.002 A 
ATOM     21  C   UNL     1      -4.009 -11.793  10.991  0.00  0.00    +0.010 A 
ATOM     22  C   UNL     1      -3.533  -9.424  10.961  0.00  0.00    +0.010 A 
ATOM     24  C   UNL     1      -4.217 -11.768   9.612  0.00  0.00    +0.001 A 
ATOM     25  C   UNL     1      -3.742  -9.400   9.583  0.00  0.00    +0.001 A 
ATOM     26  C   UNL     1      -4.084 -10.572   8.908  0.00  0.00    +0.000 A 
ENDBRANCH  17  20
ENDBRANCH   8  14
BRANCH   9  15
ATOM     15  C   UNL     1      -8.067 -11.490  16.433  0.00  0.00    +0.124 C 
BRANCH  15   4
ATOM      1  O   UNL     1      -8.738  -9.924  14.131  0.00  0.00    -0.253 OA
ATOM      4  N   UNL     1      -7.564 -11.672  15.081  0.00  0.00    -0.298 N 
ATOM      6  N   UNL     1      -7.306 -11.268  12.846  0.00  0.00    -0.269 N 
ATOM     19  C   UNL     1      -7.948 -10.857  14.017  0.00  0.00    +0.304 C 
ATOM     32  H   UNL     1      -6.910 -12.430  14.909  0.00  0.00    +0.150 HD
ATOM     33  H   UNL     1      -6.679 -12.064  12.922  0.00  0.00    +0.156 HD
BRANCH   6  23
ATOM     23  C   UNL     1      -7.421 -10.708  11.552  0.00  0.00    +0.035 A 
ATOM     27  C   UNL     1      -7.775 -11.519  10.472  0.00  0.00    +0.023 A 
ATOM     28  C   UNL     1      -7.183  -9.349  11.354  0.00  0.00    +0.023 A 
ATOM     29  C   UNL     1      -7.890 -10.968   9.196  0.00  0.00    +0.002 A 
ATOM     30  C   UNL     1      -7.297  -8.798  10.078  0.00  0.00    +0.002 A 
ATOM     31  C   UNL     1      -7.651  -9.608   8.998  0.00  0.00    +0.000 A 
ENDBRANCH   6  23
ENDBRANCH  15   4
ENDBRANCH   9  15
TORSDOF 5
ENDMDL
MODEL 4
REMARK VINA RESULT:      -7.1     16.071     20.371
REMARK  Name = 40777175
REMARK  6 active torsions:
REMARK  status: ('A' for Active; 'I' for Inactive)
REMARK    1  A    between atoms: N_3  and  C_18
REMARK    2  A    between atoms: N_4  and  C_15
REMARK    3  A    between atoms: N_6  and  C_23
REMARK    4  A    between atoms: C_8  and  C_14
REMARK    5  A    between atoms: C_9  and  C_15
REMARK    6  A    between atoms: C_17  and  C_20
REMARK                            x       y       z     vdW  Elec       q    Type
REMARK                         _______ _______ _______ _____ _____    ______ ____
ROOT
ATOM      2  N   UNL     1      13.919   5.000  -1.008  0.00  0.00    -0.297 NA
ATOM      7  C   UNL     1      12.360   3.392   0.320  0.00  0.00    +0.002 C 
ATOM      8  C   UNL     1      11.663   4.762   0.097  0.00  0.00    +0.055 C 
ATOM      9  C   UNL     1      14.658   4.405   0.136  0.00  0.00    +0.074 C 
ATOM     10  C   UNL     1      13.700   3.614   1.052  0.00  0.00    +0.024 C 
ATOM     11  C   UNL     1      12.694   2.829  -1.078  0.00  0.00    +0.019 C 
ATOM     12  C   UNL     1      12.720   5.725  -0.517  0.00  0.00    +0.094 C 
ATOM     13  C   UNL     1      13.463   3.893  -1.881  0.00  0.00    +0.085 C 
ENDROOT
BRANCH   8  14
ATOM      3  N   UNL     1      10.096   6.469   1.133  0.00  0.00    -0.270 N 
ATOM      5  N   UNL     1       9.536   6.871   2.287  0.00  0.00    -0.171 NA
ATOM     14  C   UNL     1      10.920   5.390   1.267  0.00  0.00    +0.044 A 
ATOM     16  C   UNL     1      10.898   5.065   2.602  0.00  0.00    +0.053 A 
ATOM     17  C   UNL     1      10.029   6.010   3.180  0.00  0.00    +0.093 A 
ATOM     18  C   UNL     1       9.792   7.182  -0.086  0.00  0.00    +0.172 C 
BRANCH  17  20
ATOM     20  C   UNL     1       9.664   6.106   4.569  0.00  0.00    +0.002 A 
ATOM     21  C   UNL     1       8.805   7.119   4.995  0.00  0.00    +0.010 A 
ATOM     22  C   UNL     1      10.168   5.186   5.489  0.00  0.00    +0.010 A 
ATOM     24  C   UNL     1       8.451   7.213   6.342  0.00  0.00    +0.001 A 
ATOM     25  C   UNL     1       9.813   5.280   6.834  0.00  0.00    +0.001 A 
ATOM     26  C   UNL     1       8.955   6.294   7.261  0.00  0.00    +0.000 A 
ENDBRANCH  17  20
ENDBRANCH   8  14
BRANCH   9  15
ATOM     15  C   UNL     1      15.462   5.448   0.916  0.00  0.00    +0.124 C 
BRANCH  15   4
ATOM      1  O   UNL     1      13.938   7.651   1.927  0.00  0.00    -0.253 OA
ATOM      4  N   UNL     1      14.942   5.598   2.265  0.00  0.00    -0.298 N 
ATOM      6  N   UNL     1      13.841   6.578   4.013  0.00  0.00    -0.269 N 
ATOM     19  C   UNL     1      14.206   6.711   2.670  0.00  0.00    +0.304 C 
ATOM     32  H   UNL     1      15.130   4.861   2.938  0.00  0.00    +0.150 HD
ATOM     33  H   UNL     1      14.146   5.733   4.489  0.00  0.00    +0.156 HD
BRANCH   6  23
ATOM     23  C   UNL     1      13.094   7.483   4.801  0.00  0.00    +0.035 A 
ATOM     27  C   UNL     1      13.028   7.312   6.185  0.00  0.00    +0.023 A 
ATOM     28  C   UNL     1      12.423   8.546   4.199  0.00  0.00    +0.023 A 
ATOM     29  C   UNL     1      12.291   8.204   6.964  0.00  0.00    +0.002 A 
ATOM     30  C   UNL     1      11.685   9.439   4.977  0.00  0.00    +0.002 A 
ATOM     31  C   UNL     1      11.620   9.268   6.360  0.00  0.00    +0.000 A 
ENDBRANCH   6  23
ENDBRANCH  15   4
ENDBRANCH   9  15
TORSDOF 5
ENDMDL
MODEL 5
REMARK VINA RESULT:      -6.9     27.275     29.640
REMARK  Name = 40777175
REMARK  6 active torsions:
REMARK  status: ('A' for Active; 'I' for Inactive)
REMARK    1  A    between atoms: N_3  and  C_18
REMARK    2  A    between atoms: N_4  and  C_15
REMARK    3  A    between atoms: N_6  and  C_23
REMARK    4  A    between atoms: C_8  and  C_14
REMARK    5  A    between atoms: C_9  and  C_15
REMARK    6  A    between atoms: C_17  and  C_20
REMARK                            x       y       z     vdW  Elec       q    Type
REMARK                         _______ _______ _______ _____ _____    ______ ____
ROOT
ATOM      2  N   UNL     1      -9.880  -8.705  16.591  0.00  0.00    -0.297 NA
ATOM      7  C   UNL     1      -9.283 -10.896  17.866  0.00  0.00    +0.002 C 
ATOM      8  C   UNL     1      -8.081  -9.912  17.884  0.00  0.00    +0.055 C 
ATOM      9  C   UNL     1     -10.219  -9.887  15.756  0.00  0.00    +0.074 C 
ATOM     10  C   UNL     1      -9.685 -11.183  16.404  0.00  0.00    +0.024 C 
ATOM     11  C   UNL     1     -10.470 -10.163  18.528  0.00  0.00    +0.019 C 
ATOM     12  C   UNL     1      -8.438  -8.727  16.942  0.00  0.00    +0.094 C 
ATOM     13  C   UNL     1     -10.662  -8.796  17.847  0.00  0.00    +0.085 C 
ENDROOT
BRANCH   8  14
ATOM      3  N   UNL     1      -5.894 -10.991  18.588  0.00  0.00    -0.270 N 
ATOM      5  N   UNL     1      -4.705 -11.428  18.140  0.00  0.00    -0.171 NA
ATOM     14  C   UNL     1      -6.692 -10.469  17.611  0.00  0.00    +0.044 A 
ATOM     16  C   UNL     1      -5.973 -10.572  16.445  0.00  0.00    +0.053 A 
ATOM     17  C   UNL     1      -4.759 -11.170  16.831  0.00  0.00    +0.093 A 
ATOM     18  C   UNL     1      -6.205 -11.105  19.993  0.00  0.00    +0.172 C 
BRANCH  17  20
ATOM     20  C   UNL     1      -3.650 -11.497  15.974  0.00  0.00    +0.002 A 
ATOM     21  C   UNL     1      -2.535 -10.660  15.927  0.00  0.00    +0.010 A 
ATOM     22  C   UNL     1      -3.689 -12.651  15.190  0.00  0.00    +0.010 A 
ATOM     24  C   UNL     1      -1.460 -10.977  15.096  0.00  0.00    +0.001 A 
ATOM     25  C   UNL     1      -2.614 -12.967  14.360  0.00  0.00    +0.001 A 
ATOM     26  C   UNL     1      -1.500 -12.129  14.313  0.00  0.00    +0.000 A 
ENDBRANCH  17  20
ENDBRANCH   8  14
BRANCH   9  15
ATOM     15  C   UNL     1      -9.744  -9.735  14.310  0.00  0.00    +0.124 C 
BRANCH  15   4
ATOM      1  O   UNL     1      -7.496  -9.157  12.634  0.00  0.00    -0.253 OA
ATOM      4  N   UNL     1      -8.613 -10.607  14.043  0.00  0.00    -0.298 N 
ATOM      6  N   UNL     1      -6.621 -11.275  13.142  0.00  0.00    -0.269 N 
ATOM     19  C   UNL     1      -7.558 -10.241  13.209  0.00  0.00    +0.304 C 
ATOM     32  H   UNL     1      -8.599 -11.524  14.480  0.00  0.00    +0.150 HD
ATOM     33  H   UNL     1      -6.824 -12.113  13.681  0.00  0.00    +0.156 HD
BRANCH   6  23
ATOM     23  C   UNL     1      -5.412 -11.304  12.409  0.00  0.00    +0.035 A 
ATOM     27  C   UNL     1      -5.121 -12.394  11.587  0.00  0.00    +0.023 A 
ATOM     28  C   UNL     1      -4.510 -10.245  12.505  0.00  0.00    +0.023 A 
ATOM     29  C   UNL     1      -3.929 -12.424  10.864  0.00  0.00    +0.002 A 
ATOM     30  C   UNL     1      -3.318 -10.274  11.782  0.00  0.00    +0.002 A 
ATOM     31  C   UNL     1      -3.028 -11.363  10.961  0.00  0.00    +0.000 A 
ENDBRANCH   6  23
ENDBRANCH  15   4
ENDBRANCH   9  15
TORSDOF 5
ENDMDL
MODEL 6
REMARK VINA RESULT:      -6.6      1.928      3.948
REMARK  Name = 40777175
REMARK  6 active torsions:
REMARK  status: ('A' for Active; 'I' for Inactive)
REMARK    1  A    between atoms: N_3  and  C_18
REMARK    2  A    between atoms: N_4  and  C_15
REMARK    3  A    between atoms: N_6  and  C_23
REMARK    4  A    between atoms: C_8  and  C_14
REMARK    5  A    between atoms: C_9  and  C_15
REMARK    6  A    between atoms: C_17  and  C_20
REMARK                            x       y       z     vdW  Elec       q    Type
REMARK                         _______ _______ _______ _____ _____    ______ ____
ROOT
ATOM      2  N   UNL     1      12.846  13.382  23.495  0.00  0.00    -0.297 NA
ATOM      7  C   UNL     1      11.178  11.490  22.849  0.00  0.00    +0.002 C 
ATOM      8  C   UNL     1      12.523  10.885  23.336  0.00  0.00    +0.055 C 
ATOM      9  C   UNL     1      12.274  13.647  22.149  0.00  0.00    +0.074 C 
ATOM     10  C   UNL     1      11.446  12.439  21.662  0.00  0.00    +0.024 C 
ATOM     11  C   UNL     1      10.633  12.353  24.007  0.00  0.00    +0.019 C 
ATOM     12  C   UNL     1      13.526  12.062  23.508  0.00  0.00    +0.094 C 
ATOM     13  C   UNL     1      11.726  13.334  24.465  0.00  0.00    +0.085 C 
ENDROOT
BRANCH   8  14
ATOM      3  N   UNL     1      12.386   8.660  22.123  0.00  0.00    -0.270 N 
ATOM      5  N   UNL     1      13.101   7.747  21.442  0.00  0.00    -0.171 NA
ATOM     14  C   UNL     1      13.120   9.729  22.546  0.00  0.00    +0.044 A 
ATOM     16  C   UNL     1      14.403   9.499  22.112  0.00  0.00    +0.053 A 
ATOM     17  C   UNL     1      14.331   8.265  21.439  0.00  0.00    +0.093 A 
ATOM     18  C   UNL     1      10.976   8.436  22.337  0.00  0.00    +0.172 C 
BRANCH  17  20
ATOM     20  C   UNL     1      15.416   7.572  20.795  0.00  0.00    +0.002 A 
ATOM     21  C   UNL     1      15.180   6.835  19.634  0.00  0.00    +0.010 A 
ATOM     22  C   UNL     1      16.702   7.636  21.330  0.00  0.00    +0.010 A 
ATOM     24  C   UNL     1      16.232   6.162  19.010  0.00  0.00    +0.001 A 
ATOM     25  C   UNL     1      17.752   6.965  20.706  0.00  0.00    +0.001 A 
ATOM     26  C   UNL     1      17.517   6.227  19.546  0.00  0.00    +0.000 A 
ENDBRANCH  17  20
ENDBRANCH   8  14
BRANCH   9  15
ATOM     15  C   UNL     1      13.342  14.055  21.132  0.00  0.00    +0.124 C 
BRANCH  15   4
ATOM      1  O   UNL     1      14.728  11.875  19.896  0.00  0.00    -0.253 OA
ATOM      4  N   UNL     1      13.062  13.474  19.829  0.00  0.00    -0.298 N 
ATOM      6  N   UNL     1      13.299  12.066  18.044  0.00  0.00    -0.269 N 
ATOM     19  C   UNL     1      13.793  12.409  19.305  0.00  0.00    +0.304 C 
ATOM     32  H   UNL     1      12.305  13.868  19.279  0.00  0.00    +0.150 HD
ATOM     33  H   UNL     1      12.515  12.611  17.695  0.00  0.00    +0.156 HD
BRANCH   6  23
ATOM     23  C   UNL     1      13.760  11.045  17.180  0.00  0.00    +0.035 A 
ATOM     27  C   UNL     1      14.473  11.376  16.028  0.00  0.00    +0.023 A 
ATOM     28  C   UNL     1      13.502   9.708  17.480  0.00  0.00    +0.023 A 
ATOM     29  C   UNL     1      14.928  10.370  15.176  0.00  0.00    +0.002 A 
ATOM     30  C   UNL     1      13.957   8.701  16.628  0.00  0.00    +0.002 A 
ATOM     31  C   UNL     1      14.670   9.032  15.476  0.00  0.00    +0.000 A 
ENDBRANCH   6  23
ENDBRANCH  15   4
ENDBRANCH   9  15
TORSDOF 5
ENDMDL
MODEL 7
REMARK VINA RESULT:      -6.4     25.672     28.346
REMARK  Name = 40777175
REMARK  6 active torsions:
REMARK  status: ('A' for Active; 'I' for Inactive)
REMARK    1  A    between atoms: N_3  and  C_18
REMARK    2  A    between atoms: N_4  and  C_15
REMARK    3  A    between atoms: N_6  and  C_23
REMARK    4  A    between atoms: C_8  and  C_14
REMARK    5  A    between atoms: C_9  and  C_15
REMARK    6  A    between atoms: C_17  and  C_20
REMARK                            x       y       z     vdW  Elec       q    Type
REMARK                         _______ _______ _______ _____ _____    ______ ____
ROOT
ATOM      2  N   UNL     1     -18.360   6.983  21.060  0.00  0.00    -0.297 NA
ATOM      7  C   UNL     1     -16.674   5.005  21.222  0.00  0.00    +0.002 C 
ATOM      8  C   UNL     1     -16.007   6.328  21.688  0.00  0.00    +0.055 C 
ATOM      9  C   UNL     1     -18.342   6.224  19.781  0.00  0.00    +0.074 C 
ATOM     10  C   UNL     1     -17.205   5.180  19.784  0.00  0.00    +0.024 C 
ATOM     11  C   UNL     1     -17.900   4.779  22.134  0.00  0.00    +0.019 C 
ATOM     12  C   UNL     1     -16.999   7.484  21.373  0.00  0.00    +0.094 C 
ATOM     13  C   UNL     1     -18.769   6.050  22.136  0.00  0.00    +0.085 C 
ENDROOT
BRANCH   8  14
ATOM      3  N   UNL     1     -13.490   5.998  21.693  0.00  0.00    -0.270 N 
ATOM      5  N   UNL     1     -12.339   6.410  21.135  0.00  0.00    -0.171 NA
ATOM     14  C   UNL     1     -14.596   6.630  21.205  0.00  0.00    +0.044 A 
ATOM     16  C   UNL     1     -14.135   7.518  20.263  0.00  0.00    +0.053 A 
ATOM     17  C   UNL     1     -12.739   7.337  20.263  0.00  0.00    +0.093 A 
ATOM     18  C   UNL     1     -13.455   4.974  22.712  0.00  0.00    +0.172 C 
BRANCH  17  20
ATOM     20  C   UNL     1     -11.781   8.036  19.446  0.00  0.00    +0.002 A 
ATOM     21  C   UNL     1     -11.352   7.478  18.242  0.00  0.00    +0.010 A 
ATOM     22  C   UNL     1     -11.282   9.272  19.859  0.00  0.00    +0.010 A 
ATOM     24  C   UNL     1     -10.423   8.155  17.451  0.00  0.00    +0.001 A 
ATOM     25  C   UNL     1     -10.354   9.948  19.068  0.00  0.00    +0.001 A 
ATOM     26  C   UNL     1      -9.924   9.390  17.864  0.00  0.00    +0.000 A 
ENDBRANCH  17  20
ENDBRANCH   8  14
BRANCH   9  15
ATOM     15  C   UNL     1     -18.270   7.143  18.560  0.00  0.00    +0.124 C 
BRANCH  15   4
ATOM      1  O   UNL     1     -16.879   9.394  17.466  0.00  0.00    -0.253 OA
ATOM      4  N   UNL     1     -16.931   7.145  17.994  0.00  0.00    -0.298 N 
ATOM      6  N   UNL     1     -15.051   7.995  17.009  0.00  0.00    -0.269 N 
ATOM     19  C   UNL     1     -16.331   8.295  17.482  0.00  0.00    +0.304 C 
ATOM     32  H   UNL     1     -16.418   6.270  17.967  0.00  0.00    +0.150 HD
ATOM     33  H   UNL     1     -14.745   7.029  17.096  0.00  0.00    +0.156 HD
BRANCH   6  23
ATOM     23  C   UNL     1     -14.117   8.876  16.416  0.00  0.00    +0.035 A 
ATOM     27  C   UNL     1     -13.505   8.534  15.209  0.00  0.00    +0.023 A 
ATOM     28  C   UNL     1     -13.806  10.085  17.036  0.00  0.00    +0.023 A 
ATOM     29  C   UNL     1     -12.584   9.402  14.624  0.00  0.00    +0.002 A 
ATOM     30  C   UNL     1     -12.884  10.954  16.451  0.00  0.00    +0.002 A 
ATOM     31  C   UNL     1     -12.274  10.612  15.244  0.00  0.00    +0.000 A 
ENDBRANCH   6  23
ENDBRANCH  15   4
ENDBRANCH   9  15
TORSDOF 5
ENDMDL
MODEL 8
REMARK VINA RESULT:      -6.4      1.848      2.660
REMARK  Name = 40777175
REMARK  6 active torsions:
REMARK  status: ('A' for Active; 'I' for Inactive)
REMARK    1  A    between atoms: N_3  and  C_18
REMARK    2  A    between atoms: N_4  and  C_15
REMARK    3  A    between atoms: N_6  and  C_23
REMARK    4  A    between atoms: C_8  and  C_14
REMARK    5  A    between atoms: C_9  and  C_15
REMARK    6  A    between atoms: C_17  and  C_20
REMARK                            x       y       z     vdW  Elec       q    Type
REMARK                         _______ _______ _______ _____ _____    ______ ____
ROOT
ATOM      2  N   UNL     1      15.724  12.496  24.955  0.00  0.00    -0.297 NA
ATOM      7  C   UNL     1      13.895  13.549  23.430  0.00  0.00    +0.002 C 
ATOM      8  C   UNL     1      13.600  12.043  23.671  0.00  0.00    +0.055 C 
ATOM      9  C   UNL     1      16.361  13.245  23.840  0.00  0.00    +0.074 C 
ATOM     10  C   UNL     1      15.301  13.701  22.814  0.00  0.00    +0.024 C 
ATOM     11  C   UNL     1      13.931  14.224  24.818  0.00  0.00    +0.019 C 
ATOM     12  C   UNL     1      14.829  11.443  24.413  0.00  0.00    +0.094 C 
ATOM     13  C   UNL     1      14.898  13.450  25.731  0.00  0.00    +0.085 C 
ENDROOT
BRANCH   8  14
ATOM      3  N   UNL     1      11.927  10.650  22.368  0.00  0.00    -0.270 N 
ATOM      5  N   UNL     1      11.750   9.934  21.243  0.00  0.00    -0.171 NA
ATOM     14  C   UNL     1      13.172  11.195  22.482  0.00  0.00    +0.044 A 
ATOM     16  C   UNL     1      13.856  10.807  21.356  0.00  0.00    +0.053 A 
ATOM     17  C   UNL     1      12.931  10.034  20.630  0.00  0.00    +0.093 A 
ATOM     18  C   UNL     1      10.837  10.770  23.308  0.00  0.00    +0.172 C 
BRANCH  17  20
ATOM     20  C   UNL     1      13.156   9.388  19.364  0.00  0.00    +0.002 A 
ATOM     21  C   UNL     1      13.945  10.008  18.395  0.00  0.00    +0.010 A 
ATOM     22  C   UNL     1      12.585   8.141  19.105  0.00  0.00    +0.010 A 
ATOM     24  C   UNL     1      14.162   9.382  17.167  0.00  0.00    +0.001 A 
ATOM     25  C   UNL     1      12.803   7.516  17.878  0.00  0.00    +0.001 A 
ATOM     26  C   UNL     1      13.591   8.136  16.909  0.00  0.00    +0.000 A 
ENDBRANCH  17  20
ENDBRANCH   8  14
BRANCH   9  15
ATOM     15  C   UNL     1      17.494  12.457  23.180  0.00  0.00    +0.124 C 
BRANCH  15   4
ATOM      1  O   UNL     1      18.169  10.766  20.970  0.00  0.00    -0.253 OA
ATOM      4  N   UNL     1      17.119  11.063  23.006  0.00  0.00    -0.298 N 
ATOM      6  N   UNL     1      16.993   9.014  22.000  0.00  0.00    -0.269 N 
ATOM     19  C   UNL     1      17.495  10.314  21.892  0.00  0.00    +0.304 C 
ATOM     32  H   UNL     1      16.555  10.623  23.727  0.00  0.00    +0.150 HD
ATOM     33  H   UNL     1      16.450   8.801  22.832  0.00  0.00    +0.156 HD
BRANCH   6  23
ATOM     23  C   UNL     1      17.148   7.947  21.085  0.00  0.00    +0.035 A 
ATOM     27  C   UNL     1      16.113   7.628  20.205  0.00  0.00    +0.023 A 
ATOM     28  C   UNL     1      18.333   7.212  21.062  0.00  0.00    +0.023 A 
ATOM     29  C   UNL     1      16.265   6.575  19.303  0.00  0.00    +0.002 A 
ATOM     30  C   UNL     1      18.485   6.159  20.160  0.00  0.00    +0.002 A 
ATOM     31  C   UNL     1      17.451   5.841  19.280  0.00  0.00    +0.000 A 
ENDBRANCH   6  23
ENDBRANCH  15   4
ENDBRANCH   9  15
TORSDOF 5
ENDMDL
MODEL 9
REMARK VINA RESULT:      -6.3     21.186     24.051
REMARK  Name = 40777175
REMARK  6 active torsions:
REMARK  status: ('A' for Active; 'I' for Inactive)
REMARK    1  A    between atoms: N_3  and  C_18
REMARK    2  A    between atoms: N_4  and  C_15
REMARK    3  A    between atoms: N_6  and  C_23
REMARK    4  A    between atoms: C_8  and  C_14
REMARK    5  A    between atoms: C_9  and  C_15
REMARK    6  A    between atoms: C_17  and  C_20
REMARK                            x       y       z     vdW  Elec       q    Type
REMARK                         _______ _______ _______ _____ _____    ______ ____
ROOT
ATOM      2  N   UNL     1       7.329 -10.082  32.955  0.00  0.00    -0.297 NA
ATOM      7  C   UNL     1       6.871  -7.668  32.090  0.00  0.00    +0.002 C 
ATOM      8  C   UNL     1       8.138  -7.693  32.989  0.00  0.00    +0.055 C 
ATOM      9  C   UNL     1       5.909  -9.715  33.200  0.00  0.00    +0.074 C 
ATOM     10  C   UNL     1       5.671  -8.222  32.885  0.00  0.00    +0.024 C 
ATOM     11  C   UNL     1       7.134  -8.646  30.924  0.00  0.00    +0.019 C 
ATOM     12  C   UNL     1       8.228  -9.110  33.625  0.00  0.00    +0.094 C 
ATOM     13  C   UNL     1       7.573 -10.007  31.495  0.00  0.00    +0.085 C 
ENDROOT
BRANCH   8  14
ATOM      3  N   UNL     1       9.458  -5.861  34.148  0.00  0.00    -0.270 N 
ATOM      5  N   UNL     1       9.406  -4.931  35.118  0.00  0.00    -0.171 NA
ATOM     14  C   UNL     1       8.309  -6.586  34.019  0.00  0.00    +0.044 A 
ATOM     16  C   UNL     1       7.448  -6.097  34.971  0.00  0.00    +0.053 A 
ATOM     17  C   UNL     1       8.177  -5.080  35.616  0.00  0.00    +0.093 A 
ATOM     18  C   UNL     1      10.666  -6.003  33.369  0.00  0.00    +0.172 C 
BRANCH  17  20
ATOM     20  C   UNL     1       7.722  -4.250  36.701  0.00  0.00    +0.002 A 
ATOM     21  C   UNL     1       8.615  -3.850  37.695  0.00  0.00    +0.010 A 
ATOM     22  C   UNL     1       6.387  -3.846  36.759  0.00  0.00    +0.010 A 
ATOM     24  C   UNL     1       8.173  -3.046  38.746  0.00  0.00    +0.001 A 
ATOM     25  C   UNL     1       5.947  -3.042  37.809  0.00  0.00    +0.001 A 
ATOM     26  C   UNL     1       6.840  -2.642  38.803  0.00  0.00    +0.000 A 
ENDBRANCH  17  20
ENDBRANCH   8  14
BRANCH   9  15
ATOM     15  C   UNL     1       5.448 -10.081  34.612  0.00  0.00    +0.124 C 
BRANCH  15   4
ATOM      1  O   UNL     1       6.267  -9.348  37.256  0.00  0.00    -0.253 OA
ATOM      4  N   UNL     1       5.046  -8.894  35.348  0.00  0.00    -0.298 N 
ATOM      6  N   UNL     1       4.946  -7.415  37.089  0.00  0.00    -0.269 N 
ATOM     19  C   UNL     1       5.498  -8.618  36.638  0.00  0.00    +0.304 C 
ATOM     32  H   UNL     1       4.405  -8.245  34.903  0.00  0.00    +0.150 HD
ATOM     33  H   UNL     1       4.323  -6.929  36.450  0.00  0.00    +0.156 HD
BRANCH   6  23
ATOM     23  C   UNL     1       5.150  -6.782  38.337  0.00  0.00    +0.035 A 
ATOM     27  C   UNL     1       6.411  -6.807  38.933  0.00  0.00    +0.023 A 
ATOM     28  C   UNL     1       4.092  -6.134  38.973  0.00  0.00    +0.023 A 
ATOM     29  C   UNL     1       6.613  -6.183  40.165  0.00  0.00    +0.002 A 
ATOM     30  C   UNL     1       4.293  -5.510  40.204  0.00  0.00    +0.002 A 
ATOM     31  C   UNL     1       5.554  -5.535  40.800  0.00  0.00    +0.000 A 
ENDBRANCH   6  23
ENDBRANCH  15   4
ENDBRANCH   9  15
TORSDOF 5
ENDMDL
MODEL 10
REMARK VINA RESULT:      -6.3     33.073     35.120
REMARK  Name = 40777175
REMARK  6 active torsions:
REMARK  status: ('A' for Active; 'I' for Inactive)
REMARK    1  A    between atoms: N_3  and  C_18
REMARK    2  A    between atoms: N_4  and  C_15
REMARK    3  A    between atoms: N_6  and  C_23
REMARK    4  A    between atoms: C_8  and  C_14
REMARK    5  A    between atoms: C_9  and  C_15
REMARK    6  A    between atoms: C_17  and  C_20
REMARK                            x       y       z     vdW  Elec       q    Type
REMARK                         _______ _______ _______ _____ _____    ______ ____
ROOT
ATOM      2  N   UNL     1      -6.064 -11.857  39.452  0.00  0.00    -0.297 NA
ATOM      7  C   UNL     1      -7.082  -9.956  37.991  0.00  0.00    +0.002 C 
ATOM      8  C   UNL     1      -8.198 -10.687  38.787  0.00  0.00    +0.055 C 
ATOM      9  C   UNL     1      -5.567 -11.968  38.056  0.00  0.00    +0.074 C 
ATOM     10  C   UNL     1      -6.314 -10.982  37.132  0.00  0.00    +0.024 C 
ATOM     11  C   UNL     1      -6.085  -9.399  39.031  0.00  0.00    +0.019 C 
ATOM     12  C   UNL     1      -7.547 -11.924  39.471  0.00  0.00    +0.094 C 
ATOM     13  C   UNL     1      -5.655 -10.533  39.978  0.00  0.00    +0.085 C 
ENDROOT
BRANCH   8  14
ATOM      3  N   UNL     1     -10.724 -10.754  38.555  0.00  0.00    -0.270 N 
ATOM      5  N   UNL     1     -11.733 -11.150  37.759  0.00  0.00    -0.171 NA
ATOM     14  C   UNL     1      -9.486 -11.040  38.059  0.00  0.00    +0.044 A 
ATOM     16  C   UNL     1      -9.701 -11.669  36.856  0.00  0.00    +0.053 A 
ATOM     17  C   UNL     1     -11.101 -11.708  36.724  0.00  0.00    +0.093 A 
ATOM     18  C   UNL     1     -11.027 -10.094  39.804  0.00  0.00    +0.172 C 
BRANCH  17  20
ATOM     20  C   UNL     1     -11.847 -12.270  35.628  0.00  0.00    +0.002 A 
ATOM     21  C   UNL     1     -11.418 -13.454  35.028  0.00  0.00    +0.010 A 
ATOM     22  C   UNL     1     -12.998 -11.631  35.166  0.00  0.00    +0.010 A 
ATOM     24  C   UNL     1     -12.140 -13.998  33.965  0.00  0.00    +0.001 A 
ATOM     25  C   UNL     1     -13.720 -12.176  34.105  0.00  0.00    +0.001 A 
ATOM     26  C   UNL     1     -13.291 -13.359  33.504  0.00  0.00    +0.000 A 
ENDBRANCH  17  20
ENDBRANCH   8  14
BRANCH   9  15
ATOM     15  C   UNL     1      -5.627 -13.402  37.527  0.00  0.00    +0.124 C 
BRANCH  15   4
ATOM      1  O   UNL     1      -7.184 -15.225  35.961  0.00  0.00    -0.253 OA
ATOM      4  N   UNL     1      -5.753 -13.414  36.079  0.00  0.00    -0.298 N 
ATOM      6  N   UNL     1      -6.466 -14.112  34.022  0.00  0.00    -0.269 N 
ATOM     19  C   UNL     1      -6.538 -14.344  35.399  0.00  0.00    +0.304 C 
ATOM     32  H   UNL     1      -5.241 -12.718  35.546  0.00  0.00    +0.150 HD
ATOM     33  H   UNL     1      -5.882 -13.337  33.718  0.00  0.00    +0.156 HD
BRANCH   6  23
ATOM     23  C   UNL     1      -7.112 -14.828  32.987  0.00  0.00    +0.035 A 
ATOM     27  C   UNL     1      -8.332 -14.374  32.483  0.00  0.00    +0.023 A 
ATOM     28  C   UNL     1      -6.532 -15.985  32.471  0.00  0.00    +0.023 A 
ATOM     29  C   UNL     1      -8.969 -15.079  31.462  0.00  0.00    +0.002 A 
ATOM     30  C   UNL     1      -7.170 -16.691  31.450  0.00  0.00    +0.002 A 
ATOM     31  C   UNL     1      -8.388 -16.237  30.946  0.00  0.00    +0.000 A 
ENDBRANCH   6  23
ENDBRANCH  15   4
ENDBRANCH   9  15
TORSDOF 5
ENDMDL
