REMARK  Name = 7155413
REMARK  2 active torsions:
REMARK  status: ('A' for Active; 'I' for Inactive)
REMARK    1  A    between atoms: C_13  and  C_18
REMARK    2  A    between atoms: C_15  and  C_19
REMARK                            x       y       z     vdW  Elec       q    Type
REMARK                         _______ _______ _______ _____ _____    ______ ____
ROOT
ATOM      2  O   UNL     1       2.048  -2.740   2.423  0.00  0.00    -0.268 OA
ATOM      3  O   UNL     1       3.626   1.404  -0.044  0.00  0.00    -0.269 OA
ATOM      4  N   UNL     1       0.997  -1.920   0.498  0.00  0.00    -0.311 N 
ATOM      5  N   UNL     1       1.909   0.483  -1.337  0.00  0.00    -0.296 N 
ATOM      6  C   UNL     1       2.170  -1.944  -1.784  0.00  0.00    +0.027 C 
ATOM      7  C   UNL     1      -0.085  -0.984  -1.569  0.00  0.00    +0.054 C 
ATOM      8  C   UNL     1       0.757  -1.995  -2.346  0.00  0.00    +0.018 C 
ATOM      9  C   UNL     1       2.126  -2.388  -0.321  0.00  0.00    +0.130 C 
ATOM     10  C   UNL     1       2.766  -0.535  -1.942  0.00  0.00    +0.113 C 
ATOM     11  C   UNL     1       0.502   0.432  -1.760  0.00  0.00    +0.117 C 
ATOM     12  C   UNL     1      -0.145  -1.328  -0.078  0.00  0.00    +0.034 A 
ATOM     13  C   UNL     1      -1.228  -1.054   0.694  0.00  0.00    +0.002 A 
ATOM     14  C   UNL     1       1.083  -2.213   1.870  0.00  0.00    +0.252 A 
ATOM     15  C   UNL     1       2.447   1.364  -0.396  0.00  0.00    +0.253 C 
ATOM     16  C   UNL     1      -1.175  -1.339   2.115  0.00  0.00    +0.015 A 
ATOM     17  C   UNL     1      -0.097  -1.867   2.695  0.00  0.00    +0.071 A 
ENDROOT
BRANCH  13  18
ATOM     18  C   UNL     1      -2.457  -0.456   0.127  0.00  0.00    -0.016 A 
ATOM     20  C   UNL     1      -2.587   0.928   0.067  0.00  0.00    +0.008 A 
ATOM     21  C   UNL     1      -3.475  -1.282  -0.342  0.00  0.00    +0.008 A 
ATOM     23  C   UNL     1      -3.746   1.492  -0.468  0.00  0.00    +0.001 A 
ATOM     24  C   UNL     1      -4.633  -0.718  -0.876  0.00  0.00    +0.001 A 
ATOM     26  C   UNL     1      -4.769   0.669  -0.939  0.00  0.00    +0.000 A 
ENDBRANCH  13  18
BRANCH  15  19
ATOM      1  S   UNL     1       1.307   3.853  -0.463  0.00  0.00    -0.092 S 
ATOM     19  C   UNL     1       1.545   2.321   0.256  0.00  0.00    +0.074 A 
ATOM     22  C   UNL     1       0.824   2.167   1.415  0.00  0.00    +0.021 A 
ATOM     25  C   UNL     1       0.060   3.330   1.721  0.00  0.00    +0.008 A 
ATOM     27  C   UNL     1       0.230   4.323   0.782  0.00  0.00    +0.046 A 
ENDBRANCH  15  19
TORSDOF 2
