REMARK  Name = 51137148
REMARK  5 active torsions:
REMARK  status: ('A' for Active; 'I' for Inactive)
REMARK    1  A    between atoms: O_3  and  C_15
REMARK    2  A    between atoms: O_3  and  C_24
REMARK    3  A    between atoms: N_4  and  C_10
REMARK    4  A    between atoms: C_6  and  C_11
REMARK    5  A    between atoms: C_10  and  C_12
REMARK                            x       y       z     vdW  Elec       q    Type
REMARK                         _______ _______ _______ _____ _____    ______ ____
ROOT
ATOM      4  N   UNL     1      -1.608   0.042   0.036  0.00  0.00    -0.297 NA
ATOM      6  C   UNL     1       0.561  -0.509   0.736  0.00  0.00    +0.090 C 
ATOM      7  C   UNL     1      -0.060   0.492   1.725  0.00  0.00    +0.029 C 
ATOM      8  C   UNL     1      -0.334  -0.432  -0.508  0.00  0.00    +0.097 C 
ATOM      9  C   UNL     1      -1.244   1.097   0.982  0.00  0.00    +0.085 C 
ENDROOT
BRANCH   6  11
ATOM      1  F   UNL     1       7.377   1.190  -0.959  0.00  0.00    -0.205 F 
ATOM      2  O   UNL     1       2.868  -1.296   0.734  0.00  0.00    -0.439 OA
ATOM      5  N   UNL     1       2.584   0.791  -0.101  0.00  0.00    -0.213 NA
ATOM     11  C   UNL     1       2.022  -0.274   0.427  0.00  0.00    +0.201 A 
ATOM     13  C   UNL     1       3.915   0.454  -0.151  0.00  0.00    +0.112 A 
ATOM     14  C   UNL     1       4.093  -0.823   0.359  0.00  0.00    +0.156 A 
ATOM     17  C   UNL     1       5.035   1.162  -0.610  0.00  0.00    +0.070 A 
ATOM     18  C   UNL     1       5.316  -1.474   0.457  0.00  0.00    +0.051 A 
ATOM     22  C   UNL     1       6.288   0.538  -0.528  0.00  0.00    +0.126 A 
ATOM     23  C   UNL     1       6.423  -0.754  -0.005  0.00  0.00    +0.042 A 
ENDBRANCH   6  11
BRANCH   4  10
ATOM     10  C   UNL     1      -2.513   0.516  -1.001  0.00  0.00    +0.123 C 
BRANCH  10  12
ATOM     12  C   UNL     1      -3.936   0.585  -0.515  0.00  0.00    +0.008 A 
ATOM     15  C   UNL     1      -4.700  -0.574  -0.382  0.00  0.00    +0.124 A 
ATOM     16  C   UNL     1      -4.488   1.825  -0.197  0.00  0.00    +0.008 A 
ATOM     19  C   UNL     1      -6.018  -0.492   0.070  0.00  0.00    +0.046 A 
ATOM     20  C   UNL     1      -5.806   1.907   0.254  0.00  0.00    +0.001 A 
ATOM     21  C   UNL     1      -6.570   0.749   0.388  0.00  0.00    +0.004 A 
BRANCH  15   3
ATOM      3  O   UNL     1      -4.177  -1.794  -0.688  0.00  0.00    -0.495 OA
ATOM     24  C   UNL     1      -5.030  -2.925  -0.522  0.00  0.00    +0.277 C 
ENDBRANCH  15   3
ENDBRANCH  10  12
ENDBRANCH   4  10
TORSDOF 4
