REMARK  Name = 7134532
REMARK  15 active torsions:
REMARK  status: ('A' for Active; 'I' for Inactive)
REMARK    1  A    between atoms: O_1  and  C_21
REMARK    2  A    between atoms: O_2  and  C_23
REMARK    3  A    between atoms: O_3  and  C_24
REMARK    4  A    between atoms: O_5  and  C_28
REMARK    5  A    between atoms: O_9  and  C_37
REMARK    6  A    between atoms: N_10  and  C_19
REMARK    7  A    between atoms: N_11  and  C_29
REMARK    8  A    between atoms: C_13  and  C_18
REMARK    9  A    between atoms: C_13  and  C_20
REMARK   10  A    between atoms: C_18  and  C_26
REMARK   11  A    between atoms: C_20  and  C_28
REMARK   12  A    between atoms: C_21  and  C_27
REMARK   13  A    between atoms: C_29  and  C_30
REMARK   14  A    between atoms: C_29  and  C_31
REMARK   15  A    between atoms: C_30  and  C_32
REMARK                            x       y       z     vdW  Elec       q    Type
REMARK                         _______ _______ _______ _____ _____    ______ ____
ROOT
ATOM     19  C   UNL     1      -0.696  -2.591  -0.655  0.00  0.00    +0.107 C 
ATOM     21  C   UNL     1       1.698  -1.902  -1.158  0.00  0.00    +0.146 C 
ATOM     22  C   UNL     1       0.338  -1.461  -0.612  0.00  0.00    +0.069 C 
ATOM     23  C   UNL     1      -0.185  -3.860   0.042  0.00  0.00    +0.163 C 
ATOM     24  C   UNL     1       1.185  -4.293  -0.486  0.00  0.00    +0.148 C 
ATOM     25  C   UNL     1       2.204  -3.153  -0.443  0.00  0.00    +0.078 C 
ENDROOT
BRANCH  19  10
ATOM      4  O   UNL     1      -2.886  -1.229  -1.967  0.00  0.00    -0.276 OA
ATOM     10  N   UNL     1      -1.934  -2.144  -0.055  0.00  0.00    -0.310 N 
ATOM     26  C   UNL     1      -2.929  -1.496  -0.769  0.00  0.00    +0.214 C 
ATOM     38  H   UNL     1      -2.035  -2.257   0.950  0.00  0.00    +0.149 HD
BRANCH  26  18
ATOM     18  C   UNL     1      -4.112  -1.148   0.117  0.00  0.00    +0.103 C 
BRANCH  18  13
ATOM     13  C   UNL     1      -4.363   0.359   0.196  0.00  0.00    -0.011 C 
ATOM     14  C   UNL     1      -5.660   0.677   0.953  0.00  0.00    +0.008 C 
ATOM     15  C   UNL     1      -4.656   0.957  -1.187  0.00  0.00    +0.008 C 
ATOM     16  C   UNL     1      -6.073   2.064   0.468  0.00  0.00    +0.001 C 
ATOM     17  C   UNL     1      -5.429   2.244  -0.907  0.00  0.00    +0.001 C 
BRANCH  13  20
ATOM     20  C   UNL     1      -3.152   1.041   0.854  0.00  0.00    +0.127 C 
BRANCH  20  28
ATOM      7  O   UNL     1      -3.613   0.440   3.171  0.00  0.00    -0.251 OA
ATOM     28  C   UNL     1      -2.864   0.457   2.206  0.00  0.00    +0.305 C 
BRANCH  28   5
ATOM      5  O   UNL     1      -1.612  -0.069   2.212  0.00  0.00    -0.481 OA
ATOM     43  H   UNL     1      -1.386  -0.465   3.080  0.00  0.00    +0.295 HD
ENDBRANCH  28   5
ENDBRANCH  20  28
ENDBRANCH  13  20
ENDBRANCH  18  13
ENDBRANCH  26  18
ENDBRANCH  19  10
BRANCH  21  27
ATOM      6  O   UNL     1       3.281  -0.332  -2.014  0.00  0.00    -0.273 OA
ATOM     11  N   UNL     1       2.890  -0.402   0.280  0.00  0.00    -0.301 N 
ATOM     27  C   UNL     1       2.702  -0.794  -1.034  0.00  0.00    +0.246 C 
ATOM     42  H   UNL     1       2.395  -0.874   1.029  0.00  0.00    +0.150 HD
BRANCH  11  29
ATOM     29  C   UNL     1       3.821   0.632   0.670  0.00  0.00    +0.163 C 
BRANCH  29  31
ATOM      8  O   UNL     1       4.642  -0.944   2.328  0.00  0.00    -0.274 OA
ATOM     12  N   UNL     1       6.140   0.489   1.339  0.00  0.00    -0.328 N 
ATOM     31  C   UNL     1       4.877  -0.024   1.548  0.00  0.00    +0.231 C 
ATOM     44  H   UNL     1       6.321   1.248   0.690  0.00  0.00    +0.145 HD
ATOM     45  H   UNL     1       6.939   0.129   1.850  0.00  0.00    +0.145 HD
ENDBRANCH  29  31
BRANCH  29  30
ATOM     30  C   UNL     1       3.134   1.776   1.426  0.00  0.00    +0.067 C 
BRANCH  30  32
ATOM     32  C   UNL     1       2.425   2.740   0.506  0.00  0.00    -0.045 A 
ATOM     33  C   UNL     1       3.104   3.846  -0.004  0.00  0.00    +0.007 A 
ATOM     34  C   UNL     1       1.089   2.523   0.166  0.00  0.00    +0.007 A 
ATOM     35  C   UNL     1       2.448   4.736  -0.854  0.00  0.00    +0.045 A 
ATOM     36  C   UNL     1       0.433   3.413  -0.684  0.00  0.00    +0.045 A 
ATOM     37  C   UNL     1       1.112   4.520  -1.194  0.00  0.00    +0.117 A 
BRANCH  37   9
ATOM      9  O   UNL     1       0.472   5.389  -2.023  0.00  0.00    -0.507 OA
ATOM     46  H   UNL     1      -0.444   5.086  -2.151  0.00  0.00    +0.292 HD
ENDBRANCH  37   9
ENDBRANCH  30  32
ENDBRANCH  29  30
ENDBRANCH  11  29
ENDBRANCH  21  27
BRANCH  21   1
ATOM      1  O   UNL     1       1.611  -2.167  -2.553  0.00  0.00    -0.379 OA
ATOM     39  H   UNL     1       2.460  -2.538  -2.849  0.00  0.00    +0.211 HD
ENDBRANCH  21   1
BRANCH  23   2
ATOM      2  O   UNL     1      -1.102  -4.929  -0.205  0.00  0.00    -0.387 OA
ATOM     40  H   UNL     1      -1.166  -5.056  -1.167  0.00  0.00    +0.210 HD
ENDBRANCH  23   2
BRANCH  24   3
ATOM      3  O   UNL     1       1.661  -5.369   0.323  0.00  0.00    -0.389 OA
ATOM     41  H   UNL     1       2.525  -5.641  -0.032  0.00  0.00    +0.210 HD
ENDBRANCH  24   3
TORSDOF 15
