MODEL 1
REMARK VINA RESULT:      -5.7      0.000      0.000
REMARK  Name = 45783413
REMARK  8 active torsions:
REMARK  status: ('A' for Active; 'I' for Inactive)
REMARK    1  A    between atoms: O_2  and  C_16
REMARK    2  A    between atoms: O_2  and  C_19
REMARK    3  A    between atoms: O_3  and  C_21
REMARK    4  A    between atoms: O_3  and  C_22
REMARK    5  A    between atoms: N_4  and  C_13
REMARK    6  A    between atoms: C_8  and  C_12
REMARK    7  A    between atoms: C_14  and  C_15
REMARK    8  A    between atoms: C_19  and  C_21
REMARK                            x       y       z     vdW  Elec       q    Type
REMARK                         _______ _______ _______ _____ _____    ______ ____
ROOT
ATOM      1  O   UNL     1      10.999   9.078  22.582  0.00  0.00    -0.336 OA
ATOM      5  N   UNL     1      12.850   9.960  21.681  0.00  0.00    -0.190 NA
ATOM      6  N   UNL     1      11.766   7.996  22.131  0.00  0.00    -0.056 NA
ATOM     12  C   UNL     1      11.709  10.195  22.278  0.00  0.00    +0.245 A 
ATOM     14  C   UNL     1      12.842   8.596  21.612  0.00  0.00    +0.207 A 
ENDROOT
BRANCH  12   8
ATOM      4  N   UNL     1      11.682  12.086  23.895  0.00  0.00    -0.294 NA
ATOM      8  C   UNL     1      11.086  11.518  22.670  0.00  0.00    +0.146 C 
ATOM      9  C   UNL     1      11.281  12.607  21.599  0.00  0.00    +0.030 C 
ATOM     10  C   UNL     1      11.938  13.770  22.330  0.00  0.00    +0.017 C 
ATOM     11  C   UNL     1      11.561  13.540  23.779  0.00  0.00    +0.085 C 
ATOM     13  C   UNL     1      11.072  11.582  25.119  0.00  0.00    +0.105 C 
ENDBRANCH  12   8
BRANCH  14  15
ATOM      7  N   UNL     1      14.974   6.930  19.052  0.00  0.00    -0.221 NA
ATOM     15  C   UNL     1      13.921   7.865  21.017  0.00  0.00    +0.084 A 
ATOM     16  C   UNL     1      13.977   7.613  19.656  0.00  0.00    +0.226 A 
ATOM     17  C   UNL     1      14.957   7.383  21.809  0.00  0.00    +0.018 A 
ATOM     18  C   UNL     1      16.002   6.676  21.225  0.00  0.00    +0.021 A 
ATOM     20  C   UNL     1      15.964   6.477  19.854  0.00  0.00    +0.114 A 
BRANCH  16   2
ATOM      2  O   UNL     1      12.979   8.067  18.831  0.00  0.00    -0.474 OA
BRANCH   2  19
ATOM     19  C   UNL     1      13.067   7.702  17.460  0.00  0.00    +0.258 C 
BRANCH  19  21
ATOM     21  C   UNL     1      13.129   8.961  16.616  0.00  0.00    +0.200 C 
BRANCH  21   3
ATOM      3  O   UNL     1      12.135   8.891  15.602  0.00  0.00    -0.380 OA
ATOM     22  C   UNL     1      10.826   8.896  16.154  0.00  0.00    +0.194 C 
ENDBRANCH  21   3
ENDBRANCH  19  21
ENDBRANCH   2  19
ENDBRANCH  16   2
ENDBRANCH  14  15
TORSDOF 6
ENDMDL
MODEL 2
REMARK VINA RESULT:      -5.6     13.458     18.317
REMARK  Name = 45783413
REMARK  8 active torsions:
REMARK  status: ('A' for Active; 'I' for Inactive)
REMARK    1  A    between atoms: O_2  and  C_16
REMARK    2  A    between atoms: O_2  and  C_19
REMARK    3  A    between atoms: O_3  and  C_21
REMARK    4  A    between atoms: O_3  and  C_22
REMARK    5  A    between atoms: N_4  and  C_13
REMARK    6  A    between atoms: C_8  and  C_12
REMARK    7  A    between atoms: C_14  and  C_15
REMARK    8  A    between atoms: C_19  and  C_21
REMARK                            x       y       z     vdW  Elec       q    Type
REMARK                         _______ _______ _______ _____ _____    ______ ____
ROOT
ATOM      1  O   UNL     1      11.225   3.988   3.091  0.00  0.00    -0.336 OA
ATOM      5  N   UNL     1      11.299   6.204   2.769  0.00  0.00    -0.190 NA
ATOM      6  N   UNL     1      10.298   4.543   3.983  0.00  0.00    -0.056 NA
ATOM     12  C   UNL     1      11.769   5.033   2.415  0.00  0.00    +0.245 A 
ATOM     14  C   UNL     1      10.399   5.852   3.733  0.00  0.00    +0.207 A 
ENDROOT
BRANCH  12   8
ATOM      4  N   UNL     1      13.977   5.603   1.420  0.00  0.00    -0.294 NA
ATOM      8  C   UNL     1      12.815   4.694   1.375  0.00  0.00    +0.146 C 
ATOM      9  C   UNL     1      13.410   3.287   1.568  0.00  0.00    +0.030 C 
ATOM     10  C   UNL     1      14.916   3.501   1.651  0.00  0.00    +0.017 C 
ATOM     11  C   UNL     1      15.127   4.828   0.951  0.00  0.00    +0.085 C 
ATOM     13  C   UNL     1      13.784   6.821   0.644  0.00  0.00    +0.105 C 
ENDBRANCH  12   8
BRANCH  14  15
ATOM      7  N   UNL     1       9.114   8.035   6.466  0.00  0.00    -0.221 NA
ATOM     15  C   UNL     1       9.619   6.833   4.429  0.00  0.00    +0.084 A 
ATOM     16  C   UNL     1       9.824   7.119   5.770  0.00  0.00    +0.226 A 
ATOM     17  C   UNL     1       8.620   7.531   3.762  0.00  0.00    +0.018 A 
ATOM     18  C   UNL     1       7.869   8.482   4.443  0.00  0.00    +0.021 A 
ATOM     20  C   UNL     1       8.152   8.694   5.783  0.00  0.00    +0.114 A 
BRANCH  16   2
ATOM      2  O   UNL     1      10.798   6.456   6.474  0.00  0.00    -0.474 OA
BRANCH   2  19
ATOM     19  C   UNL     1      10.486   6.101   7.815  0.00  0.00    +0.258 C 
BRANCH  19  21
ATOM     21  C   UNL     1       9.945   4.684   7.838  0.00  0.00    +0.200 C 
BRANCH  21   3
ATOM      3  O   UNL     1      10.073   4.160   9.153  0.00  0.00    -0.380 OA
ATOM     22  C   UNL     1       9.055   4.654  10.013  0.00  0.00    +0.194 C 
ENDBRANCH  21   3
ENDBRANCH  19  21
ENDBRANCH   2  19
ENDBRANCH  16   2
ENDBRANCH  14  15
TORSDOF 6
ENDMDL
MODEL 3
REMARK VINA RESULT:      -5.6      3.144      5.253
REMARK  Name = 45783413
REMARK  8 active torsions:
REMARK  status: ('A' for Active; 'I' for Inactive)
REMARK    1  A    between atoms: O_2  and  C_16
REMARK    2  A    between atoms: O_2  and  C_19
REMARK    3  A    between atoms: O_3  and  C_21
REMARK    4  A    between atoms: O_3  and  C_22
REMARK    5  A    between atoms: N_4  and  C_13
REMARK    6  A    between atoms: C_8  and  C_12
REMARK    7  A    between atoms: C_14  and  C_15
REMARK    8  A    between atoms: C_19  and  C_21
REMARK                            x       y       z     vdW  Elec       q    Type
REMARK                         _______ _______ _______ _____ _____    ______ ____
ROOT
ATOM      1  O   UNL     1      13.481   7.456  18.594  0.00  0.00    -0.336 OA
ATOM      5  N   UNL     1      14.286   7.279  20.677  0.00  0.00    -0.190 NA
ATOM      6  N   UNL     1      14.867   7.304  18.464  0.00  0.00    -0.056 NA
ATOM     12  C   UNL     1      13.223   7.431  19.927  0.00  0.00    +0.245 A 
ATOM     14  C   UNL     1      15.271   7.206  19.734  0.00  0.00    +0.207 A 
ENDROOT
BRANCH  12   8
ATOM      4  N   UNL     1      11.486   6.952  21.644  0.00  0.00    -0.294 NA
ATOM      8  C   UNL     1      11.773   7.578  20.338  0.00  0.00    +0.146 C 
ATOM      9  C   UNL     1      11.349   9.049  20.508  0.00  0.00    +0.030 C 
ATOM     10  C   UNL     1      10.781   9.138  21.917  0.00  0.00    +0.017 C 
ATOM     11  C   UNL     1      10.383   7.711  22.233  0.00  0.00    +0.085 C 
ATOM     13  C   UNL     1      11.182   5.530  21.545  0.00  0.00    +0.105 C 
ENDBRANCH  12   8
BRANCH  14  15
ATOM      7  N   UNL     1      18.606   7.820  21.277  0.00  0.00    -0.221 NA
ATOM     15  C   UNL     1      16.648   7.037  20.095  0.00  0.00    +0.084 A 
ATOM     16  C   UNL     1      17.310   7.939  20.911  0.00  0.00    +0.226 A 
ATOM     17  C   UNL     1      17.362   5.942  19.623  0.00  0.00    +0.018 A 
ATOM     18  C   UNL     1      18.697   5.783  19.978  0.00  0.00    +0.021 A 
ATOM     20  C   UNL     1      19.268   6.742  20.799  0.00  0.00    +0.114 A 
BRANCH  16   2
ATOM      2  O   UNL     1      16.649   9.037  21.402  0.00  0.00    -0.474 OA
BRANCH   2  19
ATOM     19  C   UNL     1      16.751  10.235  20.643  0.00  0.00    +0.258 C 
BRANCH  19  21
ATOM     21  C   UNL     1      16.269  11.398  21.489  0.00  0.00    +0.200 C 
BRANCH  21   3
ATOM      3  O   UNL     1      17.011  11.429  22.702  0.00  0.00    -0.380 OA
ATOM     22  C   UNL     1      16.391  12.262  23.672  0.00  0.00    +0.194 C 
ENDBRANCH  21   3
ENDBRANCH  19  21
ENDBRANCH   2  19
ENDBRANCH  16   2
ENDBRANCH  14  15
TORSDOF 6
ENDMDL
MODEL 4
REMARK VINA RESULT:      -5.4     26.142     27.708
REMARK  Name = 45783413
REMARK  8 active torsions:
REMARK  status: ('A' for Active; 'I' for Inactive)
REMARK    1  A    between atoms: O_2  and  C_16
REMARK    2  A    between atoms: O_2  and  C_19
REMARK    3  A    between atoms: O_3  and  C_21
REMARK    4  A    between atoms: O_3  and  C_22
REMARK    5  A    between atoms: N_4  and  C_13
REMARK    6  A    between atoms: C_8  and  C_12
REMARK    7  A    between atoms: C_14  and  C_15
REMARK    8  A    between atoms: C_19  and  C_21
REMARK                            x       y       z     vdW  Elec       q    Type
REMARK                         _______ _______ _______ _____ _____    ______ ____
ROOT
ATOM      1  O   UNL     1      -2.337 -10.388  14.712  0.00  0.00    -0.336 OA
ATOM      5  N   UNL     1      -4.445 -11.107  14.949  0.00  0.00    -0.190 NA
ATOM      6  N   UNL     1      -2.601 -10.372  16.087  0.00  0.00    -0.056 NA
ATOM     12  C   UNL     1      -3.474 -10.833  14.115  0.00  0.00    +0.245 A 
ATOM     14  C   UNL     1      -3.863 -10.809  16.148  0.00  0.00    +0.207 A 
ENDROOT
BRANCH  12   8
ATOM      4  N   UNL     1      -4.264  -9.908  11.945  0.00  0.00    -0.294 NA
ATOM      8  C   UNL     1      -3.446 -10.944  12.605  0.00  0.00    +0.146 C 
ATOM      9  C   UNL     1      -2.033 -10.756  12.022  0.00  0.00    +0.030 C 
ATOM     10  C   UNL     1      -2.170  -9.637  11.000  0.00  0.00    +0.017 C 
ATOM     11  C   UNL     1      -3.643  -9.657  10.644  0.00  0.00    +0.085 C 
ATOM     13  C   UNL     1      -5.668 -10.280  11.818  0.00  0.00    +0.105 C 
ENDBRANCH  12   8
BRANCH  14  15
ATOM      7  N   UNL     1      -6.479 -10.432  18.773  0.00  0.00    -0.221 NA
ATOM     15  C   UNL     1      -4.570 -10.956  17.386  0.00  0.00    +0.084 A 
ATOM     16  C   UNL     1      -5.779 -10.322  17.623  0.00  0.00    +0.226 A 
ATOM     17  C   UNL     1      -4.046 -11.753  18.397  0.00  0.00    +0.018 A 
ATOM     18  C   UNL     1      -4.737 -11.893  19.595  0.00  0.00    +0.021 A 
ATOM     20  C   UNL     1      -5.939 -11.217  19.733  0.00  0.00    +0.114 A 
BRANCH  16   2
ATOM      2  O   UNL     1      -6.337  -9.523  16.657  0.00  0.00    -0.474 OA
BRANCH   2  19
ATOM     19  C   UNL     1      -7.724  -9.237  16.787  0.00  0.00    +0.258 C 
BRANCH  19  21
ATOM     21  C   UNL     1      -8.432  -9.633  15.506  0.00  0.00    +0.200 C 
BRANCH  21   3
ATOM      3  O   UNL     1      -9.681  -8.957  15.438  0.00  0.00    -0.380 OA
ATOM     22  C   UNL     1      -9.733  -7.864  16.344  0.00  0.00    +0.194 C 
ENDBRANCH  21   3
ENDBRANCH  19  21
ENDBRANCH   2  19
ENDBRANCH  16   2
ENDBRANCH  14  15
TORSDOF 6
ENDMDL
MODEL 5
REMARK VINA RESULT:      -5.3     26.560     28.103
REMARK  Name = 45783413
REMARK  8 active torsions:
REMARK  status: ('A' for Active; 'I' for Inactive)
REMARK    1  A    between atoms: O_2  and  C_16
REMARK    2  A    between atoms: O_2  and  C_19
REMARK    3  A    between atoms: O_3  and  C_21
REMARK    4  A    between atoms: O_3  and  C_22
REMARK    5  A    between atoms: N_4  and  C_13
REMARK    6  A    between atoms: C_8  and  C_12
REMARK    7  A    between atoms: C_14  and  C_15
REMARK    8  A    between atoms: C_19  and  C_21
REMARK                            x       y       z     vdW  Elec       q    Type
REMARK                         _______ _______ _______ _____ _____    ______ ____
ROOT
ATOM      1  O   UNL     1      -1.670 -11.162  15.240  0.00  0.00    -0.336 OA
ATOM      5  N   UNL     1      -3.675 -12.157  15.334  0.00  0.00    -0.190 NA
ATOM      6  N   UNL     1      -2.308 -10.647  16.376  0.00  0.00    -0.056 NA
ATOM     12  C   UNL     1      -2.543 -12.042  14.685  0.00  0.00    +0.245 A 
ATOM     14  C   UNL     1      -3.484 -11.281  16.364  0.00  0.00    +0.207 A 
ENDROOT
BRANCH  12   8
ATOM      4  N   UNL     1      -2.611 -14.120  13.319  0.00  0.00    -0.294 NA
ATOM      8  C   UNL     1      -2.084 -12.746  13.425  0.00  0.00    +0.146 C 
ATOM      9  C   UNL     1      -2.564 -12.041  12.143  0.00  0.00    +0.030 C 
ATOM     10  C   UNL     1      -3.298 -13.115  11.351  0.00  0.00    +0.017 C 
ATOM     11  C   UNL     1      -2.724 -14.411  11.889  0.00  0.00    +0.085 C 
ATOM     13  C   UNL     1      -1.793 -15.105  14.014  0.00  0.00    +0.105 C 
ENDBRANCH  12   8
BRANCH  14  15
ATOM      7  N   UNL     1      -6.570 -10.035  18.038  0.00  0.00    -0.221 NA
ATOM     15  C   UNL     1      -4.488 -11.063  17.363  0.00  0.00    +0.084 A 
ATOM     16  C   UNL     1      -5.599 -10.269  17.127  0.00  0.00    +0.226 A 
ATOM     17  C   UNL     1      -4.366 -11.654  18.615  0.00  0.00    +0.018 A 
ATOM     18  C   UNL     1      -5.345 -11.438  19.579  0.00  0.00    +0.021 A 
ATOM     20  C   UNL     1      -6.418 -10.627  19.244  0.00  0.00    +0.114 A 
BRANCH  16   2
ATOM      2  O   UNL     1      -5.765  -9.663  15.907  0.00  0.00    -0.474 OA
BRANCH   2  19
ATOM     19  C   UNL     1      -6.954  -9.977  15.194  0.00  0.00    +0.258 C 
BRANCH  19  21
ATOM     21  C   UNL     1      -6.586 -10.719  13.923  0.00  0.00    +0.200 C 
BRANCH  21   3
ATOM      3  O   UNL     1      -5.629  -9.956  13.200  0.00  0.00    -0.380 OA
ATOM     22  C   UNL     1      -6.252  -9.098  12.255  0.00  0.00    +0.194 C 
ENDBRANCH  21   3
ENDBRANCH  19  21
ENDBRANCH   2  19
ENDBRANCH  16   2
ENDBRANCH  14  15
TORSDOF 6
ENDMDL
MODEL 6
REMARK VINA RESULT:      -5.2     14.442     18.648
REMARK  Name = 45783413
REMARK  8 active torsions:
REMARK  status: ('A' for Active; 'I' for Inactive)
REMARK    1  A    between atoms: O_2  and  C_16
REMARK    2  A    between atoms: O_2  and  C_19
REMARK    3  A    between atoms: O_3  and  C_21
REMARK    4  A    between atoms: O_3  and  C_22
REMARK    5  A    between atoms: N_4  and  C_13
REMARK    6  A    between atoms: C_8  and  C_12
REMARK    7  A    between atoms: C_14  and  C_15
REMARK    8  A    between atoms: C_19  and  C_21
REMARK                            x       y       z     vdW  Elec       q    Type
REMARK                         _______ _______ _______ _____ _____    ______ ____
ROOT
ATOM      1  O   UNL     1      11.986   6.063   2.841  0.00  0.00    -0.336 OA
ATOM      5  N   UNL     1      10.469   4.817   3.921  0.00  0.00    -0.190 NA
ATOM      6  N   UNL     1      11.636   6.784   3.990  0.00  0.00    -0.056 NA
ATOM     12  C   UNL     1      11.254   4.919   2.877  0.00  0.00    +0.245 A 
ATOM     14  C   UNL     1      10.738   5.985   4.575  0.00  0.00    +0.207 A 
ENDROOT
BRANCH  12   8
ATOM      4  N   UNL     1      11.505   4.632   0.418  0.00  0.00    -0.294 NA
ATOM      8  C   UNL     1      11.454   3.953   1.728  0.00  0.00    +0.146 C 
ATOM      9  C   UNL     1      12.785   3.185   1.823  0.00  0.00    +0.030 C 
ATOM     10  C   UNL     1      13.487   3.442   0.497  0.00  0.00    +0.017 C 
ATOM     11  C   UNL     1      12.355   3.808  -0.442  0.00  0.00    +0.085 C 
ATOM     13  C   UNL     1      10.188   4.854  -0.165  0.00  0.00    +0.105 C 
ENDBRANCH  12   8
BRANCH  14  15
ATOM      7  N   UNL     1       8.201   7.269   6.981  0.00  0.00    -0.221 NA
ATOM     15  C   UNL     1      10.092   6.323   5.808  0.00  0.00    +0.084 A 
ATOM     16  C   UNL     1       8.848   6.932   5.843  0.00  0.00    +0.226 A 
ATOM     17  C   UNL     1      10.712   6.042   7.020  0.00  0.00    +0.018 A 
ATOM     18  C   UNL     1      10.078   6.372   8.213  0.00  0.00    +0.021 A 
ATOM     20  C   UNL     1       8.834   6.980   8.140  0.00  0.00    +0.114 A 
BRANCH  16   2
ATOM      2  O   UNL     1       8.195   7.231   4.674  0.00  0.00    -0.474 OA
BRANCH   2  19
ATOM     19  C   UNL     1       7.887   8.601   4.446  0.00  0.00    +0.258 C 
BRANCH  19  21
ATOM     21  C   UNL     1       8.417   9.007   3.084  0.00  0.00    +0.200 C 
BRANCH  21   3
ATOM      3  O   UNL     1       8.801   7.840   2.368  0.00  0.00    -0.380 OA
ATOM     22  C   UNL     1       9.508   8.166   1.180  0.00  0.00    +0.194 C 
ENDBRANCH  21   3
ENDBRANCH  19  21
ENDBRANCH   2  19
ENDBRANCH  16   2
ENDBRANCH  14  15
TORSDOF 6
ENDMDL
MODEL 7
REMARK VINA RESULT:      -5.2     14.394     18.264
REMARK  Name = 45783413
REMARK  8 active torsions:
REMARK  status: ('A' for Active; 'I' for Inactive)
REMARK    1  A    between atoms: O_2  and  C_16
REMARK    2  A    between atoms: O_2  and  C_19
REMARK    3  A    between atoms: O_3  and  C_21
REMARK    4  A    between atoms: O_3  and  C_22
REMARK    5  A    between atoms: N_4  and  C_13
REMARK    6  A    between atoms: C_8  and  C_12
REMARK    7  A    between atoms: C_14  and  C_15
REMARK    8  A    between atoms: C_19  and  C_21
REMARK                            x       y       z     vdW  Elec       q    Type
REMARK                         _______ _______ _______ _____ _____    ______ ____
ROOT
ATOM      1  O   UNL     1      11.357   6.695   4.628  0.00  0.00    -0.336 OA
ATOM      5  N   UNL     1      10.437   4.818   3.823  0.00  0.00    -0.190 NA
ATOM      6  N   UNL     1      12.054   6.395   3.451  0.00  0.00    -0.056 NA
ATOM     12  C   UNL     1      10.424   5.719   4.774  0.00  0.00    +0.245 A 
ATOM     14  C   UNL     1      11.454   5.276   3.034  0.00  0.00    +0.207 A 
ENDROOT
BRANCH  12   8
ATOM      4  N   UNL     1      10.129   6.614   7.076  0.00  0.00    -0.294 NA
ATOM      8  C   UNL     1       9.527   5.818   5.989  0.00  0.00    +0.146 C 
ATOM      9  C   UNL     1       8.190   6.518   5.685  0.00  0.00    +0.030 C 
ATOM     10  C   UNL     1       8.100   7.657   6.691  0.00  0.00    +0.017 C 
ATOM     11  C   UNL     1       9.017   7.215   7.814  0.00  0.00    +0.085 C 
ATOM     13  C   UNL     1      11.003   5.834   7.944  0.00  0.00    +0.105 C 
ENDBRANCH  12   8
BRANCH  14  15
ATOM      7  N   UNL     1      11.449   4.055  -0.486  0.00  0.00    -0.221 NA
ATOM     15  C   UNL     1      11.846   4.589   1.838  0.00  0.00    +0.084 A 
ATOM     16  C   UNL     1      11.117   4.683   0.664  0.00  0.00    +0.226 A 
ATOM     17  C   UNL     1      12.989   3.799   1.831  0.00  0.00    +0.018 A 
ATOM     18  C   UNL     1      13.365   3.137   0.667  0.00  0.00    +0.021 A 
ATOM     20  C   UNL     1      12.567   3.296  -0.455  0.00  0.00    +0.114 A 
BRANCH  16   2
ATOM      2  O   UNL     1       9.980   5.450   0.619  0.00  0.00    -0.474 OA
BRANCH   2  19
ATOM     19  C   UNL     1      10.045   6.644  -0.151  0.00  0.00    +0.258 C 
BRANCH  19  21
ATOM     21  C   UNL     1       9.905   7.838   0.775  0.00  0.00    +0.200 C 
BRANCH  21   3
ATOM      3  O   UNL     1       9.127   7.462   1.903  0.00  0.00    -0.380 OA
ATOM     22  C   UNL     1       8.886   8.567   2.763  0.00  0.00    +0.194 C 
ENDBRANCH  21   3
ENDBRANCH  19  21
ENDBRANCH   2  19
ENDBRANCH  16   2
ENDBRANCH  14  15
TORSDOF 6
ENDMDL
MODEL 8
REMARK VINA RESULT:      -5.2     14.220     18.389
REMARK  Name = 45783413
REMARK  8 active torsions:
REMARK  status: ('A' for Active; 'I' for Inactive)
REMARK    1  A    between atoms: O_2  and  C_16
REMARK    2  A    between atoms: O_2  and  C_19
REMARK    3  A    between atoms: O_3  and  C_21
REMARK    4  A    between atoms: O_3  and  C_22
REMARK    5  A    between atoms: N_4  and  C_13
REMARK    6  A    between atoms: C_8  and  C_12
REMARK    7  A    between atoms: C_14  and  C_15
REMARK    8  A    between atoms: C_19  and  C_21
REMARK                            x       y       z     vdW  Elec       q    Type
REMARK                         _______ _______ _______ _____ _____    ______ ____
ROOT
ATOM      1  O   UNL     1      11.108   3.819   3.089  0.00  0.00    -0.336 OA
ATOM      5  N   UNL     1      11.316   6.039   3.305  0.00  0.00    -0.190 NA
ATOM      6  N   UNL     1      10.472   4.155   4.291  0.00  0.00    -0.056 NA
ATOM     12  C   UNL     1      11.577   4.985   2.573  0.00  0.00    +0.245 A 
ATOM     14  C   UNL     1      10.637   5.480   4.349  0.00  0.00    +0.207 A 
ENDROOT
BRANCH  12   8
ATOM      4  N   UNL     1      12.986   3.590   1.070  0.00  0.00    -0.294 NA
ATOM      8  C   UNL     1      12.315   4.892   1.254  0.00  0.00    +0.146 C 
ATOM      9  C   UNL     1      11.379   5.026   0.039  0.00  0.00    +0.030 C 
ATOM     10  C   UNL     1      11.639   3.783  -0.801  0.00  0.00    +0.017 C 
ATOM     11  C   UNL     1      13.025   3.346  -0.373  0.00  0.00    +0.085 C 
ATOM     13  C   UNL     1      14.313   3.537   1.670  0.00  0.00    +0.105 C 
ENDBRANCH  12   8
BRANCH  14  15
ATOM      7  N   UNL     1      10.542   7.515   7.468  0.00  0.00    -0.221 NA
ATOM     15  C   UNL     1      10.137   6.272   5.434  0.00  0.00    +0.084 A 
ATOM     16  C   UNL     1      10.968   6.764   6.428  0.00  0.00    +0.226 A 
ATOM     17  C   UNL     1       8.782   6.568   5.515  0.00  0.00    +0.018 A 
ATOM     18  C   UNL     1       8.305   7.339   6.570  0.00  0.00    +0.021 A 
ATOM     20  C   UNL     1       9.218   7.783   7.513  0.00  0.00    +0.114 A 
BRANCH  16   2
ATOM      2  O   UNL     1      12.314   6.498   6.394  0.00  0.00    -0.474 OA
BRANCH   2  19
ATOM     19  C   UNL     1      13.168   7.445   7.022  0.00  0.00    +0.258 C 
BRANCH  19  21
ATOM     21  C   UNL     1      14.507   7.452   6.310  0.00  0.00    +0.200 C 
BRANCH  21   3
ATOM      3  O   UNL     1      14.294   7.263   4.917  0.00  0.00    -0.380 OA
ATOM     22  C   UNL     1      15.522   7.154   4.211  0.00  0.00    +0.194 C 
ENDBRANCH  21   3
ENDBRANCH  19  21
ENDBRANCH   2  19
ENDBRANCH  16   2
ENDBRANCH  14  15
TORSDOF 6
ENDMDL
MODEL 9
REMARK VINA RESULT:      -5.0     13.616     17.561
REMARK  Name = 45783413
REMARK  8 active torsions:
REMARK  status: ('A' for Active; 'I' for Inactive)
REMARK    1  A    between atoms: O_2  and  C_16
REMARK    2  A    between atoms: O_2  and  C_19
REMARK    3  A    between atoms: O_3  and  C_21
REMARK    4  A    between atoms: O_3  and  C_22
REMARK    5  A    between atoms: N_4  and  C_13
REMARK    6  A    between atoms: C_8  and  C_12
REMARK    7  A    between atoms: C_14  and  C_15
REMARK    8  A    between atoms: C_19  and  C_21
REMARK                            x       y       z     vdW  Elec       q    Type
REMARK                         _______ _______ _______ _____ _____    ______ ____
ROOT
ATOM      1  O   UNL     1      12.382   6.701   4.084  0.00  0.00    -0.336 OA
ATOM      5  N   UNL     1      10.603   5.373   4.381  0.00  0.00    -0.190 NA
ATOM      6  N   UNL     1      12.054   6.787   5.444  0.00  0.00    -0.056 NA
ATOM     12  C   UNL     1      11.479   5.850   3.532  0.00  0.00    +0.245 A 
ATOM     14  C   UNL     1      10.996   5.976   5.541  0.00  0.00    +0.207 A 
ENDROOT
BRANCH  12   8
ATOM      4  N   UNL     1      11.465   4.156   1.710  0.00  0.00    -0.294 NA
ATOM      8  C   UNL     1      11.621   5.584   2.048  0.00  0.00    +0.146 C 
ATOM      9  C   UNL     1      10.547   6.304   1.211  0.00  0.00    +0.030 C 
ATOM     10  C   UNL     1       9.883   5.208   0.390  0.00  0.00    +0.017 C 
ATOM     11  C   UNL     1      10.926   4.109   0.350  0.00  0.00    +0.085 C 
ATOM     13  C   UNL     1      12.704   3.398   1.834  0.00  0.00    +0.105 C 
ENDBRANCH  12   8
BRANCH  14  15
ATOM      7  N   UNL     1       8.945   6.587   8.590  0.00  0.00    -0.221 NA
ATOM     15  C   UNL     1      10.309   5.750   6.778  0.00  0.00    +0.084 A 
ATOM     16  C   UNL     1       9.607   6.755   7.424  0.00  0.00    +0.226 A 
ATOM     17  C   UNL     1      10.334   4.492   7.369  0.00  0.00    +0.018 A 
ATOM     18  C   UNL     1       9.664   4.279   8.569  0.00  0.00    +0.021 A 
ATOM     20  C   UNL     1       8.991   5.350   9.134  0.00  0.00    +0.114 A 
BRANCH  16   2
ATOM      2  O   UNL     1       9.554   8.014   6.882  0.00  0.00    -0.474 OA
BRANCH   2  19
ATOM     19  C   UNL     1       8.298   8.434   6.365  0.00  0.00    +0.258 C 
BRANCH  19  21
ATOM     21  C   UNL     1       8.525   9.542   5.353  0.00  0.00    +0.200 C 
BRANCH  21   3
ATOM      3  O   UNL     1       7.809   9.238   4.163  0.00  0.00    -0.380 OA
ATOM     22  C   UNL     1       8.279   8.039   3.563  0.00  0.00    +0.194 C 
ENDBRANCH  21   3
ENDBRANCH  19  21
ENDBRANCH   2  19
ENDBRANCH  16   2
ENDBRANCH  14  15
TORSDOF 6
ENDMDL
MODEL 10
REMARK VINA RESULT:      -5.0     26.597     28.280
REMARK  Name = 45783413
REMARK  8 active torsions:
REMARK  status: ('A' for Active; 'I' for Inactive)
REMARK    1  A    between atoms: O_2  and  C_16
REMARK    2  A    between atoms: O_2  and  C_19
REMARK    3  A    between atoms: O_3  and  C_21
REMARK    4  A    between atoms: O_3  and  C_22
REMARK    5  A    between atoms: N_4  and  C_13
REMARK    6  A    between atoms: C_8  and  C_12
REMARK    7  A    between atoms: C_14  and  C_15
REMARK    8  A    between atoms: C_19  and  C_21
REMARK                            x       y       z     vdW  Elec       q    Type
REMARK                         _______ _______ _______ _____ _____    ______ ____
ROOT
ATOM      1  O   UNL     1      -2.894 -10.397  13.423  0.00  0.00    -0.336 OA
ATOM      5  N   UNL     1      -4.984 -10.935  14.024  0.00  0.00    -0.190 NA
ATOM      6  N   UNL     1      -2.844 -10.682  14.794  0.00  0.00    -0.056 NA
ATOM     12  C   UNL     1      -4.188 -10.570  13.050  0.00  0.00    +0.245 A 
ATOM     14  C   UNL     1      -4.113 -10.991  15.075  0.00  0.00    +0.207 A 
ENDROOT
BRANCH  12   8
ATOM      4  N   UNL     1      -5.117  -8.996  11.362  0.00  0.00    -0.294 NA
ATOM      8  C   UNL     1      -4.510 -10.322  11.591  0.00  0.00    +0.146 C 
ATOM      9  C   UNL     1      -3.257 -10.339  10.696  0.00  0.00    +0.030 C 
ATOM     10  C   UNL     1      -3.279  -9.008   9.957  0.00  0.00    +0.017 C 
ATOM     11  C   UNL     1      -4.736  -8.595  10.007  0.00  0.00    +0.085 C 
ATOM     13  C   UNL     1      -6.562  -8.985  11.550  0.00  0.00    +0.105 C 
ENDBRANCH  12   8
BRANCH  14  15
ATOM      7  N   UNL     1      -5.081 -13.070  18.011  0.00  0.00    -0.221 NA
ATOM     15  C   UNL     1      -4.545 -11.356  16.392  0.00  0.00    +0.084 A 
ATOM     16  C   UNL     1      -4.679 -12.679  16.781  0.00  0.00    +0.226 A 
ATOM     17  C   UNL     1      -4.845 -10.371  17.325  0.00  0.00    +0.018 A 
ATOM     18  C   UNL     1      -5.262 -10.732  18.602  0.00  0.00    +0.021 A 
ATOM     20  C   UNL     1      -5.364 -12.083  18.892  0.00  0.00    +0.114 A 
BRANCH  16   2
ATOM      2  O   UNL     1      -4.396 -13.689  15.896  0.00  0.00    -0.474 OA
BRANCH   2  19
ATOM     19  C   UNL     1      -5.507 -14.337  15.291  0.00  0.00    +0.258 C 
BRANCH  19  21
ATOM     21  C   UNL     1      -5.077 -14.907  13.952  0.00  0.00    +0.200 C 
BRANCH  21   3
ATOM      3  O   UNL     1      -3.799 -14.384  13.614  0.00  0.00    -0.380 OA
ATOM     22  C   UNL     1      -3.703 -14.098  12.225  0.00  0.00    +0.194 C 
ENDBRANCH  21   3
ENDBRANCH  19  21
ENDBRANCH   2  19
ENDBRANCH  16   2
ENDBRANCH  14  15
TORSDOF 6
ENDMDL
