MODEL 1
REMARK VINA RESULT:      -8.1      0.000      0.000
REMARK  Name = 40779333
REMARK  9 active torsions:
REMARK  status: ('A' for Active; 'I' for Inactive)
REMARK    1  A    between atoms: S_1  and  N_8
REMARK    2  A    between atoms: S_1  and  C_24
REMARK    3  A    between atoms: N_7  and  C_22
REMARK    4  A    between atoms: N_8  and  C_18
REMARK    5  A    between atoms: N_10  and  C_32
REMARK    6  A    between atoms: C_12  and  C_19
REMARK    7  A    between atoms: C_13  and  C_18
REMARK    8  A    between atoms: C_21  and  C_23
REMARK    9  A    between atoms: C_33  and  C_34
REMARK                            x       y       z     vdW  Elec       q    Type
REMARK                         _______ _______ _______ _____ _____    ______ ____
ROOT
ATOM      6  N   UNL     1      12.348   6.669  20.919  0.00  0.00    -0.297 NA
ATOM     11  C   UNL     1      11.910   9.212  20.564  0.00  0.00    +0.002 C 
ATOM     12  C   UNL     1      11.761   8.442  19.223  0.00  0.00    +0.055 C 
ATOM     13  C   UNL     1      13.448   7.464  21.525  0.00  0.00    +0.072 C 
ATOM     14  C   UNL     1      13.315   8.955  21.148  0.00  0.00    +0.024 C 
ATOM     15  C   UNL     1      10.890   8.594  21.546  0.00  0.00    +0.019 C 
ATOM     16  C   UNL     1      12.232   6.981  19.472  0.00  0.00    +0.094 C 
ATOM     17  C   UNL     1      11.082   7.067  21.580  0.00  0.00    +0.085 C 
ENDROOT
BRANCH  12  19
ATOM      7  N   UNL     1      11.768   9.062  16.762  0.00  0.00    -0.270 N 
ATOM      9  N   UNL     1      12.491   9.639  15.788  0.00  0.00    -0.168 NA
ATOM     19  C   UNL     1      12.390   9.046  17.975  0.00  0.00    +0.044 A 
ATOM     20  C   UNL     1      13.606   9.655  17.782  0.00  0.00    +0.056 A 
ATOM     21  C   UNL     1      13.613  10.000  16.416  0.00  0.00    +0.128 A 
ATOM     22  C   UNL     1      10.458   8.538  16.451  0.00  0.00    +0.172 C 
BRANCH  21  23
ATOM      4  O   UNL     1      15.134  10.368  14.459  0.00  0.00    -0.461 OA
ATOM     23  C   UNL     1      14.712  10.684  15.712  0.00  0.00    +0.155 A 
ATOM     25  C   UNL     1      15.453  11.724  16.223  0.00  0.00    +0.051 A 
ATOM     28  C   UNL     1      16.390  12.070  15.219  0.00  0.00    +0.042 A 
ATOM     29  C   UNL     1      16.155  11.216  14.166  0.00  0.00    +0.196 A 
ENDBRANCH  21  23
ENDBRANCH  12  19
BRANCH  13  18
ATOM     18  C   UNL     1      14.829   6.908  21.174  0.00  0.00    +0.124 C 
BRANCH  18   8
ATOM      8  N   UNL     1      15.854   7.647  21.930  0.00  0.00    -0.188 NA
ATOM     35  H   UNL     1      15.586   7.977  22.865  0.00  0.00    +0.148 HD
BRANCH   8   1
ATOM      1  S   UNL     1      17.027   8.568  21.106  0.00  0.00    +0.058 S 
ATOM      2  O   UNL     1      17.490   9.637  21.970  0.00  0.00    -0.153 OA
ATOM      3  O   UNL     1      16.546   8.865  19.771  0.00  0.00    -0.153 OA
BRANCH   1  24
ATOM     24  C   UNL     1      18.344   7.400  20.931  0.00  0.00    +0.105 A 
ATOM     26  C   UNL     1      19.601   7.682  21.468  0.00  0.00    +0.030 A 
ATOM     27  C   UNL     1      18.126   6.199  20.258  0.00  0.00    +0.030 A 
ATOM     30  C   UNL     1      20.639   6.761  21.331  0.00  0.00    +0.025 A 
ATOM     31  C   UNL     1      19.165   5.279  20.119  0.00  0.00    +0.025 A 
ATOM     32  C   UNL     1      20.421   5.560  20.656  0.00  0.00    +0.033 A 
BRANCH  32  10
ATOM      5  O   UNL     1      21.718   3.760  22.693  0.00  0.00    -0.276 OA
ATOM     10  N   UNL     1      21.461   4.638  20.520  0.00  0.00    -0.286 N 
ATOM     33  C   UNL     1      22.030   3.824  21.508  0.00  0.00    +0.214 C 
ATOM     34  C   UNL     1      23.137   2.963  20.953  0.00  0.00    +0.109 C 
ATOM     36  H   UNL     1      21.848   4.556  19.582  0.00  0.00    +0.155 HD
ENDBRANCH  32  10
ENDBRANCH   1  24
ENDBRANCH   8   1
ENDBRANCH  18   8
ENDBRANCH  13  18
TORSDOF 7
ENDMDL
MODEL 2
REMARK VINA RESULT:      -7.7     27.645     29.946
REMARK  Name = 40779333
REMARK  9 active torsions:
REMARK  status: ('A' for Active; 'I' for Inactive)
REMARK    1  A    between atoms: S_1  and  N_8
REMARK    2  A    between atoms: S_1  and  C_24
REMARK    3  A    between atoms: N_7  and  C_22
REMARK    4  A    between atoms: N_8  and  C_18
REMARK    5  A    between atoms: N_10  and  C_32
REMARK    6  A    between atoms: C_12  and  C_19
REMARK    7  A    between atoms: C_13  and  C_18
REMARK    8  A    between atoms: C_21  and  C_23
REMARK    9  A    between atoms: C_33  and  C_34
REMARK                            x       y       z     vdW  Elec       q    Type
REMARK                         _______ _______ _______ _____ _____    ______ ____
ROOT
ATOM      6  N   UNL     1      -5.230 -12.677  16.932  0.00  0.00    -0.297 NA
ATOM     11  C   UNL     1      -5.493 -10.664  18.565  0.00  0.00    +0.002 C 
ATOM     12  C   UNL     1      -6.864 -11.356  18.328  0.00  0.00    +0.055 C 
ATOM     13  C   UNL     1      -4.582 -11.469  16.358  0.00  0.00    +0.072 C 
ATOM     14  C   UNL     1      -4.904 -10.222  17.208  0.00  0.00    +0.024 C 
ATOM     15  C   UNL     1      -4.547 -11.741  19.141  0.00  0.00    +0.019 C 
ATOM     16  C   UNL     1      -6.665 -12.407  17.198  0.00  0.00    +0.094 C 
ATOM     17  C   UNL     1      -4.569 -12.977  18.224  0.00  0.00    +0.085 C 
ENDROOT
BRANCH  12  19
ATOM      7  N   UNL     1      -9.244 -10.604  18.786  0.00  0.00    -0.270 N 
ATOM      9  N   UNL     1     -10.198  -9.730  18.422  0.00  0.00    -0.168 NA
ATOM     19  C   UNL     1      -8.081 -10.473  18.088  0.00  0.00    +0.044 A 
ATOM     20  C   UNL     1      -8.287  -9.442  17.204  0.00  0.00    +0.056 A 
ATOM     21  C   UNL     1      -9.608  -9.022  17.455  0.00  0.00    +0.128 A 
ATOM     22  C   UNL     1      -9.524 -11.555  19.837  0.00  0.00    +0.172 C 
BRANCH  21  23
ATOM      4  O   UNL     1      -9.697  -7.023  15.947  0.00  0.00    -0.461 OA
ATOM     23  C   UNL     1     -10.307  -7.929  16.757  0.00  0.00    +0.155 A 
ATOM     25  C   UNL     1     -11.657  -7.679  16.830  0.00  0.00    +0.051 A 
ATOM     28  C   UNL     1     -11.893  -6.548  16.012  0.00  0.00    +0.042 A 
ATOM     29  C   UNL     1     -10.670  -6.186  15.498  0.00  0.00    +0.196 A 
ENDBRANCH  21  23
ENDBRANCH  12  19
BRANCH  13  18
ATOM     18  C   UNL     1      -4.938 -11.262  14.885  0.00  0.00    +0.124 C 
BRANCH  18   8
ATOM      8  N   UNL     1      -3.953 -10.356  14.272  0.00  0.00    -0.188 NA
ATOM     35  H   UNL     1      -4.085  -9.351  14.442  0.00  0.00    +0.148 HD
BRANCH   8   1
ATOM      1  S   UNL     1      -3.189 -10.784  12.811  0.00  0.00    +0.058 S 
ATOM      2  O   UNL     1      -3.382 -12.201  12.566  0.00  0.00    -0.153 OA
ATOM      3  O   UNL     1      -1.856 -10.214  12.788  0.00  0.00    -0.153 OA
BRANCH   1  24
ATOM     24  C   UNL     1      -4.152  -9.891  11.626  0.00  0.00    +0.105 A 
ATOM     26  C   UNL     1      -5.479  -9.566  11.909  0.00  0.00    +0.030 A 
ATOM     27  C   UNL     1      -3.585  -9.512  10.410  0.00  0.00    +0.030 A 
ATOM     30  C   UNL     1      -6.238  -8.862  10.975  0.00  0.00    +0.025 A 
ATOM     31  C   UNL     1      -4.345  -8.809   9.475  0.00  0.00    +0.025 A 
ATOM     32  C   UNL     1      -5.671  -8.484   9.757  0.00  0.00    +0.033 A 
BRANCH  32  10
ATOM      5  O   UNL     1      -7.952  -9.385   8.009  0.00  0.00    -0.276 OA
ATOM     10  N   UNL     1      -6.431  -7.778   8.823  0.00  0.00    -0.286 N 
ATOM     33  C   UNL     1      -7.485  -8.251   8.031  0.00  0.00    +0.214 C 
ATOM     34  C   UNL     1      -8.046  -7.167   7.144  0.00  0.00    +0.109 C 
ATOM     36  H   UNL     1      -6.178  -6.799   8.710  0.00  0.00    +0.155 HD
ENDBRANCH  32  10
ENDBRANCH   1  24
ENDBRANCH   8   1
ENDBRANCH  18   8
ENDBRANCH  13  18
TORSDOF 7
ENDMDL
MODEL 3
REMARK VINA RESULT:      -7.5     26.801     30.349
REMARK  Name = 40779333
REMARK  9 active torsions:
REMARK  status: ('A' for Active; 'I' for Inactive)
REMARK    1  A    between atoms: S_1  and  N_8
REMARK    2  A    between atoms: S_1  and  C_24
REMARK    3  A    between atoms: N_7  and  C_22
REMARK    4  A    between atoms: N_8  and  C_18
REMARK    5  A    between atoms: N_10  and  C_32
REMARK    6  A    between atoms: C_12  and  C_19
REMARK    7  A    between atoms: C_13  and  C_18
REMARK    8  A    between atoms: C_21  and  C_23
REMARK    9  A    between atoms: C_33  and  C_34
REMARK                            x       y       z     vdW  Elec       q    Type
REMARK                         _______ _______ _______ _____ _____    ______ ____
ROOT
ATOM      6  N   UNL     1      -5.992 -10.460  18.069  0.00  0.00    -0.297 NA
ATOM     11  C   UNL     1      -4.741 -12.420  16.894  0.00  0.00    +0.002 C 
ATOM     12  C   UNL     1      -4.082 -11.060  16.533  0.00  0.00    +0.055 C 
ATOM     13  C   UNL     1      -6.966 -11.340  17.372  0.00  0.00    +0.072 C 
ATOM     14  C   UNL     1      -6.234 -12.384  16.502  0.00  0.00    +0.024 C 
ATOM     15  C   UNL     1      -4.679 -12.550  18.432  0.00  0.00    +0.019 C 
ATOM     16  C   UNL     1      -4.996  -9.937  17.100  0.00  0.00    +0.094 C 
ATOM     17  C   UNL     1      -5.273 -11.282  19.071  0.00  0.00    +0.085 C 
ENDROOT
BRANCH  12  19
ATOM      7  N   UNL     1      -2.405 -10.646  14.674  0.00  0.00    -0.270 N 
ATOM      9  N   UNL     1      -2.275 -10.437  13.353  0.00  0.00    -0.168 NA
ATOM     19  C   UNL     1      -3.695 -10.813  15.082  0.00  0.00    +0.044 A 
ATOM     20  C   UNL     1      -4.465 -10.705  13.948  0.00  0.00    +0.056 A 
ATOM     21  C   UNL     1      -3.537 -10.475  12.914  0.00  0.00    +0.128 A 
ATOM     22  C   UNL     1      -1.221 -10.675  15.502  0.00  0.00    +0.172 C 
BRANCH  21  23
ATOM      4  O   UNL     1      -4.765 -11.050  10.807  0.00  0.00    -0.461 OA
ATOM     23  C   UNL     1      -3.869 -10.289  11.491  0.00  0.00    +0.155 A 
ATOM     25  C   UNL     1      -3.322  -9.331  10.669  0.00  0.00    +0.051 A 
ATOM     28  C   UNL     1      -3.921  -9.514   9.400  0.00  0.00    +0.042 A 
ATOM     29  C   UNL     1      -4.791 -10.571   9.535  0.00  0.00    +0.196 A 
ENDBRANCH  21  23
ENDBRANCH  12  19
BRANCH  13  18
ATOM     18  C   UNL     1      -7.995 -10.546  16.565  0.00  0.00    +0.124 C 
BRANCH  18   8
ATOM      8  N   UNL     1      -8.755  -9.673  17.474  0.00  0.00    -0.188 NA
ATOM     35  H   UNL     1      -8.283  -9.391  18.342  0.00  0.00    +0.148 HD
BRANCH   8   1
ATOM      1  S   UNL     1     -10.455  -9.771  17.532  0.00  0.00    +0.058 S 
ATOM      2  O   UNL     1     -10.902  -9.536  18.892  0.00  0.00    -0.153 OA
ATOM      3  O   UNL     1     -10.887 -10.957  16.817  0.00  0.00    -0.153 OA
BRANCH   1  24
ATOM     24  C   UNL     1     -10.930  -8.377  16.554  0.00  0.00    +0.105 A 
ATOM     26  C   UNL     1     -10.007  -7.364  16.290  0.00  0.00    +0.030 A 
ATOM     27  C   UNL     1     -12.226  -8.290  16.047  0.00  0.00    +0.030 A 
ATOM     30  C   UNL     1     -10.382  -6.265  15.518  0.00  0.00    +0.025 A 
ATOM     31  C   UNL     1     -12.600  -7.190  15.276  0.00  0.00    +0.025 A 
ATOM     32  C   UNL     1     -11.679  -6.177  15.011  0.00  0.00    +0.033 A 
BRANCH  32  10
ATOM      5  O   UNL     1     -12.249  -5.965  12.062  0.00  0.00    -0.276 OA
ATOM     10  N   UNL     1     -12.052  -5.077  14.237  0.00  0.00    -0.286 N 
ATOM     33  C   UNL     1     -12.304  -5.034  12.859  0.00  0.00    +0.214 C 
ATOM     34  C   UNL     1     -12.682  -3.647  12.405  0.00  0.00    +0.109 C 
ATOM     36  H   UNL     1     -12.149  -4.202  14.747  0.00  0.00    +0.155 HD
ENDBRANCH  32  10
ENDBRANCH   1  24
ENDBRANCH   8   1
ENDBRANCH  18   8
ENDBRANCH  13  18
TORSDOF 7
ENDMDL
MODEL 4
REMARK VINA RESULT:      -7.4      3.010      3.772
REMARK  Name = 40779333
REMARK  9 active torsions:
REMARK  status: ('A' for Active; 'I' for Inactive)
REMARK    1  A    between atoms: S_1  and  N_8
REMARK    2  A    between atoms: S_1  and  C_24
REMARK    3  A    between atoms: N_7  and  C_22
REMARK    4  A    between atoms: N_8  and  C_18
REMARK    5  A    between atoms: N_10  and  C_32
REMARK    6  A    between atoms: C_12  and  C_19
REMARK    7  A    between atoms: C_13  and  C_18
REMARK    8  A    between atoms: C_21  and  C_23
REMARK    9  A    between atoms: C_33  and  C_34
REMARK                            x       y       z     vdW  Elec       q    Type
REMARK                         _______ _______ _______ _____ _____    ______ ____
ROOT
ATOM      6  N   UNL     1      11.004   7.531  20.827  0.00  0.00    -0.297 NA
ATOM     11  C   UNL     1      12.243   9.424  22.118  0.00  0.00    +0.002 C 
ATOM     12  C   UNL     1      11.706   9.954  20.760  0.00  0.00    +0.055 C 
ATOM     13  C   UNL     1      12.334   7.050  21.281  0.00  0.00    +0.072 C 
ATOM     14  C   UNL     1      13.166   8.213  21.864  0.00  0.00    +0.024 C 
ATOM     15  C   UNL     1      11.021   8.907  22.908  0.00  0.00    +0.019 C 
ATOM     16  C   UNL     1      11.164   8.730  19.966  0.00  0.00    +0.094 C 
ATOM     17  C   UNL     1      10.228   7.924  22.027  0.00  0.00    +0.085 C 
ENDROOT
BRANCH  12  19
ATOM      7  N   UNL     1      12.778  12.166  20.130  0.00  0.00    -0.270 N 
ATOM      9  N   UNL     1      13.632  12.757  19.277  0.00  0.00    -0.168 NA
ATOM     19  C   UNL     1      12.623  10.828  19.917  0.00  0.00    +0.044 A 
ATOM     20  C   UNL     1      13.431  10.522  18.848  0.00  0.00    +0.056 A 
ATOM     21  C   UNL     1      14.028  11.748  18.496  0.00  0.00    +0.128 A 
ATOM     22  C   UNL     1      12.136  12.963  21.150  0.00  0.00    +0.172 C 
BRANCH  21  23
ATOM      4  O   UNL     1      14.946  11.286  16.211  0.00  0.00    -0.461 OA
ATOM     23  C   UNL     1      14.989  11.949  17.397  0.00  0.00    +0.155 A 
ATOM     25  C   UNL     1      16.050  12.824  17.423  0.00  0.00    +0.051 A 
ATOM     28  C   UNL     1      16.700  12.692  16.173  0.00  0.00    +0.042 A 
ATOM     29  C   UNL     1      15.990  11.744  15.472  0.00  0.00    +0.196 A 
ENDBRANCH  21  23
ENDBRANCH  12  19
BRANCH  13  18
ATOM     18  C   UNL     1      13.092   6.305  20.181  0.00  0.00    +0.124 C 
BRANCH  18   8
ATOM      8  N   UNL     1      14.521   6.251  20.528  0.00  0.00    -0.188 NA
ATOM     35  H   UNL     1      14.758   6.370  21.520  0.00  0.00    +0.148 HD
BRANCH   8   1
ATOM      1  S   UNL     1      15.696   6.756  19.402  0.00  0.00    +0.058 S 
ATOM      2  O   UNL     1      15.073   7.618  18.415  0.00  0.00    -0.153 OA
ATOM      3  O   UNL     1      16.473   5.607  18.980  0.00  0.00    -0.153 OA
BRANCH   1  24
ATOM     24  C   UNL     1      16.754   7.754  20.408  0.00  0.00    +0.105 A 
ATOM     26  C   UNL     1      16.460   9.104  20.602  0.00  0.00    +0.030 A 
ATOM     27  C   UNL     1      17.880   7.191  21.006  0.00  0.00    +0.030 A 
ATOM     30  C   UNL     1      17.295   9.891  21.395  0.00  0.00    +0.025 A 
ATOM     31  C   UNL     1      18.715   7.978  21.799  0.00  0.00    +0.025 A 
ATOM     32  C   UNL     1      18.423   9.328  21.994  0.00  0.00    +0.033 A 
BRANCH  32  10
ATOM      5  O   UNL     1      21.095  10.577  21.387  0.00  0.00    -0.276 OA
ATOM     10  N   UNL     1      19.256  10.116  22.789  0.00  0.00    -0.286 N 
ATOM     33  C   UNL     1      20.498  10.672  22.455  0.00  0.00    +0.214 C 
ATOM     34  C   UNL     1      21.082  11.461  23.600  0.00  0.00    +0.109 C 
ATOM     36  H   UNL     1      18.910  10.302  23.728  0.00  0.00    +0.155 HD
ENDBRANCH  32  10
ENDBRANCH   1  24
ENDBRANCH   8   1
ENDBRANCH  18   8
ENDBRANCH  13  18
TORSDOF 7
ENDMDL
MODEL 5
REMARK VINA RESULT:      -7.3      2.269      2.744
REMARK  Name = 40779333
REMARK  9 active torsions:
REMARK  status: ('A' for Active; 'I' for Inactive)
REMARK    1  A    between atoms: S_1  and  N_8
REMARK    2  A    between atoms: S_1  and  C_24
REMARK    3  A    between atoms: N_7  and  C_22
REMARK    4  A    between atoms: N_8  and  C_18
REMARK    5  A    between atoms: N_10  and  C_32
REMARK    6  A    between atoms: C_12  and  C_19
REMARK    7  A    between atoms: C_13  and  C_18
REMARK    8  A    between atoms: C_21  and  C_23
REMARK    9  A    between atoms: C_33  and  C_34
REMARK                            x       y       z     vdW  Elec       q    Type
REMARK                         _______ _______ _______ _____ _____    ______ ____
ROOT
ATOM      6  N   UNL     1      11.230   7.568  20.997  0.00  0.00    -0.297 NA
ATOM     11  C   UNL     1      12.413   9.692  21.932  0.00  0.00    +0.002 C 
ATOM     12  C   UNL     1      11.801   9.982  20.533  0.00  0.00    +0.055 C 
ATOM     13  C   UNL     1      12.599   7.224  21.462  0.00  0.00    +0.072 C 
ATOM     14  C   UNL     1      13.388   8.500  21.826  0.00  0.00    +0.024 C 
ATOM     15  C   UNL     1      11.248   9.246  22.842  0.00  0.00    +0.019 C 
ATOM     16  C   UNL     1      11.297   8.627  19.958  0.00  0.00    +0.094 C 
ATOM     17  C   UNL     1      10.477   8.105  22.156  0.00  0.00    +0.085 C 
ENDROOT
BRANCH  12  19
ATOM      7  N   UNL     1      12.864  12.099  19.625  0.00  0.00    -0.270 N 
ATOM      9  N   UNL     1      13.631  12.594  18.638  0.00  0.00    -0.168 NA
ATOM     19  C   UNL     1      12.641  10.758  19.529  0.00  0.00    +0.044 A 
ATOM     20  C   UNL     1      13.308  10.345  18.400  0.00  0.00    +0.056 A 
ATOM     21  C   UNL     1      13.899  11.519  17.892  0.00  0.00    +0.128 A 
ATOM     22  C   UNL     1      12.373  12.990  20.650  0.00  0.00    +0.172 C 
BRANCH  21  23
ATOM      4  O   UNL     1      14.562  10.823  15.579  0.00  0.00    -0.461 OA
ATOM     23  C   UNL     1      14.730  11.603  16.678  0.00  0.00    +0.155 A 
ATOM     25  C   UNL     1      15.779  12.474  16.497  0.00  0.00    +0.051 A 
ATOM     28  C   UNL     1      16.287  12.213  15.202  0.00  0.00    +0.042 A 
ATOM     29  C   UNL     1      15.513  11.201  14.684  0.00  0.00    +0.196 A 
ENDBRANCH  21  23
ENDBRANCH  12  19
BRANCH  13  18
ATOM     18  C   UNL     1      13.355   6.355  20.456  0.00  0.00    +0.124 C 
BRANCH  18   8
ATOM      8  N   UNL     1      14.794   6.402  20.760  0.00  0.00    -0.188 NA
ATOM     35  H   UNL     1      15.051   6.610  21.733  0.00  0.00    +0.148 HD
BRANCH   8   1
ATOM      1  S   UNL     1      15.907   6.879  19.562  0.00  0.00    +0.058 S 
ATOM      2  O   UNL     1      15.514   8.170  19.029  0.00  0.00    -0.153 OA
ATOM      3  O   UNL     1      16.149   5.763  18.668  0.00  0.00    -0.153 OA
BRANCH   1  24
ATOM     24  C   UNL     1      17.382   7.108  20.511  0.00  0.00    +0.105 A 
ATOM     26  C   UNL     1      17.533   8.250  21.299  0.00  0.00    +0.030 A 
ATOM     27  C   UNL     1      18.392   6.148  20.472  0.00  0.00    +0.030 A 
ATOM     30  C   UNL     1      18.696   8.430  22.047  0.00  0.00    +0.025 A 
ATOM     31  C   UNL     1      19.555   6.330  21.220  0.00  0.00    +0.025 A 
ATOM     32  C   UNL     1      19.707   7.470  22.007  0.00  0.00    +0.033 A 
BRANCH  32  10
ATOM      5  O   UNL     1      20.352   6.667  24.837  0.00  0.00    -0.276 OA
ATOM     10  N   UNL     1      20.870   7.651  22.758  0.00  0.00    -0.286 N 
ATOM     33  C   UNL     1      21.116   7.257  24.080  0.00  0.00    +0.214 C 
ATOM     34  C   UNL     1      22.505   7.641  24.527  0.00  0.00    +0.109 C 
ATOM     36  H   UNL     1      21.627   8.131  22.276  0.00  0.00    +0.155 HD
ENDBRANCH  32  10
ENDBRANCH   1  24
ENDBRANCH   8   1
ENDBRANCH  18   8
ENDBRANCH  13  18
TORSDOF 7
ENDMDL
MODEL 6
REMARK VINA RESULT:      -7.3     28.222     31.501
REMARK  Name = 40779333
REMARK  9 active torsions:
REMARK  status: ('A' for Active; 'I' for Inactive)
REMARK    1  A    between atoms: S_1  and  N_8
REMARK    2  A    between atoms: S_1  and  C_24
REMARK    3  A    between atoms: N_7  and  C_22
REMARK    4  A    between atoms: N_8  and  C_18
REMARK    5  A    between atoms: N_10  and  C_32
REMARK    6  A    between atoms: C_12  and  C_19
REMARK    7  A    between atoms: C_13  and  C_18
REMARK    8  A    between atoms: C_21  and  C_23
REMARK    9  A    between atoms: C_33  and  C_34
REMARK                            x       y       z     vdW  Elec       q    Type
REMARK                         _______ _______ _______ _____ _____    ______ ____
ROOT
ATOM      6  N   UNL     1     -13.016   9.122  31.390  0.00  0.00    -0.297 NA
ATOM     11  C   UNL     1     -12.382  11.484  32.286  0.00  0.00    +0.002 C 
ATOM     12  C   UNL     1     -11.105  10.691  31.891  0.00  0.00    +0.055 C 
ATOM     13  C   UNL     1     -13.702   9.376  32.683  0.00  0.00    +0.072 C 
ATOM     14  C   UNL     1     -13.182  10.678  33.330  0.00  0.00    +0.024 C 
ATOM     15  C   UNL     1     -13.256  11.576  31.016  0.00  0.00    +0.019 C 
ATOM     16  C   UNL     1     -11.546   9.236  31.563  0.00  0.00    +0.094 C 
ATOM     17  C   UNL     1     -13.450  10.166  30.431  0.00  0.00    +0.085 C 
ENDROOT
BRANCH  12  19
ATOM      7  N   UNL     1      -8.928  11.673  32.751  0.00  0.00    -0.270 N 
ATOM      9  N   UNL     1      -7.965  11.536  33.678  0.00  0.00    -0.168 NA
ATOM     19  C   UNL     1      -9.913  10.734  32.837  0.00  0.00    +0.044 A 
ATOM     20  C   UNL     1      -9.570   9.925  33.894  0.00  0.00    +0.056 A 
ATOM     21  C   UNL     1      -8.362  10.467  34.374  0.00  0.00    +0.128 A 
ATOM     22  C   UNL     1      -8.839  12.752  31.795  0.00  0.00    +0.172 C 
BRANCH  21  23
ATOM      4  O   UNL     1      -6.267  10.212  35.725  0.00  0.00    -0.461 OA
ATOM     23  C   UNL     1      -7.583   9.949  35.512  0.00  0.00    +0.155 A 
ATOM     25  C   UNL     1      -8.079   9.135  36.505  0.00  0.00    +0.051 A 
ATOM     28  C   UNL     1      -6.998   8.884  37.383  0.00  0.00    +0.042 A 
ATOM     29  C   UNL     1      -5.919   9.561  36.865  0.00  0.00    +0.196 A 
ENDBRANCH  21  23
ENDBRANCH  12  19
BRANCH  13  18
ATOM     18  C   UNL     1     -13.604   8.186  33.639  0.00  0.00    +0.124 C 
BRANCH  18   8
ATOM      8  N   UNL     1     -13.635   6.937  32.861  0.00  0.00    -0.188 NA
ATOM     35  H   UNL     1     -12.871   6.795  32.190  0.00  0.00    +0.148 HD
BRANCH   8   1
ATOM      1  S   UNL     1     -15.124   6.200  32.484  0.00  0.00    +0.058 S 
ATOM      2  O   UNL     1     -15.811   6.994  31.482  0.00  0.00    -0.153 OA
ATOM      3  O   UNL     1     -15.799   5.835  33.715  0.00  0.00    -0.153 OA
BRANCH   1  24
ATOM     24  C   UNL     1     -14.597   4.695  31.719  0.00  0.00    +0.105 A 
ATOM     26  C   UNL     1     -13.591   3.929  32.308  0.00  0.00    +0.030 A 
ATOM     27  C   UNL     1     -15.187   4.275  30.527  0.00  0.00    +0.030 A 
ATOM     30  C   UNL     1     -13.176   2.742  31.705  0.00  0.00    +0.025 A 
ATOM     31  C   UNL     1     -14.771   3.088  29.924  0.00  0.00    +0.025 A 
ATOM     32  C   UNL     1     -13.766   2.322  30.512  0.00  0.00    +0.033 A 
BRANCH  32  10
ATOM      5  O   UNL     1     -14.764  -0.498  30.860  0.00  0.00    -0.276 OA
ATOM     10  N   UNL     1     -13.351   1.133  29.910  0.00  0.00    -0.286 N 
ATOM     33  C   UNL     1     -13.852  -0.160  30.112  0.00  0.00    +0.214 C 
ATOM     34  C   UNL     1     -13.127  -1.177  29.266  0.00  0.00    +0.109 C 
ATOM     36  H   UNL     1     -12.587   1.228  29.244  0.00  0.00    +0.155 HD
ENDBRANCH  32  10
ENDBRANCH   1  24
ENDBRANCH   8   1
ENDBRANCH  18   8
ENDBRANCH  13  18
TORSDOF 7
ENDMDL
MODEL 7
REMARK VINA RESULT:      -7.0     27.204     30.636
REMARK  Name = 40779333
REMARK  9 active torsions:
REMARK  status: ('A' for Active; 'I' for Inactive)
REMARK    1  A    between atoms: S_1  and  N_8
REMARK    2  A    between atoms: S_1  and  C_24
REMARK    3  A    between atoms: N_7  and  C_22
REMARK    4  A    between atoms: N_8  and  C_18
REMARK    5  A    between atoms: N_10  and  C_32
REMARK    6  A    between atoms: C_12  and  C_19
REMARK    7  A    between atoms: C_13  and  C_18
REMARK    8  A    between atoms: C_21  and  C_23
REMARK    9  A    between atoms: C_33  and  C_34
REMARK                            x       y       z     vdW  Elec       q    Type
REMARK                         _______ _______ _______ _____ _____    ______ ____
ROOT
ATOM      6  N   UNL     1      -5.429 -10.553  18.167  0.00  0.00    -0.297 NA
ATOM     11  C   UNL     1      -5.360 -12.441  16.373  0.00  0.00    +0.002 C 
ATOM     12  C   UNL     1      -4.147 -11.483  16.202  0.00  0.00    +0.055 C 
ATOM     13  C   UNL     1      -6.748 -10.662  17.492  0.00  0.00    +0.072 C 
ATOM     14  C   UNL     1      -6.669 -11.628  16.290  0.00  0.00    +0.024 C 
ATOM     15  C   UNL     1      -5.272 -13.016  17.804  0.00  0.00    +0.019 C 
ATOM     16  C   UNL     1      -4.366 -10.282  17.166  0.00  0.00    +0.094 C 
ATOM     17  C   UNL     1      -5.137 -11.858  18.808  0.00  0.00    +0.085 C 
ENDROOT
BRANCH  12  19
ATOM      7  N   UNL     1      -2.492 -10.914  14.365  0.00  0.00    -0.270 N 
ATOM      9  N   UNL     1      -2.380 -10.503  13.090  0.00  0.00    -0.168 NA
ATOM     19  C   UNL     1      -3.780 -11.035  14.795  0.00  0.00    +0.044 A 
ATOM     20  C   UNL     1      -4.568 -10.678  13.726  0.00  0.00    +0.056 A 
ATOM     21  C   UNL     1      -3.652 -10.361  12.705  0.00  0.00    +0.128 A 
ATOM     22  C   UNL     1      -1.294 -11.179  15.127  0.00  0.00    +0.172 C 
BRANCH  21  23
ATOM      4  O   UNL     1      -5.252  -9.999  10.811  0.00  0.00    -0.461 OA
ATOM     23  C   UNL     1      -4.005  -9.917  11.345  0.00  0.00    +0.155 A 
ATOM     25  C   UNL     1      -3.128  -9.365  10.440  0.00  0.00    +0.051 A 
ATOM     28  C   UNL     1      -3.886  -9.090   9.276  0.00  0.00    +0.042 A 
ATOM     29  C   UNL     1      -5.171  -9.494   9.553  0.00  0.00    +0.196 A 
ENDBRANCH  21  23
ENDBRANCH  12  19
BRANCH  13  18
ATOM     18  C   UNL     1      -7.311  -9.298  17.090  0.00  0.00    +0.124 C 
BRANCH  18   8
ATOM      8  N   UNL     1      -8.195  -9.463  15.924  0.00  0.00    -0.188 NA
ATOM     35  H   UNL     1      -7.773  -9.303  15.001  0.00  0.00    +0.148 HD
BRANCH   8   1
ATOM      1  S   UNL     1      -9.862  -9.142  16.062  0.00  0.00    +0.058 S 
ATOM      2  O   UNL     1     -10.557  -9.717  14.925  0.00  0.00    -0.153 OA
ATOM      3  O   UNL     1     -10.050  -7.744  16.400  0.00  0.00    -0.153 OA
BRANCH   1  24
ATOM     24  C   UNL     1     -10.293 -10.082  17.496  0.00  0.00    +0.105 A 
ATOM     26  C   UNL     1     -10.270 -11.476  17.448  0.00  0.00    +0.030 A 
ATOM     27  C   UNL     1     -10.656  -9.430  18.674  0.00  0.00    +0.030 A 
ATOM     30  C   UNL     1     -10.609 -12.218  18.579  0.00  0.00    +0.025 A 
ATOM     31  C   UNL     1     -10.997 -10.172  19.805  0.00  0.00    +0.025 A 
ATOM     32  C   UNL     1     -10.973 -11.565  19.758  0.00  0.00    +0.033 A 
BRANCH  32  10
ATOM      5  O   UNL     1     -13.653 -12.538  20.730  0.00  0.00    -0.276 OA
ATOM     10  N   UNL     1     -11.312 -12.308  20.890  0.00  0.00    -0.286 N 
ATOM     33  C   UNL     1     -12.583 -12.734  21.298  0.00  0.00    +0.214 C 
ATOM     34  C   UNL     1     -12.523 -13.516  22.586  0.00  0.00    +0.109 C 
ATOM     36  H   UNL     1     -10.530 -12.566  21.489  0.00  0.00    +0.155 HD
ENDBRANCH  32  10
ENDBRANCH   1  24
ENDBRANCH   8   1
ENDBRANCH  18   8
ENDBRANCH  13  18
TORSDOF 7
ENDMDL
MODEL 8
REMARK VINA RESULT:      -7.0     14.895     19.416
REMARK  Name = 40779333
REMARK  9 active torsions:
REMARK  status: ('A' for Active; 'I' for Inactive)
REMARK    1  A    between atoms: S_1  and  N_8
REMARK    2  A    between atoms: S_1  and  C_24
REMARK    3  A    between atoms: N_7  and  C_22
REMARK    4  A    between atoms: N_8  and  C_18
REMARK    5  A    between atoms: N_10  and  C_32
REMARK    6  A    between atoms: C_12  and  C_19
REMARK    7  A    between atoms: C_13  and  C_18
REMARK    8  A    between atoms: C_21  and  C_23
REMARK    9  A    between atoms: C_33  and  C_34
REMARK                            x       y       z     vdW  Elec       q    Type
REMARK                         _______ _______ _______ _____ _____    ______ ____
ROOT
ATOM      6  N   UNL     1      11.720   8.279   1.971  0.00  0.00    -0.297 NA
ATOM     11  C   UNL     1       9.353   7.223   2.232  0.00  0.00    +0.002 C 
ATOM     12  C   UNL     1       9.660   8.172   3.424  0.00  0.00    +0.055 C 
ATOM     13  C   UNL     1      11.798   6.806   1.791  0.00  0.00    +0.072 C 
ATOM     14  C   UNL     1      10.451   6.141   2.146  0.00  0.00    +0.024 C 
ATOM     15  C   UNL     1       9.454   8.076   0.949  0.00  0.00    +0.019 C 
ATOM     16  C   UNL     1      11.151   8.600   3.304  0.00  0.00    +0.094 C 
ATOM     17  C   UNL     1      10.803   8.815   0.936  0.00  0.00    +0.085 C 
ENDROOT
BRANCH  12  19
ATOM      7  N   UNL     1       8.402   8.340   5.621  0.00  0.00    -0.270 N 
ATOM      9  N   UNL     1       8.233   7.765   6.824  0.00  0.00    -0.168 NA
ATOM     19  C   UNL     1       9.307   7.700   4.827  0.00  0.00    +0.044 A 
ATOM     20  C   UNL     1       9.762   6.631   5.562  0.00  0.00    +0.056 A 
ATOM     21  C   UNL     1       9.066   6.722   6.783  0.00  0.00    +0.128 A 
ATOM     22  C   UNL     1       7.644   9.525   5.294  0.00  0.00    +0.172 C 
BRANCH  21  23
ATOM      4  O   UNL     1       8.753   6.047   9.175  0.00  0.00    -0.461 OA
ATOM     23  C   UNL     1       9.205   5.794   7.919  0.00  0.00    +0.155 A 
ATOM     25  C   UNL     1       9.808   4.559   7.862  0.00  0.00    +0.051 A 
ATOM     28  C   UNL     1       9.719   4.017   9.167  0.00  0.00    +0.042 A 
ATOM     29  C   UNL     1       9.069   4.961   9.928  0.00  0.00    +0.196 A 
ENDBRANCH  21  23
ENDBRANCH  12  19
BRANCH  13  18
ATOM     18  C   UNL     1      12.961   6.186   2.567  0.00  0.00    +0.124 C 
BRANCH  18   8
ATOM      8  N   UNL     1      13.148   4.793   2.128  0.00  0.00    -0.188 NA
ATOM     35  H   UNL     1      12.706   4.067   2.704  0.00  0.00    +0.148 HD
BRANCH   8   1
ATOM      1  S   UNL     1      14.562   4.342   1.290  0.00  0.00    +0.058 S 
ATOM      2  O   UNL     1      15.090   3.120   1.866  0.00  0.00    -0.153 OA
ATOM      3  O   UNL     1      15.414   5.505   1.137  0.00  0.00    -0.153 OA
BRANCH   1  24
ATOM     24  C   UNL     1      13.922   3.956  -0.313  0.00  0.00    +0.105 A 
ATOM     26  C   UNL     1      14.543   4.468  -1.452  0.00  0.00    +0.030 A 
ATOM     27  C   UNL     1      12.798   3.140  -0.437  0.00  0.00    +0.030 A 
ATOM     30  C   UNL     1      14.039   4.164  -2.716  0.00  0.00    +0.025 A 
ATOM     31  C   UNL     1      12.294   2.837  -1.702  0.00  0.00    +0.025 A 
ATOM     32  C   UNL     1      12.914   3.349  -2.841  0.00  0.00    +0.033 A 
BRANCH  32  10
ATOM      5  O   UNL     1      10.773   4.699  -4.473  0.00  0.00    -0.276 OA
ATOM     10  N   UNL     1      12.411   3.043  -4.107  0.00  0.00    -0.286 N 
ATOM     33  C   UNL     1      11.406   3.708  -4.822  0.00  0.00    +0.214 C 
ATOM     34  C   UNL     1      11.152   3.060  -6.160  0.00  0.00    +0.109 C 
ATOM     36  H   UNL     1      12.832   2.233  -4.556  0.00  0.00    +0.155 HD
ENDBRANCH  32  10
ENDBRANCH   1  24
ENDBRANCH   8   1
ENDBRANCH  18   8
ENDBRANCH  13  18
TORSDOF 7
ENDMDL
MODEL 9
REMARK VINA RESULT:      -6.9      4.677      8.221
REMARK  Name = 40779333
REMARK  9 active torsions:
REMARK  status: ('A' for Active; 'I' for Inactive)
REMARK    1  A    between atoms: S_1  and  N_8
REMARK    2  A    between atoms: S_1  and  C_24
REMARK    3  A    between atoms: N_7  and  C_22
REMARK    4  A    between atoms: N_8  and  C_18
REMARK    5  A    between atoms: N_10  and  C_32
REMARK    6  A    between atoms: C_12  and  C_19
REMARK    7  A    between atoms: C_13  and  C_18
REMARK    8  A    between atoms: C_21  and  C_23
REMARK    9  A    between atoms: C_33  and  C_34
REMARK                            x       y       z     vdW  Elec       q    Type
REMARK                         _______ _______ _______ _____ _____    ______ ____
ROOT
ATOM      6  N   UNL     1      13.647   8.620  17.827  0.00  0.00    -0.297 NA
ATOM     11  C   UNL     1      14.657   8.592  20.228  0.00  0.00    +0.002 C 
ATOM     12  C   UNL     1      13.130   8.307  20.277  0.00  0.00    +0.055 C 
ATOM     13  C   UNL     1      14.467   9.840  18.048  0.00  0.00    +0.072 C 
ATOM     14  C   UNL     1      14.902   9.944  19.526  0.00  0.00    +0.024 C 
ATOM     15  C   UNL     1      15.285   7.497  19.338  0.00  0.00    +0.019 C 
ATOM     16  C   UNL     1      12.569   8.540  18.844  0.00  0.00    +0.094 C 
ATOM     17  C   UNL     1      14.531   7.442  17.997  0.00  0.00    +0.085 C 
ENDROOT
BRANCH  12  19
ATOM      7  N   UNL     1      11.248   8.421  21.975  0.00  0.00    -0.270 N 
ATOM      9  N   UNL     1      10.648   9.211  22.882  0.00  0.00    -0.168 NA
ATOM     19  C   UNL     1      12.302   9.011  21.342  0.00  0.00    +0.044 A 
ATOM     20  C   UNL     1      12.398  10.276  21.870  0.00  0.00    +0.056 A 
ATOM     21  C   UNL     1      11.354  10.343  22.814  0.00  0.00    +0.128 A 
ATOM     22  C   UNL     1      10.749   7.082  21.767  0.00  0.00    +0.172 C 
BRANCH  21  23
ATOM      4  O   UNL     1      10.622  12.712  23.177  0.00  0.00    -0.461 OA
ATOM     23  C   UNL     1      11.035  11.509  23.656  0.00  0.00    +0.155 A 
ATOM     25  C   UNL     1      11.113  11.537  25.029  0.00  0.00    +0.051 A 
ATOM     28  C   UNL     1      10.722  12.841  25.419  0.00  0.00    +0.042 A 
ATOM     29  C   UNL     1      10.433  13.516  24.256  0.00  0.00    +0.196 A 
ENDBRANCH  21  23
ENDBRANCH  12  19
BRANCH  13  18
ATOM     18  C   UNL     1      13.761  11.110  17.571  0.00  0.00    +0.124 C 
BRANCH  18   8
ATOM      8  N   UNL     1      14.595  11.776  16.558  0.00  0.00    -0.188 NA
ATOM     35  H   UNL     1      14.931  12.720  16.788  0.00  0.00    +0.148 HD
BRANCH   8   1
ATOM      1  S   UNL     1      14.374  11.431  14.904  0.00  0.00    +0.058 S 
ATOM      2  O   UNL     1      13.372  12.327  14.358  0.00  0.00    -0.153 OA
ATOM      3  O   UNL     1      14.242   9.997  14.732  0.00  0.00    -0.153 OA
BRANCH   1  24
ATOM     24  C   UNL     1      15.942  11.890  14.228  0.00  0.00    +0.105 A 
ATOM     26  C   UNL     1      16.084  12.058  12.850  0.00  0.00    +0.030 A 
ATOM     27  C   UNL     1      17.035  12.083  15.071  0.00  0.00    +0.030 A 
ATOM     30  C   UNL     1      17.320  12.420  12.316  0.00  0.00    +0.025 A 
ATOM     31  C   UNL     1      18.272  12.444  14.537  0.00  0.00    +0.025 A 
ATOM     32  C   UNL     1      18.415  12.612  13.160  0.00  0.00    +0.033 A 
BRANCH  32  10
ATOM      5  O   UNL     1      20.625  10.917  12.014  0.00  0.00    -0.276 OA
ATOM     10  N   UNL     1      19.652  12.976  12.625  0.00  0.00    -0.286 N 
ATOM     33  C   UNL     1      20.649  12.140  12.105  0.00  0.00    +0.214 C 
ATOM     34  C   UNL     1      21.843  12.927  11.625  0.00  0.00    +0.109 C 
ATOM     36  H   UNL     1      19.845  13.975  12.619  0.00  0.00    +0.155 HD
ENDBRANCH  32  10
ENDBRANCH   1  24
ENDBRANCH   8   1
ENDBRANCH  18   8
ENDBRANCH  13  18
TORSDOF 7
ENDMDL
MODEL 10
REMARK VINA RESULT:      -6.9     27.785     31.229
REMARK  Name = 40779333
REMARK  9 active torsions:
REMARK  status: ('A' for Active; 'I' for Inactive)
REMARK    1  A    between atoms: S_1  and  N_8
REMARK    2  A    between atoms: S_1  and  C_24
REMARK    3  A    between atoms: N_7  and  C_22
REMARK    4  A    between atoms: N_8  and  C_18
REMARK    5  A    between atoms: N_10  and  C_32
REMARK    6  A    between atoms: C_12  and  C_19
REMARK    7  A    between atoms: C_13  and  C_18
REMARK    8  A    between atoms: C_21  and  C_23
REMARK    9  A    between atoms: C_33  and  C_34
REMARK                            x       y       z     vdW  Elec       q    Type
REMARK                         _______ _______ _______ _____ _____    ______ ____
ROOT
ATOM      6  N   UNL     1      -6.157 -10.075   9.171  0.00  0.00    -0.297 NA
ATOM     11  C   UNL     1      -4.263  -8.968  10.575  0.00  0.00    +0.002 C 
ATOM     12  C   UNL     1      -4.748 -10.279  11.255  0.00  0.00    +0.055 C 
ATOM     13  C   UNL     1      -6.461  -8.637   9.390  0.00  0.00    +0.072 C 
ATOM     14  C   UNL     1      -5.462  -8.014  10.389  0.00  0.00    +0.024 C 
ATOM     15  C   UNL     1      -3.768  -9.356   9.165  0.00  0.00    +0.019 C 
ATOM     16  C   UNL     1      -6.003 -10.767  10.475  0.00  0.00    +0.094 C 
ATOM     17  C   UNL     1      -4.866 -10.162   8.447  0.00  0.00    +0.085 C 
ENDROOT
BRANCH  12  19
ATOM      7  N   UNL     1      -3.981 -10.515  13.662  0.00  0.00    -0.270 N 
ATOM      9  N   UNL     1      -4.384 -10.457  14.943  0.00  0.00    -0.168 NA
ATOM     19  C   UNL     1      -4.973 -10.266  12.760  0.00  0.00    +0.044 A 
ATOM     20  C   UNL     1      -6.105 -10.029  13.502  0.00  0.00    +0.056 A 
ATOM     21  C   UNL     1      -5.682 -10.160  14.839  0.00  0.00    +0.128 A 
ATOM     22  C   UNL     1      -2.599 -10.818  13.371  0.00  0.00    +0.172 C 
BRANCH  21  23
ATOM      4  O   UNL     1      -6.120 -10.192  17.306  0.00  0.00    -0.461 OA
ATOM     23  C   UNL     1      -6.538  -9.997  16.028  0.00  0.00    +0.155 A 
ATOM     25  C   UNL     1      -7.864  -9.632  16.004  0.00  0.00    +0.051 A 
ATOM     28  C   UNL     1      -8.287  -9.598  17.354  0.00  0.00    +0.042 A 
ATOM     29  C   UNL     1      -7.190  -9.946  18.107  0.00  0.00    +0.196 A 
ENDBRANCH  21  23
ENDBRANCH  12  19
BRANCH  13  18
ATOM     18  C   UNL     1      -7.911  -8.407   9.817  0.00  0.00    +0.124 C 
BRANCH  18   8
ATOM      8  N   UNL     1      -8.739  -8.185   8.620  0.00  0.00    -0.188 NA
ATOM     35  H   UNL     1      -8.901  -9.000   8.016  0.00  0.00    +0.148 HD
BRANCH   8   1
ATOM      1  S   UNL     1      -8.751  -6.662   7.857  0.00  0.00    +0.058 S 
ATOM      2  O   UNL     1      -9.210  -6.814   6.489  0.00  0.00    -0.153 OA
ATOM      3  O   UNL     1      -7.500  -5.982   8.135  0.00  0.00    -0.153 OA
BRANCH   1  24
ATOM     24  C   UNL     1     -10.011  -5.815   8.764  0.00  0.00    +0.105 A 
ATOM     26  C   UNL     1     -10.027  -4.420   8.798  0.00  0.00    +0.030 A 
ATOM     27  C   UNL     1     -10.988  -6.541   9.444  0.00  0.00    +0.030 A 
ATOM     30  C   UNL     1     -11.021  -3.752   9.512  0.00  0.00    +0.025 A 
ATOM     31  C   UNL     1     -11.981  -5.873  10.160  0.00  0.00    +0.025 A 
ATOM     32  C   UNL     1     -11.998  -4.479  10.194  0.00  0.00    +0.033 A 
BRANCH  32  10
ATOM      5  O   UNL     1     -14.968  -4.315   9.723  0.00  0.00    -0.276 OA
ATOM     10  N   UNL     1     -12.993  -3.810  10.908  0.00  0.00    -0.286 N 
ATOM     33  C   UNL     1     -14.368  -3.765  10.641  0.00  0.00    +0.214 C 
ATOM     34  C   UNL     1     -15.107  -2.927  11.655  0.00  0.00    +0.109 C 
ATOM     36  H   UNL     1     -12.669  -3.291  11.721  0.00  0.00    +0.155 HD
ENDBRANCH  32  10
ENDBRANCH   1  24
ENDBRANCH   8   1
ENDBRANCH  18   8
ENDBRANCH  13  18
TORSDOF 7
ENDMDL
