MODEL 1
REMARK VINA RESULT:      -6.8      0.000      0.000
REMARK  Name = 26742669
REMARK  7 active torsions:
REMARK  status: ('A' for Active; 'I' for Inactive)
REMARK    1  A    between atoms: O_4  and  C_30
REMARK    2  A    between atoms: O_4  and  C_31
REMARK    3  A    between atoms: N_6  and  C_17
REMARK    4  A    between atoms: N_7  and  C_19
REMARK    5  A    between atoms: C_17  and  C_19
REMARK    6  A    between atoms: C_18  and  C_20
REMARK    7  A    between atoms: C_20  and  C_23
REMARK                            x       y       z     vdW  Elec       q    Type
REMARK                         _______ _______ _______ _____ _____    ______ ____
ROOT
ATOM      1  O   UNL     1      -6.779  -9.926  18.590  0.00  0.00    -0.276 OA
ATOM      2  O   UNL     1      -1.575  -9.824  13.908  0.00  0.00    -0.275 OA
ATOM      5  N   UNL     1      -2.756 -11.548  14.923  0.00  0.00    -0.301 N 
ATOM      6  N   UNL     1      -7.296 -10.617  16.437  0.00  0.00    -0.300 N 
ATOM      8  C   UNL     1      -4.889 -12.635  15.602  0.00  0.00    +0.011 C 
ATOM      9  C   UNL     1      -4.628 -12.150  17.047  0.00  0.00    +0.004 C 
ATOM     10  C   UNL     1      -3.761 -10.876  17.070  0.00  0.00    +0.023 C 
ATOM     11  C   UNL     1      -3.547 -12.783  14.856  0.00  0.00    +0.111 C 
ATOM     12  C   UNL     1      -5.852 -11.759  14.779  0.00  0.00    +0.024 C 
ATOM     13  C   UNL     1      -5.894 -12.027  17.905  0.00  0.00    +0.100 C 
ATOM     14  C   UNL     1      -2.471 -11.076  16.278  0.00  0.00    +0.108 C 
ATOM     15  C   UNL     1      -7.242 -11.642  15.397  0.00  0.00    +0.108 C 
ATOM     16  C   UNL     1      -6.698 -10.759  17.683  0.00  0.00    +0.216 C 
ATOM     18  C   UNL     1      -2.260 -10.847  13.824  0.00  0.00    +0.220 C 
ENDROOT
BRANCH   6  17
ATOM     17  C   UNL     1      -8.016  -9.394  16.109  0.00  0.00    +0.123 C 
BRANCH  17  19
ATOM     19  C   UNL     1      -9.446  -9.693  15.687  0.00  0.00    +0.103 C 
BRANCH  19   7
ATOM      3  O   UNL     1     -12.097  -6.476  15.197  0.00  0.00    -0.377 OA
ATOM      7  N   UNL     1     -10.084  -8.487  15.160  0.00  0.00    -0.297 NA
ATOM     21  C   UNL     1     -10.078  -7.413  16.162  0.00  0.00    +0.112 C 
ATOM     22  C   UNL     1     -11.461  -8.771  14.732  0.00  0.00    +0.112 C 
ATOM     24  C   UNL     1     -10.760  -6.171  15.595  0.00  0.00    +0.175 C 
ATOM     25  C   UNL     1     -12.109  -7.496  14.197  0.00  0.00    +0.175 C 
ENDBRANCH  19   7
ENDBRANCH  17  19
ENDBRANCH   6  17
BRANCH  18  20
ATOM     20  C   UNL     1      -2.600 -11.396  12.463  0.00  0.00    +0.131 C 
BRANCH  20  23
ATOM     23  C   UNL     1      -3.425 -10.416  11.689  0.00  0.00    -0.038 A 
ATOM     26  C   UNL     1      -2.934  -9.876  10.500  0.00  0.00    +0.007 A 
ATOM     27  C   UNL     1      -4.686 -10.045  12.154  0.00  0.00    +0.007 A 
ATOM     28  C   UNL     1      -3.704  -8.966   9.776  0.00  0.00    +0.046 A 
ATOM     29  C   UNL     1      -5.457  -9.133  11.431  0.00  0.00    +0.046 A 
ATOM     30  C   UNL     1      -4.966  -8.594  10.242  0.00  0.00    +0.120 A 
BRANCH  30   4
ATOM      4  O   UNL     1      -5.718  -7.707   9.536  0.00  0.00    -0.495 OA
ATOM     31  C   UNL     1      -6.915  -8.203   8.939  0.00  0.00    +0.277 C 
ENDBRANCH  30   4
ENDBRANCH  20  23
ENDBRANCH  18  20
TORSDOF 6
ENDMDL
MODEL 2
REMARK VINA RESULT:      -6.4      1.653      2.280
REMARK  Name = 26742669
REMARK  7 active torsions:
REMARK  status: ('A' for Active; 'I' for Inactive)
REMARK    1  A    between atoms: O_4  and  C_30
REMARK    2  A    between atoms: O_4  and  C_31
REMARK    3  A    between atoms: N_6  and  C_17
REMARK    4  A    between atoms: N_7  and  C_19
REMARK    5  A    between atoms: C_17  and  C_19
REMARK    6  A    between atoms: C_18  and  C_20
REMARK    7  A    between atoms: C_20  and  C_23
REMARK                            x       y       z     vdW  Elec       q    Type
REMARK                         _______ _______ _______ _____ _____    ______ ____
ROOT
ATOM      1  O   UNL     1      -6.687 -10.088  18.590  0.00  0.00    -0.276 OA
ATOM      2  O   UNL     1      -1.592  -9.737  13.802  0.00  0.00    -0.275 OA
ATOM      5  N   UNL     1      -2.670 -11.516  14.836  0.00  0.00    -0.301 N 
ATOM      6  N   UNL     1      -7.216 -10.798  16.446  0.00  0.00    -0.300 N 
ATOM      8  C   UNL     1      -4.737 -12.702  15.556  0.00  0.00    +0.011 C 
ATOM      9  C   UNL     1      -4.468 -12.207  16.997  0.00  0.00    +0.004 C 
ATOM     10  C   UNL     1      -3.661 -10.895  17.005  0.00  0.00    +0.023 C 
ATOM     11  C   UNL     1      -3.405 -12.786  14.782  0.00  0.00    +0.111 C 
ATOM     12  C   UNL     1      -5.756 -11.869  14.756  0.00  0.00    +0.024 C 
ATOM     13  C   UNL     1      -5.720 -12.144  17.881  0.00  0.00    +0.100 C 
ATOM     14  C   UNL     1      -2.380 -11.034  16.186  0.00  0.00    +0.108 C 
ATOM     15  C   UNL     1      -7.137 -11.818  15.403  0.00  0.00    +0.108 C 
ATOM     16  C   UNL     1      -6.586 -10.915  17.680  0.00  0.00    +0.216 C 
ATOM     18  C   UNL     1      -2.230 -10.791  13.729  0.00  0.00    +0.220 C 
ENDROOT
BRANCH   6  17
ATOM     17  C   UNL     1      -7.999  -9.609  16.136  0.00  0.00    +0.123 C 
BRANCH  17  19
ATOM     19  C   UNL     1      -9.451  -9.962  15.856  0.00  0.00    +0.103 C 
BRANCH  19   7
ATOM      3  O   UNL     1     -12.181 -10.496  18.999  0.00  0.00    -0.377 OA
ATOM      7  N   UNL     1     -10.092 -10.475  17.066  0.00  0.00    -0.297 NA
ATOM     21  C   UNL     1     -11.417 -11.030  16.759  0.00  0.00    +0.112 C 
ATOM     22  C   UNL     1     -10.212  -9.418  18.080  0.00  0.00    +0.112 C 
ATOM     24  C   UNL     1     -12.072 -11.546  18.038  0.00  0.00    +0.175 C 
ATOM     25  C   UNL     1     -10.893  -9.973  19.327  0.00  0.00    +0.175 C 
ENDBRANCH  19   7
ENDBRANCH  17  19
ENDBRANCH   6  17
BRANCH  18  20
ATOM     20  C   UNL     1      -2.573 -11.352  12.373  0.00  0.00    +0.131 C 
BRANCH  20  23
ATOM     23  C   UNL     1      -3.447 -10.403  11.614  0.00  0.00    -0.038 A 
ATOM     26  C   UNL     1      -4.699 -10.053  12.119  0.00  0.00    +0.007 A 
ATOM     27  C   UNL     1      -3.008  -9.867  10.404  0.00  0.00    +0.007 A 
ATOM     28  C   UNL     1      -5.512  -9.166  11.414  0.00  0.00    +0.046 A 
ATOM     29  C   UNL     1      -3.821  -8.980   9.697  0.00  0.00    +0.046 A 
ATOM     30  C   UNL     1      -5.073  -8.630  10.202  0.00  0.00    +0.120 A 
BRANCH  30   4
ATOM      4  O   UNL     1      -5.866  -7.764   9.515  0.00  0.00    -0.495 OA
ATOM     31  C   UNL     1      -6.902  -8.329   8.713  0.00  0.00    +0.277 C 
ENDBRANCH  30   4
ENDBRANCH  20  23
ENDBRANCH  18  20
TORSDOF 6
ENDMDL
MODEL 3
REMARK VINA RESULT:      -6.4     24.191     27.418
REMARK  Name = 26742669
REMARK  7 active torsions:
REMARK  status: ('A' for Active; 'I' for Inactive)
REMARK    1  A    between atoms: O_4  and  C_30
REMARK    2  A    between atoms: O_4  and  C_31
REMARK    3  A    between atoms: N_6  and  C_17
REMARK    4  A    between atoms: N_7  and  C_19
REMARK    5  A    between atoms: C_17  and  C_19
REMARK    6  A    between atoms: C_18  and  C_20
REMARK    7  A    between atoms: C_20  and  C_23
REMARK                            x       y       z     vdW  Elec       q    Type
REMARK                         _______ _______ _______ _____ _____    ______ ____
ROOT
ATOM      1  O   UNL     1      15.698   7.241   4.678  0.00  0.00    -0.276 OA
ATOM      2  O   UNL     1       9.336   5.273   6.839  0.00  0.00    -0.275 OA
ATOM      5  N   UNL     1      10.629   7.161   7.242  0.00  0.00    -0.301 N 
ATOM      6  N   UNL     1      13.894   8.448   3.857  0.00  0.00    -0.300 N 
ATOM      8  C   UNL     1      12.038   9.056   6.455  0.00  0.00    +0.011 C 
ATOM      9  C   UNL     1      13.285   8.270   6.929  0.00  0.00    +0.004 C 
ATOM     10  C   UNL     1      13.037   6.750   6.914  0.00  0.00    +0.023 C 
ATOM     11  C   UNL     1      10.808   8.618   7.277  0.00  0.00    +0.111 C 
ATOM     12  C   UNL     1      11.728   8.948   4.950  0.00  0.00    +0.024 C 
ATOM     13  C   UNL     1      14.584   8.672   6.220  0.00  0.00    +0.100 C 
ATOM     14  C   UNL     1      11.783   6.391   7.707  0.00  0.00    +0.108 C 
ATOM     15  C   UNL     1      12.859   9.458   4.061  0.00  0.00    +0.108 C 
ATOM     16  C   UNL     1      14.784   8.052   4.849  0.00  0.00    +0.216 C 
ATOM     18  C   UNL     1       9.470   6.500   6.836  0.00  0.00    +0.220 C 
ENDROOT
BRANCH   6  17
ATOM     17  C   UNL     1      13.960   7.841   2.534  0.00  0.00    +0.123 C 
BRANCH  17  19
ATOM     19  C   UNL     1      12.756   6.949   2.276  0.00  0.00    +0.103 C 
BRANCH  19   7
ATOM      3  O   UNL     1      14.258   3.065   1.750  0.00  0.00    -0.377 OA
ATOM      7  N   UNL     1      13.175   5.695   1.651  0.00  0.00    -0.297 NA
ATOM     21  C   UNL     1      12.399   4.564   2.177  0.00  0.00    +0.112 C 
ATOM     22  C   UNL     1      14.611   5.463   1.863  0.00  0.00    +0.112 C 
ATOM     24  C   UNL     1      12.863   3.267   1.520  0.00  0.00    +0.175 C 
ATOM     25  C   UNL     1      15.022   4.145   1.212  0.00  0.00    +0.175 C 
ENDBRANCH  19   7
ENDBRANCH  17  19
ENDBRANCH   6  17
BRANCH  18  20
ATOM     20  C   UNL     1       8.328   7.364   6.367  0.00  0.00    +0.131 C 
BRANCH  20  23
ATOM     23  C   UNL     1       8.460   7.668   4.907  0.00  0.00    -0.038 A 
ATOM     26  C   UNL     1       7.884   8.824   4.381  0.00  0.00    +0.007 A 
ATOM     27  C   UNL     1       9.161   6.797   4.074  0.00  0.00    +0.007 A 
ATOM     28  C   UNL     1       8.010   9.110   3.022  0.00  0.00    +0.046 A 
ATOM     29  C   UNL     1       9.286   7.082   2.714  0.00  0.00    +0.046 A 
ATOM     30  C   UNL     1       8.711   8.239   2.188  0.00  0.00    +0.120 A 
BRANCH  30   4
ATOM      4  O   UNL     1       8.834   8.518   0.862  0.00  0.00    -0.495 OA
ATOM     31  C   UNL     1       9.738   7.709   0.110  0.00  0.00    +0.277 C 
ENDBRANCH  30   4
ENDBRANCH  20  23
ENDBRANCH  18  20
TORSDOF 6
ENDMDL
MODEL 4
REMARK VINA RESULT:      -6.3      1.330      1.995
REMARK  Name = 26742669
REMARK  7 active torsions:
REMARK  status: ('A' for Active; 'I' for Inactive)
REMARK    1  A    between atoms: O_4  and  C_30
REMARK    2  A    between atoms: O_4  and  C_31
REMARK    3  A    between atoms: N_6  and  C_17
REMARK    4  A    between atoms: N_7  and  C_19
REMARK    5  A    between atoms: C_17  and  C_19
REMARK    6  A    between atoms: C_18  and  C_20
REMARK    7  A    between atoms: C_20  and  C_23
REMARK                            x       y       z     vdW  Elec       q    Type
REMARK                         _______ _______ _______ _____ _____    ______ ____
ROOT
ATOM      1  O   UNL     1      -9.085  -9.632  18.138  0.00  0.00    -0.276 OA
ATOM      2  O   UNL     1      -2.508 -10.374  15.855  0.00  0.00    -0.275 OA
ATOM      5  N   UNL     1      -4.115 -11.893  16.568  0.00  0.00    -0.301 N 
ATOM      6  N   UNL     1      -8.803 -10.647  16.071  0.00  0.00    -0.300 N 
ATOM      8  C   UNL     1      -6.426 -12.817  16.518  0.00  0.00    +0.011 C 
ATOM      9  C   UNL     1      -6.692 -12.112  17.870  0.00  0.00    +0.004 C 
ATOM     10  C   UNL     1      -5.801 -10.868  18.045  0.00  0.00    +0.023 C 
ATOM     11  C   UNL     1      -4.917 -13.108  16.375  0.00  0.00    +0.111 C 
ATOM     12  C   UNL     1      -6.935 -12.066  15.274  0.00  0.00    +0.024 C 
ATOM     13  C   UNL     1      -8.174 -11.831  18.147  0.00  0.00    +0.100 C 
ATOM     14  C   UNL     1      -4.327 -11.216  17.848  0.00  0.00    +0.108 C 
ATOM     15  C   UNL     1      -8.442 -11.825  15.287  0.00  0.00    +0.108 C 
ATOM     16  C   UNL     1      -8.733 -10.600  17.458  0.00  0.00    +0.216 C 
ATOM     18  C   UNL     1      -3.188 -11.384  15.659  0.00  0.00    +0.220 C 
ENDROOT
BRANCH   6  17
ATOM     17  C   UNL     1      -9.248  -9.478  15.323  0.00  0.00    +0.123 C 
BRANCH  17  19
ATOM     19  C   UNL     1     -10.723  -9.580  14.968  0.00  0.00    +0.103 C 
BRANCH  19   7
ATOM      3  O   UNL     1     -11.684  -5.501  14.731  0.00  0.00    -0.377 OA
ATOM      7  N   UNL     1     -11.388  -8.296  15.183  0.00  0.00    -0.297 NA
ATOM     21  C   UNL     1     -11.937  -7.775  13.924  0.00  0.00    +0.112 C 
ATOM     22  C   UNL     1     -10.458  -7.320  15.769  0.00  0.00    +0.112 C 
ATOM     24  C   UNL     1     -12.613  -6.429  14.170  0.00  0.00    +0.175 C 
ATOM     25  C   UNL     1     -11.171  -5.986  15.973  0.00  0.00    +0.175 C 
ENDBRANCH  19   7
ENDBRANCH  17  19
ENDBRANCH   6  17
BRANCH  18  20
ATOM     20  C   UNL     1      -3.031 -12.137  14.362  0.00  0.00    +0.131 C 
BRANCH  20  23
ATOM     23  C   UNL     1      -3.298 -11.239  13.194  0.00  0.00    -0.038 A 
ATOM     26  C   UNL     1      -2.279 -10.957  12.285  0.00  0.00    +0.007 A 
ATOM     27  C   UNL     1      -4.566 -10.688  13.013  0.00  0.00    +0.007 A 
ATOM     28  C   UNL     1      -2.528 -10.124  11.195  0.00  0.00    +0.046 A 
ATOM     29  C   UNL     1      -4.816  -9.854  11.923  0.00  0.00    +0.046 A 
ATOM     30  C   UNL     1      -3.796  -9.572  11.014  0.00  0.00    +0.120 A 
BRANCH  30   4
ATOM      4  O   UNL     1      -4.040  -8.760   9.949  0.00  0.00    -0.495 OA
ATOM     31  C   UNL     1      -4.541  -9.377   8.765  0.00  0.00    +0.277 C 
ENDBRANCH  30   4
ENDBRANCH  20  23
ENDBRANCH  18  20
TORSDOF 6
ENDMDL
MODEL 5
REMARK VINA RESULT:      -6.2      2.579      4.901
REMARK  Name = 26742669
REMARK  7 active torsions:
REMARK  status: ('A' for Active; 'I' for Inactive)
REMARK    1  A    between atoms: O_4  and  C_30
REMARK    2  A    between atoms: O_4  and  C_31
REMARK    3  A    between atoms: N_6  and  C_17
REMARK    4  A    between atoms: N_7  and  C_19
REMARK    5  A    between atoms: C_17  and  C_19
REMARK    6  A    between atoms: C_18  and  C_20
REMARK    7  A    between atoms: C_20  and  C_23
REMARK                            x       y       z     vdW  Elec       q    Type
REMARK                         _______ _______ _______ _____ _____    ______ ____
ROOT
ATOM      1  O   UNL     1      -1.402 -10.374  16.136  0.00  0.00    -0.276 OA
ATOM      2  O   UNL     1      -4.166  -8.423  10.007  0.00  0.00    -0.275 OA
ATOM      5  N   UNL     1      -3.389 -10.458  10.816  0.00  0.00    -0.301 N 
ATOM      6  N   UNL     1      -3.515 -11.191  15.635  0.00  0.00    -0.300 N 
ATOM      8  C   UNL     1      -3.306 -12.230  12.562  0.00  0.00    +0.011 C 
ATOM      9  C   UNL     1      -1.917 -11.691  12.982  0.00  0.00    +0.004 C 
ATOM     10  C   UNL     1      -1.766 -10.194  12.650  0.00  0.00    +0.023 C 
ATOM     11  C   UNL     1      -3.564 -11.892  11.079  0.00  0.00    +0.111 C 
ATOM     12  C   UNL     1      -4.486 -11.743  13.424  0.00  0.00    +0.024 C 
ATOM     13  C   UNL     1      -1.527 -12.026  14.427  0.00  0.00    +0.100 C 
ATOM     14  C   UNL     1      -2.077  -9.924  11.180  0.00  0.00    +0.108 C 
ATOM     15  C   UNL     1      -4.360 -12.126  14.895  0.00  0.00    +0.108 C 
ATOM     16  C   UNL     1      -2.135 -11.120  15.482  0.00  0.00    +0.216 C 
ATOM     18  C   UNL     1      -4.346  -9.621  10.241  0.00  0.00    +0.220 C 
ENDROOT
BRANCH   6  17
ATOM     17  C   UNL     1      -4.192 -10.297  16.565  0.00  0.00    +0.123 C 
BRANCH  17  19
ATOM     19  C   UNL     1      -4.714 -11.054  17.776  0.00  0.00    +0.103 C 
BRANCH  19   7
ATOM      3  O   UNL     1      -8.863 -10.466  18.004  0.00  0.00    -0.377 OA
ATOM      7  N   UNL     1      -6.023 -10.539  18.173  0.00  0.00    -0.297 NA
ATOM     21  C   UNL     1      -6.854 -11.609  18.742  0.00  0.00    +0.112 C 
ATOM     22  C   UNL     1      -6.709  -9.923  17.029  0.00  0.00    +0.112 C 
ATOM     24  C   UNL     1      -8.219 -11.050  19.137  0.00  0.00    +0.175 C 
ATOM     25  C   UNL     1      -8.076  -9.403  17.465  0.00  0.00    +0.175 C 
ENDBRANCH  19   7
ENDBRANCH  17  19
ENDBRANCH   6  17
BRANCH  18  20
ATOM     20  C   UNL     1      -5.673 -10.247   9.898  0.00  0.00    +0.131 C 
BRANCH  20  23
ATOM     23  C   UNL     1      -5.827 -10.381   8.415  0.00  0.00    -0.038 A 
ATOM     26  C   UNL     1      -5.048 -11.301   7.714  0.00  0.00    +0.007 A 
ATOM     27  C   UNL     1      -6.751  -9.588   7.735  0.00  0.00    +0.007 A 
ATOM     28  C   UNL     1      -5.193 -11.429   6.333  0.00  0.00    +0.046 A 
ATOM     29  C   UNL     1      -6.896  -9.715   6.353  0.00  0.00    +0.046 A 
ATOM     30  C   UNL     1      -6.117 -10.636   5.652  0.00  0.00    +0.120 A 
BRANCH  30   4
ATOM      4  O   UNL     1      -6.260 -10.761   4.305  0.00  0.00    -0.495 OA
ATOM     31  C   UNL     1      -7.458 -10.244   3.728  0.00  0.00    +0.277 C 
ENDBRANCH  30   4
ENDBRANCH  20  23
ENDBRANCH  18  20
TORSDOF 6
ENDMDL
MODEL 6
REMARK VINA RESULT:      -6.2      3.178      6.792
REMARK  Name = 26742669
REMARK  7 active torsions:
REMARK  status: ('A' for Active; 'I' for Inactive)
REMARK    1  A    between atoms: O_4  and  C_30
REMARK    2  A    between atoms: O_4  and  C_31
REMARK    3  A    between atoms: N_6  and  C_17
REMARK    4  A    between atoms: N_7  and  C_19
REMARK    5  A    between atoms: C_17  and  C_19
REMARK    6  A    between atoms: C_18  and  C_20
REMARK    7  A    between atoms: C_20  and  C_23
REMARK                            x       y       z     vdW  Elec       q    Type
REMARK                         _______ _______ _______ _____ _____    ______ ____
ROOT
ATOM      1  O   UNL     1      -6.392 -11.890   8.699  0.00  0.00    -0.276 OA
ATOM      2  O   UNL     1      -3.437 -13.213  14.906  0.00  0.00    -0.275 OA
ATOM      5  N   UNL     1      -2.775 -11.940  13.079  0.00  0.00    -0.301 N 
ATOM      6  N   UNL     1      -6.257 -10.119  10.192  0.00  0.00    -0.300 N 
ATOM      8  C   UNL     1      -3.217 -10.217  11.338  0.00  0.00    +0.011 C 
ATOM      9  C   UNL     1      -3.378 -11.360  10.308  0.00  0.00    +0.004 C 
ATOM     10  C   UNL     1      -3.839 -12.667  10.979  0.00  0.00    +0.023 C 
ATOM     11  C   UNL     1      -2.300 -10.683  12.487  0.00  0.00    +0.111 C 
ATOM     12  C   UNL     1      -4.534  -9.660  11.911  0.00  0.00    +0.024 C 
ATOM     13  C   UNL     1      -4.224 -10.985   9.084  0.00  0.00    +0.100 C 
ATOM     14  C   UNL     1      -2.914 -13.047  12.133  0.00  0.00    +0.108 C 
ATOM     15  C   UNL     1      -5.462  -9.083  10.847  0.00  0.00    +0.108 C 
ATOM     16  C   UNL     1      -5.725 -11.043   9.300  0.00  0.00    +0.216 C 
ATOM     18  C   UNL     1      -3.062 -12.139  14.429  0.00  0.00    +0.220 C 
ENDROOT
BRANCH   6  17
ATOM     17  C   UNL     1      -7.676 -10.158  10.523  0.00  0.00    +0.123 C 
BRANCH  17  19
ATOM     19  C   UNL     1      -8.366  -8.857  10.143  0.00  0.00    +0.103 C 
BRANCH  19   7
ATOM      3  O   UNL     1      -9.262  -7.871   6.163  0.00  0.00    -0.377 OA
ATOM      7  N   UNL     1      -8.225  -8.607   8.710  0.00  0.00    -0.297 NA
ATOM     21  C   UNL     1      -8.557  -7.212   8.389  0.00  0.00    +0.112 C 
ATOM     22  C   UNL     1      -9.079  -9.518   7.935  0.00  0.00    +0.112 C 
ATOM     24  C   UNL     1      -8.416  -6.978   6.887  0.00  0.00    +0.175 C 
ATOM     25  C   UNL     1      -8.924  -9.230   6.445  0.00  0.00    +0.175 C 
ENDBRANCH  19   7
ENDBRANCH  17  19
ENDBRANCH   6  17
BRANCH  18  20
ATOM     20  C   UNL     1      -2.897 -10.948  15.338  0.00  0.00    +0.131 C 
BRANCH  20  23
ATOM     23  C   UNL     1      -4.155 -10.691  16.107  0.00  0.00    -0.038 A 
ATOM     26  C   UNL     1      -4.205 -10.965  17.474  0.00  0.00    +0.007 A 
ATOM     27  C   UNL     1      -5.277 -10.176  15.458  0.00  0.00    +0.007 A 
ATOM     28  C   UNL     1      -5.375 -10.723  18.192  0.00  0.00    +0.046 A 
ATOM     29  C   UNL     1      -6.449  -9.934  16.176  0.00  0.00    +0.046 A 
ATOM     30  C   UNL     1      -6.498 -10.208  17.543  0.00  0.00    +0.120 A 
BRANCH  30   4
ATOM      4  O   UNL     1      -7.640  -9.970  18.243  0.00  0.00    -0.495 OA
ATOM     31  C   UNL     1      -8.046 -10.968  19.179  0.00  0.00    +0.277 C 
ENDBRANCH  30   4
ENDBRANCH  20  23
ENDBRANCH  18  20
TORSDOF 6
ENDMDL
MODEL 7
REMARK VINA RESULT:      -6.0      2.278      3.917
REMARK  Name = 26742669
REMARK  7 active torsions:
REMARK  status: ('A' for Active; 'I' for Inactive)
REMARK    1  A    between atoms: O_4  and  C_30
REMARK    2  A    between atoms: O_4  and  C_31
REMARK    3  A    between atoms: N_6  and  C_17
REMARK    4  A    between atoms: N_7  and  C_19
REMARK    5  A    between atoms: C_17  and  C_19
REMARK    6  A    between atoms: C_18  and  C_20
REMARK    7  A    between atoms: C_20  and  C_23
REMARK                            x       y       z     vdW  Elec       q    Type
REMARK                         _______ _______ _______ _____ _____    ______ ____
ROOT
ATOM      1  O   UNL     1      -8.459  -9.177  15.913  0.00  0.00    -0.276 OA
ATOM      2  O   UNL     1      -1.577  -9.953  14.883  0.00  0.00    -0.275 OA
ATOM      5  N   UNL     1      -3.242 -11.404  15.605  0.00  0.00    -0.301 N 
ATOM      6  N   UNL     1      -7.812 -10.534  14.145  0.00  0.00    -0.300 N 
ATOM      8  C   UNL     1      -5.488 -12.450  15.364  0.00  0.00    +0.011 C 
ATOM      9  C   UNL     1      -5.992 -11.528  16.499  0.00  0.00    +0.004 C 
ATOM     10  C   UNL     1      -5.175 -10.225  16.576  0.00  0.00    +0.023 C 
ATOM     11  C   UNL     1      -3.969 -12.677  15.519  0.00  0.00    +0.111 C 
ATOM     12  C   UNL     1      -5.802 -11.966  13.936  0.00  0.00    +0.024 C 
ATOM     13  C   UNL     1      -7.507 -11.284  16.480  0.00  0.00    +0.100 C 
ATOM     14  C   UNL     1      -3.681 -10.520  16.684  0.00  0.00    +0.108 C 
ATOM     15  C   UNL     1      -7.295 -11.813  13.664  0.00  0.00    +0.108 C 
ATOM     16  C   UNL     1      -7.974 -10.231  15.492  0.00  0.00    +0.216 C 
ATOM     18  C   UNL     1      -2.190 -11.019  14.775  0.00  0.00    +0.220 C 
ENDROOT
BRANCH   6  17
ATOM     17  C   UNL     1      -8.156  -9.546  13.130  0.00  0.00    +0.123 C 
BRANCH  17  19
ATOM     19  C   UNL     1      -7.012  -9.345  12.148  0.00  0.00    +0.103 C 
BRANCH  19   7
ATOM      3  O   UNL     1      -7.400  -9.511   7.972  0.00  0.00    -0.377 OA
ATOM      7  N   UNL     1      -7.530  -9.160  10.794  0.00  0.00    -0.297 NA
ATOM     21  C   UNL     1      -7.825 -10.456  10.166  0.00  0.00    +0.112 C 
ATOM     22  C   UNL     1      -6.576  -8.406   9.969  0.00  0.00    +0.112 C 
ATOM     24  C   UNL     1      -8.351 -10.238   8.750  0.00  0.00    +0.175 C 
ATOM     25  C   UNL     1      -7.134  -8.236   8.558  0.00  0.00    +0.175 C 
ENDBRANCH  19   7
ENDBRANCH  17  19
ENDBRANCH   6  17
BRANCH  18  20
ATOM     20  C   UNL     1      -1.800 -11.984  13.684  0.00  0.00    +0.131 C 
BRANCH  20  23
ATOM     23  C   UNL     1      -2.466 -11.620  12.394  0.00  0.00    -0.038 A 
ATOM     26  C   UNL     1      -3.096 -12.605  11.633  0.00  0.00    +0.007 A 
ATOM     27  C   UNL     1      -2.460 -10.297  11.954  0.00  0.00    +0.007 A 
ATOM     28  C   UNL     1      -3.720 -12.267  10.432  0.00  0.00    +0.046 A 
ATOM     29  C   UNL     1      -3.083  -9.958  10.753  0.00  0.00    +0.046 A 
ATOM     30  C   UNL     1      -3.713 -10.943   9.992  0.00  0.00    +0.120 A 
BRANCH  30   4
ATOM      4  O   UNL     1      -4.323 -10.613   8.821  0.00  0.00    -0.495 OA
ATOM     31  C   UNL     1      -4.789 -11.687   8.007  0.00  0.00    +0.277 C 
ENDBRANCH  30   4
ENDBRANCH  20  23
ENDBRANCH  18  20
TORSDOF 6
ENDMDL
MODEL 8
REMARK VINA RESULT:      -6.0      3.457      5.637
REMARK  Name = 26742669
REMARK  7 active torsions:
REMARK  status: ('A' for Active; 'I' for Inactive)
REMARK    1  A    between atoms: O_4  and  C_30
REMARK    2  A    between atoms: O_4  and  C_31
REMARK    3  A    between atoms: N_6  and  C_17
REMARK    4  A    between atoms: N_7  and  C_19
REMARK    5  A    between atoms: C_17  and  C_19
REMARK    6  A    between atoms: C_18  and  C_20
REMARK    7  A    between atoms: C_20  and  C_23
REMARK                            x       y       z     vdW  Elec       q    Type
REMARK                         _______ _______ _______ _____ _____    ______ ____
ROOT
ATOM      1  O   UNL     1      -1.573 -11.890  14.861  0.00  0.00    -0.276 OA
ATOM      2  O   UNL     1      -4.855  -7.653  10.357  0.00  0.00    -0.275 OA
ATOM      5  N   UNL     1      -4.428  -9.937  10.355  0.00  0.00    -0.301 N 
ATOM      6  N   UNL     1      -3.870 -12.151  14.663  0.00  0.00    -0.300 N 
ATOM      8  C   UNL     1      -4.441 -12.165  11.464  0.00  0.00    +0.011 C 
ATOM      9  C   UNL     1      -2.916 -12.020  11.678  0.00  0.00    +0.004 C 
ATOM     10  C   UNL     1      -2.491 -10.542  11.753  0.00  0.00    +0.023 C 
ATOM     11  C   UNL     1      -4.872 -11.331  10.239  0.00  0.00    +0.111 C 
ATOM     12  C   UNL     1      -5.312 -11.799  12.681  0.00  0.00    +0.024 C 
ATOM     13  C   UNL     1      -2.364 -12.861  12.837  0.00  0.00    +0.100 C 
ATOM     14  C   UNL     1      -2.986  -9.766  10.535  0.00  0.00    +0.108 C 
ATOM     15  C   UNL     1      -5.020 -12.650  13.913  0.00  0.00    +0.108 C 
ATOM     16  C   UNL     1      -2.558 -12.258  14.215  0.00  0.00    +0.216 C 
ATOM     18  C   UNL     1      -5.256  -8.817  10.281  0.00  0.00    +0.220 C 
ENDROOT
BRANCH   6  17
ATOM     17  C   UNL     1      -4.154 -11.508  15.939  0.00  0.00    +0.123 C 
BRANCH  17  19
ATOM     19  C   UNL     1      -4.796 -12.481  16.916  0.00  0.00    +0.103 C 
BRANCH  19   7
ATOM      3  O   UNL     1      -7.337 -11.411  20.081  0.00  0.00    -0.377 OA
ATOM      7  N   UNL     1      -5.832 -11.808  17.698  0.00  0.00    -0.297 NA
ATOM     21  C   UNL     1      -5.251 -11.141  18.871  0.00  0.00    +0.112 C 
ATOM     22  C   UNL     1      -6.866 -12.762  18.121  0.00  0.00    +0.112 C 
ATOM     24  C   UNL     1      -6.353 -10.458  19.677  0.00  0.00    +0.175 C 
ATOM     25  C   UNL     1      -7.930 -12.040  18.944  0.00  0.00    +0.175 C 
ENDBRANCH  19   7
ENDBRANCH  17  19
ENDBRANCH   6  17
BRANCH  18  20
ATOM     20  C   UNL     1      -6.730  -9.077  10.100  0.00  0.00    +0.131 C 
BRANCH  20  23
ATOM     23  C   UNL     1      -7.171  -8.680   8.726  0.00  0.00    -0.038 A 
ATOM     26  C   UNL     1      -7.991  -7.564   8.552  0.00  0.00    +0.007 A 
ATOM     27  C   UNL     1      -6.761  -9.422   7.619  0.00  0.00    +0.007 A 
ATOM     28  C   UNL     1      -8.399  -7.191   7.272  0.00  0.00    +0.046 A 
ATOM     29  C   UNL     1      -7.171  -9.050   6.338  0.00  0.00    +0.046 A 
ATOM     30  C   UNL     1      -7.990  -7.935   6.165  0.00  0.00    +0.120 A 
BRANCH  30   4
ATOM      4  O   UNL     1      -8.387  -7.570   4.916  0.00  0.00    -0.495 OA
ATOM     31  C   UNL     1      -9.763  -7.234   4.745  0.00  0.00    +0.277 C 
ENDBRANCH  30   4
ENDBRANCH  20  23
ENDBRANCH  18  20
TORSDOF 6
ENDMDL
MODEL 9
REMARK VINA RESULT:      -5.9      3.996      9.129
REMARK  Name = 26742669
REMARK  7 active torsions:
REMARK  status: ('A' for Active; 'I' for Inactive)
REMARK    1  A    between atoms: O_4  and  C_30
REMARK    2  A    between atoms: O_4  and  C_31
REMARK    3  A    between atoms: N_6  and  C_17
REMARK    4  A    between atoms: N_7  and  C_19
REMARK    5  A    between atoms: C_17  and  C_19
REMARK    6  A    between atoms: C_18  and  C_20
REMARK    7  A    between atoms: C_20  and  C_23
REMARK                            x       y       z     vdW  Elec       q    Type
REMARK                         _______ _______ _______ _____ _____    ______ ____
ROOT
ATOM      1  O   UNL     1     -10.484 -11.469  17.261  0.00  0.00    -0.276 OA
ATOM      2  O   UNL     1     -13.294  -7.383  12.320  0.00  0.00    -0.275 OA
ATOM      5  N   UNL     1     -13.052  -7.146  14.618  0.00  0.00    -0.301 N 
ATOM      6  N   UNL     1      -9.363  -9.497  16.773  0.00  0.00    -0.300 N 
ATOM      8  C   UNL     1     -11.676  -7.215  16.691  0.00  0.00    +0.011 C 
ATOM      9  C   UNL     1     -12.346  -8.565  17.041  0.00  0.00    +0.004 C 
ATOM     10  C   UNL     1     -12.817  -9.308  15.777  0.00  0.00    +0.023 C 
ATOM     11  C   UNL     1     -12.621  -6.385  15.798  0.00  0.00    +0.111 C 
ATOM     12  C   UNL     1     -10.289  -7.323  16.030  0.00  0.00    +0.024 C 
ATOM     13  C   UNL     1     -11.518  -9.450  17.981  0.00  0.00    +0.100 C 
ATOM     14  C   UNL     1     -13.711  -8.417  14.917  0.00  0.00    +0.108 C 
ATOM     15  C   UNL     1      -9.260  -8.045  16.894  0.00  0.00    +0.108 C 
ATOM     16  C   UNL     1     -10.410 -10.238  17.309  0.00  0.00    +0.216 C 
ATOM     18  C   UNL     1     -12.901  -6.736  13.294  0.00  0.00    +0.220 C 
ENDROOT
BRANCH   6  17
ATOM     17  C   UNL     1      -8.299 -10.166  16.036  0.00  0.00    +0.123 C 
BRANCH  17  19
ATOM     19  C   UNL     1      -6.936  -9.593  16.395  0.00  0.00    +0.103 C 
BRANCH  19   7
ATOM      3  O   UNL     1      -4.157 -11.566  18.845  0.00  0.00    -0.377 OA
ATOM      7  N   UNL     1      -6.083 -10.633  16.968  0.00  0.00    -0.297 NA
ATOM     21  C   UNL     1      -6.437 -10.885  18.372  0.00  0.00    +0.112 C 
ATOM     22  C   UNL     1      -4.665 -10.258  16.866  0.00  0.00    +0.112 C 
ATOM     24  C   UNL     1      -5.525 -11.963  18.951  0.00  0.00    +0.175 C 
ATOM     25  C   UNL     1      -3.796 -11.352  17.480  0.00  0.00    +0.175 C 
ENDBRANCH  19   7
ENDBRANCH  17  19
ENDBRANCH   6  17
BRANCH  18  20
ATOM     20  C   UNL     1     -12.208  -5.416  13.070  0.00  0.00    +0.131 C 
BRANCH  20  23
ATOM     23  C   UNL     1     -13.083  -4.485  12.289  0.00  0.00    -0.038 A 
ATOM     26  C   UNL     1     -14.190  -3.895  12.898  0.00  0.00    +0.007 A 
ATOM     27  C   UNL     1     -12.789  -4.205  10.955  0.00  0.00    +0.007 A 
ATOM     28  C   UNL     1     -15.004  -3.025  12.173  0.00  0.00    +0.046 A 
ATOM     29  C   UNL     1     -13.603  -3.336  10.229  0.00  0.00    +0.046 A 
ATOM     30  C   UNL     1     -14.710  -2.745  10.838  0.00  0.00    +0.120 A 
BRANCH  30   4
ATOM      4  O   UNL     1     -15.503  -1.895  10.130  0.00  0.00    -0.495 OA
ATOM     31  C   UNL     1     -15.352  -1.896   8.712  0.00  0.00    +0.277 C 
ENDBRANCH  30   4
ENDBRANCH  20  23
ENDBRANCH  18  20
TORSDOF 6
ENDMDL
MODEL 10
REMARK VINA RESULT:      -5.9      2.368      5.925
REMARK  Name = 26742669
REMARK  7 active torsions:
REMARK  status: ('A' for Active; 'I' for Inactive)
REMARK    1  A    between atoms: O_4  and  C_30
REMARK    2  A    between atoms: O_4  and  C_31
REMARK    3  A    between atoms: N_6  and  C_17
REMARK    4  A    between atoms: N_7  and  C_19
REMARK    5  A    between atoms: C_17  and  C_19
REMARK    6  A    between atoms: C_18  and  C_20
REMARK    7  A    between atoms: C_20  and  C_23
REMARK                            x       y       z     vdW  Elec       q    Type
REMARK                         _______ _______ _______ _____ _____    ______ ____
ROOT
ATOM      1  O   UNL     1      -7.380 -10.806   8.186  0.00  0.00    -0.276 OA
ATOM      2  O   UNL     1      -3.408 -13.040  13.501  0.00  0.00    -0.275 OA
ATOM      5  N   UNL     1      -3.010 -11.590  11.730  0.00  0.00    -0.301 N 
ATOM      6  N   UNL     1      -6.828  -9.242   9.808  0.00  0.00    -0.300 N 
ATOM      8  C   UNL     1      -3.642  -9.644  10.311  0.00  0.00    +0.011 C 
ATOM      9  C   UNL     1      -4.084 -10.642   9.214  0.00  0.00    +0.004 C 
ATOM     10  C   UNL     1      -4.508 -11.995   9.815  0.00  0.00    +0.023 C 
ATOM     11  C   UNL     1      -2.561 -10.297  11.198  0.00  0.00    +0.111 C 
ATOM     12  C   UNL     1      -4.778  -9.092  11.192  0.00  0.00    +0.024 C 
ATOM     13  C   UNL     1      -5.116 -10.074   8.231  0.00  0.00    +0.100 C 
ATOM     14  C   UNL     1      -3.412 -12.563  10.715  0.00  0.00    +0.108 C 
ATOM     15  C   UNL     1      -5.845  -8.339  10.402  0.00  0.00    +0.108 C 
ATOM     16  C   UNL     1      -6.548 -10.077   8.733  0.00  0.00    +0.216 C 
ATOM     18  C   UNL     1      -3.050 -11.937  13.080  0.00  0.00    +0.220 C 
ENDROOT
BRANCH   6  17
ATOM     17  C   UNL     1      -8.156  -9.245  10.407  0.00  0.00    +0.123 C 
BRANCH  17  19
ATOM     19  C   UNL     1      -8.181 -10.067  11.686  0.00  0.00    +0.103 C 
BRANCH  19   7
ATOM      3  O   UNL     1     -11.584  -9.813  14.131  0.00  0.00    -0.377 OA
ATOM      7  N   UNL     1      -9.197  -9.551  12.603  0.00  0.00    -0.297 NA
ATOM     21  C   UNL     1      -9.234 -10.342  13.840  0.00  0.00    +0.112 C 
ATOM     22  C   UNL     1     -10.521  -9.551  11.965  0.00  0.00    +0.112 C 
ATOM     24  C   UNL     1     -10.309  -9.793  14.774  0.00  0.00    +0.175 C 
ATOM     25  C   UNL     1     -11.565  -9.019  12.944  0.00  0.00    +0.175 C 
ENDBRANCH  19   7
ENDBRANCH  17  19
ENDBRANCH   6  17
BRANCH  18  20
ATOM     20  C   UNL     1      -2.623 -10.877  14.063  0.00  0.00    +0.131 C 
BRANCH  20  23
ATOM     23  C   UNL     1      -3.675 -10.671  15.108  0.00  0.00    -0.038 A 
ATOM     26  C   UNL     1      -4.962 -10.284  14.734  0.00  0.00    +0.007 A 
ATOM     27  C   UNL     1      -3.370 -10.870  16.454  0.00  0.00    +0.007 A 
ATOM     28  C   UNL     1      -5.944 -10.096  15.707  0.00  0.00    +0.046 A 
ATOM     29  C   UNL     1      -4.352 -10.681  17.427  0.00  0.00    +0.046 A 
ATOM     30  C   UNL     1      -5.639 -10.294  17.054  0.00  0.00    +0.120 A 
BRANCH  30   4
ATOM      4  O   UNL     1      -6.597 -10.112  18.002  0.00  0.00    -0.495 OA
ATOM     31  C   UNL     1      -7.891  -9.718  17.550  0.00  0.00    +0.277 C 
ENDBRANCH  30   4
ENDBRANCH  20  23
ENDBRANCH  18  20
TORSDOF 6
ENDMDL
