MODEL 1
REMARK VINA RESULT:      -6.2      0.000      0.000
REMARK  Name = 28960717
REMARK  13 active torsions:
REMARK  status: ('A' for Active; 'I' for Inactive)
REMARK    1  A    between atoms: O_6  and  C_26
REMARK    2  A    between atoms: O_8  and  C_32
REMARK    3  A    between atoms: O_8  and  C_33
REMARK    4  A    between atoms: N_9  and  C_19
REMARK    5  A    between atoms: N_10  and  C_13
REMARK    6  A    between atoms: C_14  and  C_17
REMARK    7  A    between atoms: C_18  and  C_20
REMARK    8  A    between atoms: C_18  and  C_22
REMARK    9  A    between atoms: C_18  and  C_23
REMARK   10  A    between atoms: C_18  and  C_24
REMARK   11  A    between atoms: C_20  and  C_21
REMARK   12  A    between atoms: C_22  and  C_26
REMARK   13  A    between atoms: C_25  and  C_27
REMARK                            x       y       z     vdW  Elec       q    Type
REMARK                         _______ _______ _______ _____ _____    ______ ____
ROOT
ATOM      9  N   UNL     1      21.963   7.384  22.436  0.00  0.00    -0.293 NA
ATOM     13  C   UNL     1      23.512   7.297  20.697  0.00  0.00    +0.089 C 
ATOM     14  C   UNL     1      21.277   8.064  21.320  0.00  0.00    +0.147 C 
ATOM     15  C   UNL     1      22.224   7.883  20.118  0.00  0.00    +0.052 C 
ATOM     16  C   UNL     1      23.397   7.556  22.192  0.00  0.00    +0.107 C 
ATOM     19  C   UNL     1      21.569   7.890  23.745  0.00  0.00    +0.105 C 
ENDROOT
BRANCH  14  17
ATOM      4  O   UNL     1      19.808   6.276  20.536  0.00  0.00    -0.336 OA
ATOM     11  N   UNL     1      18.726   8.106  21.241  0.00  0.00    -0.190 NA
ATOM     12  N   UNL     1      18.442   6.008  20.376  0.00  0.00    -0.056 NA
ATOM     17  C   UNL     1      19.886   7.532  21.051  0.00  0.00    +0.245 A 
ATOM     25  C   UNL     1      17.871   7.134  20.813  0.00  0.00    +0.202 A 
BRANCH  25  27
ATOM     27  C   UNL     1      16.449   7.318  20.835  0.00  0.00    +0.023 A 
ATOM     28  C   UNL     1      15.884   8.305  21.643  0.00  0.00    +0.015 A 
ATOM     29  C   UNL     1      15.629   6.509  20.048  0.00  0.00    +0.015 A 
ATOM     30  C   UNL     1      14.501   8.482  21.665  0.00  0.00    +0.046 A 
ATOM     31  C   UNL     1      14.245   6.687  20.069  0.00  0.00    +0.046 A 
ATOM     32  C   UNL     1      13.682   7.673  20.877  0.00  0.00    +0.130 A 
BRANCH  32   8
ATOM      8  O   UNL     1      12.331   7.846  20.898  0.00  0.00    -0.406 OA
BRANCH   8  33
ATOM      1  F   UNL     1      12.592   9.133  19.062  0.00  0.00    -0.133 F 
ATOM      2  F   UNL     1      10.563   8.552  19.630  0.00  0.00    -0.133 F 
ATOM      3  F   UNL     1      11.677  10.036  20.829  0.00  0.00    -0.133 F 
ATOM     33  C   UNL     1      11.775   8.896  20.114  0.00  0.00    +0.575 C 
ENDBRANCH   8  33
ENDBRANCH  32   8
ENDBRANCH  25  27
ENDBRANCH  14  17
BRANCH  13  10
ATOM      5  O   UNL     1      25.945   5.794  20.380  0.00  0.00    -0.276 OA
ATOM     10  N   UNL     1      23.626   5.886  20.415  0.00  0.00    -0.311 N 
ATOM     21  C   UNL     1      24.848   5.248  20.279  0.00  0.00    +0.214 C 
ATOM     34  H   UNL     1      22.770   5.354  20.314  0.00  0.00    +0.149 HD
BRANCH  21  20
ATOM     20  C   UNL     1      24.716   3.761  19.991  0.00  0.00    +0.102 C 
BRANCH  20  18
ATOM     18  C   UNL     1      24.335   2.892  21.217  0.00  0.00    -0.017 C 
ATOM     23  C   UNL     1      25.012   1.507  21.126  0.00  0.00    +0.012 C 
ATOM     24  C   UNL     1      24.880   3.589  22.482  0.00  0.00    +0.012 C 
BRANCH  18  22
ATOM     22  C   UNL     1      22.810   2.670  21.346  0.00  0.00    +0.127 C 
BRANCH  22  26
ATOM      7  O   UNL     1      22.162   2.923  23.665  0.00  0.00    -0.251 OA
ATOM     26  C   UNL     1      22.164   3.365  22.524  0.00  0.00    +0.305 C 
BRANCH  26   6
ATOM      6  O   UNL     1      21.574   4.538  22.184  0.00  0.00    -0.481 OA
ATOM     35  H   UNL     1      21.027   4.452  21.374  0.00  0.00    +0.295 HD
ENDBRANCH  26   6
ENDBRANCH  22  26
ENDBRANCH  18  22
ENDBRANCH  20  18
ENDBRANCH  21  20
ENDBRANCH  13  10
TORSDOF 10
ENDMDL
MODEL 2
REMARK VINA RESULT:      -6.2     17.512     20.282
REMARK  Name = 28960717
REMARK  13 active torsions:
REMARK  status: ('A' for Active; 'I' for Inactive)
REMARK    1  A    between atoms: O_6  and  C_26
REMARK    2  A    between atoms: O_8  and  C_32
REMARK    3  A    between atoms: O_8  and  C_33
REMARK    4  A    between atoms: N_9  and  C_19
REMARK    5  A    between atoms: N_10  and  C_13
REMARK    6  A    between atoms: C_14  and  C_17
REMARK    7  A    between atoms: C_18  and  C_20
REMARK    8  A    between atoms: C_18  and  C_22
REMARK    9  A    between atoms: C_18  and  C_23
REMARK   10  A    between atoms: C_18  and  C_24
REMARK   11  A    between atoms: C_20  and  C_21
REMARK   12  A    between atoms: C_22  and  C_26
REMARK   13  A    between atoms: C_25  and  C_27
REMARK                            x       y       z     vdW  Elec       q    Type
REMARK                         _______ _______ _______ _____ _____    ______ ____
ROOT
ATOM      9  N   UNL     1      10.661   7.795   3.696  0.00  0.00    -0.293 NA
ATOM     13  C   UNL     1      10.274   5.685   2.785  0.00  0.00    +0.089 C 
ATOM     14  C   UNL     1      11.136   6.868   4.741  0.00  0.00    +0.147 C 
ATOM     15  C   UNL     1      11.029   5.472   4.096  0.00  0.00    +0.052 C 
ATOM     16  C   UNL     1       9.643   7.060   2.939  0.00  0.00    +0.107 C 
ATOM     19  C   UNL     1      10.142   9.047   4.232  0.00  0.00    +0.105 C 
ENDROOT
BRANCH  14  17
ATOM      4  O   UNL     1      12.720   7.163   6.579  0.00  0.00    -0.336 OA
ATOM     11  N   UNL     1      13.611   7.461   4.546  0.00  0.00    -0.190 NA
ATOM     12  N   UNL     1      14.070   7.473   6.787  0.00  0.00    -0.056 NA
ATOM     17  C   UNL     1      12.534   7.177   5.232  0.00  0.00    +0.245 A 
ATOM     25  C   UNL     1      14.527   7.635   5.541  0.00  0.00    +0.202 A 
BRANCH  25  27
ATOM     27  C   UNL     1      15.893   7.969   5.260  0.00  0.00    +0.023 A 
ATOM     28  C   UNL     1      16.718   8.452   6.275  0.00  0.00    +0.015 A 
ATOM     29  C   UNL     1      16.397   7.811   3.968  0.00  0.00    +0.015 A 
ATOM     30  C   UNL     1      18.045   8.778   6.000  0.00  0.00    +0.046 A 
ATOM     31  C   UNL     1      17.725   8.136   3.693  0.00  0.00    +0.046 A 
ATOM     32  C   UNL     1      18.549   8.620   4.709  0.00  0.00    +0.130 A 
BRANCH  32   8
ATOM      8  O   UNL     1      19.846   8.938   4.439  0.00  0.00    -0.406 OA
BRANCH   8  33
ATOM      1  F   UNL     1      21.334   8.184   5.959  0.00  0.00    -0.133 F 
ATOM      2  F   UNL     1      20.338   6.717   4.682  0.00  0.00    -0.133 F 
ATOM      3  F   UNL     1      21.874   8.067   3.845  0.00  0.00    -0.133 F 
ATOM     33  C   UNL     1      20.848   7.967   4.715  0.00  0.00    +0.575 C 
ENDBRANCH   8  33
ENDBRANCH  32   8
ENDBRANCH  25  27
ENDBRANCH  14  17
BRANCH  13  10
ATOM      5  O   UNL     1      10.020   4.000   0.465  0.00  0.00    -0.276 OA
ATOM     10  N   UNL     1      11.162   5.639   1.648  0.00  0.00    -0.311 N 
ATOM     21  C   UNL     1      10.956   4.790   0.572  0.00  0.00    +0.214 C 
ATOM     34  H   UNL     1      11.965   6.257   1.650  0.00  0.00    +0.149 HD
BRANCH  21  20
ATOM     20  C   UNL     1      12.017   4.924  -0.507  0.00  0.00    +0.102 C 
BRANCH  20  18
ATOM     18  C   UNL     1      13.033   3.754  -0.570  0.00  0.00    -0.017 C 
ATOM     23  C   UNL     1      12.501   2.628  -1.481  0.00  0.00    +0.012 C 
ATOM     24  C   UNL     1      14.334   4.288  -1.207  0.00  0.00    +0.012 C 
BRANCH  18  22
ATOM     22  C   UNL     1      13.333   3.143   0.819  0.00  0.00    +0.127 C 
BRANCH  22  26
ATOM      7  O   UNL     1      14.272   5.025   2.018  0.00  0.00    -0.251 OA
ATOM     26  C   UNL     1      14.388   3.873   1.620  0.00  0.00    +0.305 C 
BRANCH  26   6
ATOM      6  O   UNL     1      15.491   3.118   1.851  0.00  0.00    -0.481 OA
ATOM     35  H   UNL     1      15.748   2.594   1.062  0.00  0.00    +0.295 HD
ENDBRANCH  26   6
ENDBRANCH  22  26
ENDBRANCH  18  22
ENDBRANCH  20  18
ENDBRANCH  21  20
ENDBRANCH  13  10
TORSDOF 10
ENDMDL
MODEL 3
REMARK VINA RESULT:      -6.1     30.049     31.930
REMARK  Name = 28960717
REMARK  13 active torsions:
REMARK  status: ('A' for Active; 'I' for Inactive)
REMARK    1  A    between atoms: O_6  and  C_26
REMARK    2  A    between atoms: O_8  and  C_32
REMARK    3  A    between atoms: O_8  and  C_33
REMARK    4  A    between atoms: N_9  and  C_19
REMARK    5  A    between atoms: N_10  and  C_13
REMARK    6  A    between atoms: C_14  and  C_17
REMARK    7  A    between atoms: C_18  and  C_20
REMARK    8  A    between atoms: C_18  and  C_22
REMARK    9  A    between atoms: C_18  and  C_23
REMARK   10  A    between atoms: C_18  and  C_24
REMARK   11  A    between atoms: C_20  and  C_21
REMARK   12  A    between atoms: C_22  and  C_26
REMARK   13  A    between atoms: C_25  and  C_27
REMARK                            x       y       z     vdW  Elec       q    Type
REMARK                         _______ _______ _______ _____ _____    ______ ____
ROOT
ATOM      9  N   UNL     1      -4.914 -12.443  15.728  0.00  0.00    -0.293 NA
ATOM     13  C   UNL     1      -3.362 -11.283  14.434  0.00  0.00    +0.089 C 
ATOM     14  C   UNL     1      -4.734 -11.170  16.452  0.00  0.00    +0.147 C 
ATOM     15  C   UNL     1      -3.828 -10.328  15.533  0.00  0.00    +0.052 C 
ATOM     16  C   UNL     1      -3.668 -12.666  14.989  0.00  0.00    +0.107 C 
ATOM     19  C   UNL     1      -5.233 -13.563  16.606  0.00  0.00    +0.105 C 
ENDROOT
BRANCH  14  17
ATOM      4  O   UNL     1      -6.330 -10.332  18.102  0.00  0.00    -0.336 OA
ATOM     11  N   UNL     1      -6.940  -9.979  15.976  0.00  0.00    -0.190 NA
ATOM     12  N   UNL     1      -7.563  -9.670  18.155  0.00  0.00    -0.056 NA
ATOM     17  C   UNL     1      -6.036 -10.474  16.782  0.00  0.00    +0.245 A 
ATOM     25  C   UNL     1      -7.857  -9.496  16.863  0.00  0.00    +0.202 A 
BRANCH  25  27
ATOM     27  C   UNL     1      -9.058  -8.845  16.427  0.00  0.00    +0.023 A 
ATOM     28  C   UNL     1      -9.575  -9.109  15.159  0.00  0.00    +0.015 A 
ATOM     29  C   UNL     1      -9.711  -7.947  17.272  0.00  0.00    +0.015 A 
ATOM     30  C   UNL     1     -10.742  -8.474  14.735  0.00  0.00    +0.046 A 
ATOM     31  C   UNL     1     -10.879  -7.313  16.849  0.00  0.00    +0.046 A 
ATOM     32  C   UNL     1     -11.394  -7.576  15.580  0.00  0.00    +0.130 A 
BRANCH  32   8
ATOM      8  O   UNL     1     -12.534  -6.956  15.167  0.00  0.00    -0.406 OA
BRANCH   8  33
ATOM      1  F   UNL     1     -12.444  -6.408  12.979  0.00  0.00    -0.133 F 
ATOM      2  F   UNL     1     -13.452  -5.030  14.343  0.00  0.00    -0.133 F 
ATOM      3  F   UNL     1     -11.252  -5.233  14.383  0.00  0.00    -0.133 F 
ATOM     33  C   UNL     1     -12.419  -5.892  14.229  0.00  0.00    +0.575 C 
ENDBRANCH   8  33
ENDBRANCH  32   8
ENDBRANCH  25  27
ENDBRANCH  14  17
BRANCH  13  10
ATOM      5  O   UNL     1      -2.438 -11.915  11.783  0.00  0.00    -0.276 OA
ATOM     10  N   UNL     1      -4.063 -11.047  13.194  0.00  0.00    -0.311 N 
ATOM     21  C   UNL     1      -3.534 -11.389  11.960  0.00  0.00    +0.214 C 
ATOM     34  H   UNL     1      -4.977 -10.614  13.244  0.00  0.00    +0.149 HD
BRANCH  21  20
ATOM     20  C   UNL     1      -4.457 -11.050  10.801  0.00  0.00    +0.102 C 
BRANCH  20  18
ATOM     18  C   UNL     1      -4.278  -9.623  10.221  0.00  0.00    -0.017 C 
ATOM     23  C   UNL     1      -2.800  -9.188  10.309  0.00  0.00    +0.012 C 
ATOM     24  C   UNL     1      -4.658  -9.667   8.725  0.00  0.00    +0.012 C 
BRANCH  18  22
ATOM     22  C   UNL     1      -5.132  -8.564  10.957  0.00  0.00    +0.127 C 
BRANCH  22  26
ATOM      7  O   UNL     1      -7.373  -9.479  10.914  0.00  0.00    -0.251 OA
ATOM     26  C   UNL     1      -6.412  -9.091  11.566  0.00  0.00    +0.305 C 
BRANCH  26   6
ATOM      6  O   UNL     1      -6.393  -9.085  12.922  0.00  0.00    -0.481 OA
ATOM     35  H   UNL     1      -5.791  -8.396  13.276  0.00  0.00    +0.295 HD
ENDBRANCH  26   6
ENDBRANCH  22  26
ENDBRANCH  18  22
ENDBRANCH  20  18
ENDBRANCH  21  20
ENDBRANCH  13  10
TORSDOF 10
ENDMDL
MODEL 4
REMARK VINA RESULT:      -6.0     15.579     18.770
REMARK  Name = 28960717
REMARK  13 active torsions:
REMARK  status: ('A' for Active; 'I' for Inactive)
REMARK    1  A    between atoms: O_6  and  C_26
REMARK    2  A    between atoms: O_8  and  C_32
REMARK    3  A    between atoms: O_8  and  C_33
REMARK    4  A    between atoms: N_9  and  C_19
REMARK    5  A    between atoms: N_10  and  C_13
REMARK    6  A    between atoms: C_14  and  C_17
REMARK    7  A    between atoms: C_18  and  C_20
REMARK    8  A    between atoms: C_18  and  C_22
REMARK    9  A    between atoms: C_18  and  C_23
REMARK   10  A    between atoms: C_18  and  C_24
REMARK   11  A    between atoms: C_20  and  C_21
REMARK   12  A    between atoms: C_22  and  C_26
REMARK   13  A    between atoms: C_25  and  C_27
REMARK                            x       y       z     vdW  Elec       q    Type
REMARK                         _______ _______ _______ _____ _____    ______ ____
ROOT
ATOM      9  N   UNL     1      11.587   8.605   4.123  0.00  0.00    -0.293 NA
ATOM     13  C   UNL     1      10.095   9.518   5.664  0.00  0.00    +0.089 C 
ATOM     14  C   UNL     1      12.275   9.820   4.602  0.00  0.00    +0.147 C 
ATOM     15  C   UNL     1      11.373  10.354   5.731  0.00  0.00    +0.052 C 
ATOM     16  C   UNL     1      10.154   8.861   4.293  0.00  0.00    +0.107 C 
ATOM     19  C   UNL     1      11.919   8.264   2.745  0.00  0.00    +0.105 C 
ENDROOT
BRANCH  14  17
ATOM      4  O   UNL     1      13.905   9.559   6.404  0.00  0.00    -0.336 OA
ATOM     11  N   UNL     1      14.772   9.353   4.349  0.00  0.00    -0.190 NA
ATOM     12  N   UNL     1      15.272   9.311   6.581  0.00  0.00    -0.056 NA
ATOM     17  C   UNL     1      13.695   9.568   5.061  0.00  0.00    +0.245 A 
ATOM     25  C   UNL     1      15.713   9.201   5.324  0.00  0.00    +0.202 A 
BRANCH  25  27
ATOM     27  C   UNL     1      17.088   8.940   5.011  0.00  0.00    +0.023 A 
ATOM     28  C   UNL     1      18.070   9.095   5.989  0.00  0.00    +0.015 A 
ATOM     29  C   UNL     1      17.445   8.531   3.725  0.00  0.00    +0.015 A 
ATOM     30  C   UNL     1      19.406   8.842   5.683  0.00  0.00    +0.046 A 
ATOM     31  C   UNL     1      18.781   8.277   3.419  0.00  0.00    +0.046 A 
ATOM     32  C   UNL     1      19.762   8.433   4.398  0.00  0.00    +0.130 A 
BRANCH  32   8
ATOM      8  O   UNL     1      21.067   8.185   4.098  0.00  0.00    -0.406 OA
BRANCH   8  33
ATOM      1  F   UNL     1      22.772   6.777   4.548  0.00  0.00    -0.133 F 
ATOM      2  F   UNL     1      20.734   6.054   4.860  0.00  0.00    -0.133 F 
ATOM      3  F   UNL     1      21.514   6.347   2.814  0.00  0.00    -0.133 F 
ATOM     33  C   UNL     1      21.507   6.832   4.073  0.00  0.00    +0.575 C 
ENDBRANCH   8  33
ENDBRANCH  32   8
ENDBRANCH  25  27
ENDBRANCH  14  17
BRANCH  13  10
ATOM      5  O   UNL     1       7.775   8.094   6.596  0.00  0.00    -0.276 OA
ATOM     10  N   UNL     1      10.051   8.531   6.717  0.00  0.00    -0.311 N 
ATOM     21  C   UNL     1       8.880   7.896   7.096  0.00  0.00    +0.214 C 
ATOM     34  H   UNL     1      10.918   8.305   7.189  0.00  0.00    +0.149 HD
BRANCH  21  20
ATOM     20  C   UNL     1       9.081   6.894   8.221  0.00  0.00    +0.102 C 
BRANCH  20  18
ATOM     18  C   UNL     1       9.828   5.598   7.812  0.00  0.00    -0.017 C 
ATOM     23  C   UNL     1       9.512   5.236   6.345  0.00  0.00    +0.012 C 
ATOM     24  C   UNL     1      11.344   5.874   7.903  0.00  0.00    +0.012 C 
BRANCH  18  22
ATOM     22  C   UNL     1       9.454   4.384   8.695  0.00  0.00    +0.127 C 
BRANCH  22  26
ATOM      7  O   UNL     1      10.488   4.754  10.852  0.00  0.00    -0.251 OA
ATOM     26  C   UNL     1       9.468   4.652  10.183  0.00  0.00    +0.305 C 
BRANCH  26   6
ATOM      6  O   UNL     1       8.223   4.763  10.711  0.00  0.00    -0.481 OA
ATOM     35  H   UNL     1       7.540   4.880  10.016  0.00  0.00    +0.295 HD
ENDBRANCH  26   6
ENDBRANCH  22  26
ENDBRANCH  18  22
ENDBRANCH  20  18
ENDBRANCH  21  20
ENDBRANCH  13  10
TORSDOF 10
ENDMDL
MODEL 5
REMARK VINA RESULT:      -5.9     29.531     32.089
REMARK  Name = 28960717
REMARK  13 active torsions:
REMARK  status: ('A' for Active; 'I' for Inactive)
REMARK    1  A    between atoms: O_6  and  C_26
REMARK    2  A    between atoms: O_8  and  C_32
REMARK    3  A    between atoms: O_8  and  C_33
REMARK    4  A    between atoms: N_9  and  C_19
REMARK    5  A    between atoms: N_10  and  C_13
REMARK    6  A    between atoms: C_14  and  C_17
REMARK    7  A    between atoms: C_18  and  C_20
REMARK    8  A    between atoms: C_18  and  C_22
REMARK    9  A    between atoms: C_18  and  C_23
REMARK   10  A    between atoms: C_18  and  C_24
REMARK   11  A    between atoms: C_20  and  C_21
REMARK   12  A    between atoms: C_22  and  C_26
REMARK   13  A    between atoms: C_25  and  C_27
REMARK                            x       y       z     vdW  Elec       q    Type
REMARK                         _______ _______ _______ _____ _____    ______ ____
ROOT
ATOM      9  N   UNL     1      -3.573 -12.096  11.619  0.00  0.00    -0.293 NA
ATOM     13  C   UNL     1      -3.281 -10.241  10.239  0.00  0.00    +0.089 C 
ATOM     14  C   UNL     1      -2.559 -11.289  12.324  0.00  0.00    +0.147 C 
ATOM     15  C   UNL     1      -2.463  -9.987  11.505  0.00  0.00    +0.052 C 
ATOM     16  C   UNL     1      -3.445 -11.753  10.200  0.00  0.00    +0.107 C 
ATOM     19  C   UNL     1      -3.427 -13.529  11.848  0.00  0.00    +0.105 C 
ENDROOT
BRANCH  14  17
ATOM      4  O   UNL     1      -1.864 -10.637  14.575  0.00  0.00    -0.336 OA
ATOM     11  N   UNL     1      -4.037 -11.151  14.400  0.00  0.00    -0.190 NA
ATOM     12  N   UNL     1      -2.408 -10.473  15.855  0.00  0.00    -0.056 NA
ATOM     17  C   UNL     1      -2.891 -11.038  13.779  0.00  0.00    +0.245 A 
ATOM     25  C   UNL     1      -3.692 -10.794  15.671  0.00  0.00    +0.202 A 
BRANCH  25  27
ATOM     27  C   UNL     1      -4.653 -10.767  16.734  0.00  0.00    +0.023 A 
ATOM     28  C   UNL     1      -4.441 -11.523  17.887  0.00  0.00    +0.015 A 
ATOM     29  C   UNL     1      -5.802  -9.985  16.616  0.00  0.00    +0.015 A 
ATOM     30  C   UNL     1      -5.377 -11.498  18.920  0.00  0.00    +0.046 A 
ATOM     31  C   UNL     1      -6.738  -9.959  17.650  0.00  0.00    +0.046 A 
ATOM     32  C   UNL     1      -6.526 -10.715  18.802  0.00  0.00    +0.130 A 
BRANCH  32   8
ATOM      8  O   UNL     1      -7.440 -10.690  19.811  0.00  0.00    -0.406 OA
BRANCH   8  33
ATOM      1  F   UNL     1      -8.847 -11.769  18.414  0.00  0.00    -0.133 F 
ATOM      2  F   UNL     1      -8.310 -12.751  20.290  0.00  0.00    -0.133 F 
ATOM      3  F   UNL     1      -9.654 -10.997  20.292  0.00  0.00    -0.133 F 
ATOM     33  C   UNL     1      -8.567 -11.555  19.720  0.00  0.00    +0.575 C 
ENDBRANCH   8  33
ENDBRANCH  32   8
ENDBRANCH  25  27
ENDBRANCH  14  17
BRANCH  13  10
ATOM      5  O   UNL     1      -4.916  -9.468   8.000  0.00  0.00    -0.276 OA
ATOM     10  N   UNL     1      -4.561  -9.575  10.291  0.00  0.00    -0.311 N 
ATOM     21  C   UNL     1      -5.277  -9.242   9.153  0.00  0.00    +0.214 C 
ATOM     34  H   UNL     1      -4.938  -9.347  11.204  0.00  0.00    +0.149 HD
BRANCH  21  20
ATOM     20  C   UNL     1      -6.597  -8.554   9.458  0.00  0.00    +0.102 C 
BRANCH  20  18
ATOM     18  C   UNL     1      -7.859  -9.398   9.142  0.00  0.00    -0.017 C 
ATOM     23  C   UNL     1      -7.615 -10.881   9.491  0.00  0.00    +0.012 C 
ATOM     24  C   UNL     1      -9.006  -8.894  10.045  0.00  0.00    +0.012 C 
BRANCH  18  22
ATOM     22  C   UNL     1      -8.279  -9.319   7.655  0.00  0.00    +0.127 C 
BRANCH  22  26
ATOM      7  O   UNL     1      -8.527  -6.956   7.187  0.00  0.00    -0.251 OA
ATOM     26  C   UNL     1      -7.947  -8.012   6.970  0.00  0.00    +0.305 C 
BRANCH  26   6
ATOM      6  O   UNL     1      -6.936  -8.129   6.073  0.00  0.00    -0.481 OA
ATOM     35  H   UNL     1      -6.255  -8.771   6.371  0.00  0.00    +0.295 HD
ENDBRANCH  26   6
ENDBRANCH  22  26
ENDBRANCH  18  22
ENDBRANCH  20  18
ENDBRANCH  21  20
ENDBRANCH  13  10
TORSDOF 10
ENDMDL
MODEL 6
REMARK VINA RESULT:      -5.9     30.801     34.004
REMARK  Name = 28960717
REMARK  13 active torsions:
REMARK  status: ('A' for Active; 'I' for Inactive)
REMARK    1  A    between atoms: O_6  and  C_26
REMARK    2  A    between atoms: O_8  and  C_32
REMARK    3  A    between atoms: O_8  and  C_33
REMARK    4  A    between atoms: N_9  and  C_19
REMARK    5  A    between atoms: N_10  and  C_13
REMARK    6  A    between atoms: C_14  and  C_17
REMARK    7  A    between atoms: C_18  and  C_20
REMARK    8  A    between atoms: C_18  and  C_22
REMARK    9  A    between atoms: C_18  and  C_23
REMARK   10  A    between atoms: C_18  and  C_24
REMARK   11  A    between atoms: C_20  and  C_21
REMARK   12  A    between atoms: C_22  and  C_26
REMARK   13  A    between atoms: C_25  and  C_27
REMARK                            x       y       z     vdW  Elec       q    Type
REMARK                         _______ _______ _______ _____ _____    ______ ____
ROOT
ATOM      9  N   UNL     1     -10.819 -11.010  17.127  0.00  0.00    -0.293 NA
ATOM     13  C   UNL     1      -9.831 -10.856  19.232  0.00  0.00    +0.089 C 
ATOM     14  C   UNL     1     -11.593  -9.950  17.802  0.00  0.00    +0.147 C 
ATOM     15  C   UNL     1     -10.858  -9.729  19.139  0.00  0.00    +0.052 C 
ATOM     16  C   UNL     1     -10.295 -11.867  18.194  0.00  0.00    +0.107 C 
ATOM     19  C   UNL     1     -11.605 -11.766  16.159  0.00  0.00    +0.105 C 
ENDROOT
BRANCH  14  17
ATOM      4  O   UNL     1     -10.645  -7.842  17.007  0.00  0.00    -0.336 OA
ATOM     11  N   UNL     1     -12.714  -8.257  16.255  0.00  0.00    -0.190 NA
ATOM     12  N   UNL     1     -10.989  -6.755  16.195  0.00  0.00    -0.056 NA
ATOM     17  C   UNL     1     -11.716  -8.680  16.988  0.00  0.00    +0.245 A 
ATOM     25  C   UNL     1     -12.222  -7.073  15.788  0.00  0.00    +0.202 A 
BRANCH  25  27
ATOM     27  C   UNL     1     -12.988  -6.230  14.917  0.00  0.00    +0.023 A 
ATOM     28  C   UNL     1     -12.362  -5.206  14.208  0.00  0.00    +0.015 A 
ATOM     29  C   UNL     1     -14.361  -6.435  14.778  0.00  0.00    +0.015 A 
ATOM     30  C   UNL     1     -13.108  -4.385  13.362  0.00  0.00    +0.046 A 
ATOM     31  C   UNL     1     -15.107  -5.616  13.931  0.00  0.00    +0.046 A 
ATOM     32  C   UNL     1     -14.481  -4.591  13.224  0.00  0.00    +0.130 A 
BRANCH  32   8
ATOM      8  O   UNL     1     -15.210  -3.791  12.397  0.00  0.00    -0.406 OA
BRANCH   8  33
ATOM      1  F   UNL     1     -14.174  -3.158  10.494  0.00  0.00    -0.133 F 
ATOM      2  F   UNL     1     -14.715  -5.263  10.718  0.00  0.00    -0.133 F 
ATOM      3  F   UNL     1     -16.277  -3.738  10.376  0.00  0.00    -0.133 F 
ATOM     33  C   UNL     1     -15.107  -4.001  10.993  0.00  0.00    +0.575 C 
ENDBRANCH   8  33
ENDBRANCH  32   8
ENDBRANCH  25  27
ENDBRANCH  14  17
BRANCH  13  10
ATOM      5  O   UNL     1      -7.358 -12.053  20.087  0.00  0.00    -0.276 OA
ATOM     10  N   UNL     1      -8.497 -10.384  18.946  0.00  0.00    -0.311 N 
ATOM     21  C   UNL     1      -7.362 -11.032  19.404  0.00  0.00    +0.214 C 
ATOM     34  H   UNL     1      -8.403  -9.543  18.388  0.00  0.00    +0.149 HD
BRANCH  21  20
ATOM     20  C   UNL     1      -6.072 -10.353  18.971  0.00  0.00    +0.102 C 
BRANCH  20  18
ATOM     18  C   UNL     1      -5.483 -10.867  17.632  0.00  0.00    -0.017 C 
ATOM     23  C   UNL     1      -6.372 -11.985  17.048  0.00  0.00    +0.012 C 
ATOM     24  C   UNL     1      -5.496  -9.695  16.627  0.00  0.00    +0.012 C 
BRANCH  18  22
ATOM     22  C   UNL     1      -4.048 -11.426  17.780  0.00  0.00    +0.127 C 
BRANCH  22  26
ATOM      7  O   UNL     1      -3.419 -12.139  20.007  0.00  0.00    -0.251 OA
ATOM     26  C   UNL     1      -3.867 -12.422  18.904  0.00  0.00    +0.305 C 
BRANCH  26   6
ATOM      6  O   UNL     1      -4.249 -13.678  18.561  0.00  0.00    -0.481 OA
ATOM     35  H   UNL     1      -4.495 -13.740  17.613  0.00  0.00    +0.295 HD
ENDBRANCH  26   6
ENDBRANCH  22  26
ENDBRANCH  18  22
ENDBRANCH  20  18
ENDBRANCH  21  20
ENDBRANCH  13  10
TORSDOF 10
ENDMDL
MODEL 7
REMARK VINA RESULT:      -5.9     30.395     35.294
REMARK  Name = 28960717
REMARK  13 active torsions:
REMARK  status: ('A' for Active; 'I' for Inactive)
REMARK    1  A    between atoms: O_6  and  C_26
REMARK    2  A    between atoms: O_8  and  C_32
REMARK    3  A    between atoms: O_8  and  C_33
REMARK    4  A    between atoms: N_9  and  C_19
REMARK    5  A    between atoms: N_10  and  C_13
REMARK    6  A    between atoms: C_14  and  C_17
REMARK    7  A    between atoms: C_18  and  C_20
REMARK    8  A    between atoms: C_18  and  C_22
REMARK    9  A    between atoms: C_18  and  C_23
REMARK   10  A    between atoms: C_18  and  C_24
REMARK   11  A    between atoms: C_20  and  C_21
REMARK   12  A    between atoms: C_22  and  C_26
REMARK   13  A    between atoms: C_25  and  C_27
REMARK                            x       y       z     vdW  Elec       q    Type
REMARK                         _______ _______ _______ _____ _____    ______ ____
ROOT
ATOM      9  N   UNL     1     -12.145 -12.177  18.884  0.00  0.00    -0.293 NA
ATOM     13  C   UNL     1     -13.325 -10.904  20.439  0.00  0.00    +0.089 C 
ATOM     14  C   UNL     1     -11.491 -10.855  18.827  0.00  0.00    +0.147 C 
ATOM     15  C   UNL     1     -12.158 -10.045  19.955  0.00  0.00    +0.052 C 
ATOM     16  C   UNL     1     -13.519 -11.927  19.330  0.00  0.00    +0.107 C 
ATOM     19  C   UNL     1     -12.107 -12.892  17.614  0.00  0.00    +0.105 C 
ENDROOT
BRANCH  14  17
ATOM      4  O   UNL     1      -9.505 -11.211  20.206  0.00  0.00    -0.336 OA
ATOM     11  N   UNL     1      -9.058 -10.736  18.063  0.00  0.00    -0.190 NA
ATOM     12  N   UNL     1      -8.109 -11.214  20.088  0.00  0.00    -0.056 NA
ATOM     17  C   UNL     1      -9.985 -10.920  18.967  0.00  0.00    +0.245 A 
ATOM     25  C   UNL     1      -7.924 -10.926  18.796  0.00  0.00    +0.202 A 
BRANCH  25  27
ATOM     27  C   UNL     1      -6.620 -10.822  18.209  0.00  0.00    +0.023 A 
ATOM     28  C   UNL     1      -6.422 -10.022  17.084  0.00  0.00    +0.015 A 
ATOM     29  C   UNL     1      -5.548 -11.522  18.764  0.00  0.00    +0.015 A 
ATOM     30  C   UNL     1      -5.154  -9.923  16.512  0.00  0.00    +0.046 A 
ATOM     31  C   UNL     1      -4.279 -11.421  18.193  0.00  0.00    +0.046 A 
ATOM     32  C   UNL     1      -4.082 -10.622  17.067  0.00  0.00    +0.130 A 
BRANCH  32   8
ATOM      8  O   UNL     1      -2.843 -10.525  16.510  0.00  0.00    -0.406 OA
BRANCH   8  33
ATOM      1  F   UNL     1      -1.297 -11.507  15.192  0.00  0.00    -0.133 F 
ATOM      2  F   UNL     1      -3.320 -12.332  15.190  0.00  0.00    -0.133 F 
ATOM      3  F   UNL     1      -2.905 -10.386  14.229  0.00  0.00    -0.133 F 
ATOM     33  C   UNL     1      -2.609 -11.188  15.273  0.00  0.00    +0.575 C 
ENDBRANCH   8  33
ENDBRANCH  32   8
ENDBRANCH  25  27
ENDBRANCH  14  17
BRANCH  13  10
ATOM      5  O   UNL     1     -15.222 -11.923  22.349  0.00  0.00    -0.276 OA
ATOM     10  N   UNL     1     -13.026 -11.546  21.698  0.00  0.00    -0.311 N 
ATOM     21  C   UNL     1     -14.013 -12.005  22.555  0.00  0.00    +0.214 C 
ATOM     34  H   UNL     1     -12.052 -11.656  21.952  0.00  0.00    +0.149 HD
BRANCH  21  20
ATOM     20  C   UNL     1     -13.457 -12.649  23.814  0.00  0.00    +0.102 C 
BRANCH  20  18
ATOM     18  C   UNL     1     -13.120 -14.157  23.680  0.00  0.00    -0.017 C 
ATOM     23  C   UNL     1     -13.597 -14.928  24.930  0.00  0.00    +0.012 C 
ATOM     24  C   UNL     1     -13.901 -14.713  22.470  0.00  0.00    +0.012 C 
BRANCH  18  22
ATOM     22  C   UNL     1     -11.606 -14.422  23.504  0.00  0.00    +0.127 C 
BRANCH  22  26
ATOM      7  O   UNL     1     -11.012 -15.610  21.481  0.00  0.00    -0.251 OA
ATOM     26  C   UNL     1     -11.146 -14.545  22.069  0.00  0.00    +0.305 C 
BRANCH  26   6
ATOM      6  O   UNL     1     -10.884 -13.345  21.494  0.00  0.00    -0.481 OA
ATOM     35  H   UNL     1     -10.079 -12.927  21.868  0.00  0.00    +0.295 HD
ENDBRANCH  26   6
ENDBRANCH  22  26
ENDBRANCH  18  22
ENDBRANCH  20  18
ENDBRANCH  21  20
ENDBRANCH  13  10
TORSDOF 10
ENDMDL
MODEL 8
REMARK VINA RESULT:      -5.9     19.703     22.106
REMARK  Name = 28960717
REMARK  13 active torsions:
REMARK  status: ('A' for Active; 'I' for Inactive)
REMARK    1  A    between atoms: O_6  and  C_26
REMARK    2  A    between atoms: O_8  and  C_32
REMARK    3  A    between atoms: O_8  and  C_33
REMARK    4  A    between atoms: N_9  and  C_19
REMARK    5  A    between atoms: N_10  and  C_13
REMARK    6  A    between atoms: C_14  and  C_17
REMARK    7  A    between atoms: C_18  and  C_20
REMARK    8  A    between atoms: C_18  and  C_22
REMARK    9  A    between atoms: C_18  and  C_23
REMARK   10  A    between atoms: C_18  and  C_24
REMARK   11  A    between atoms: C_20  and  C_21
REMARK   12  A    between atoms: C_22  and  C_26
REMARK   13  A    between atoms: C_25  and  C_27
REMARK                            x       y       z     vdW  Elec       q    Type
REMARK                         _______ _______ _______ _____ _____    ______ ____
ROOT
ATOM      9  N   UNL     1      14.190   4.774  -0.190  0.00  0.00    -0.293 NA
ATOM     13  C   UNL     1      13.685   6.402  -1.780  0.00  0.00    +0.089 C 
ATOM     14  C   UNL     1      13.761   5.933   0.616  0.00  0.00    +0.147 C 
ATOM     15  C   UNL     1      13.278   6.967  -0.420  0.00  0.00    +0.052 C 
ATOM     16  C   UNL     1      14.708   5.327  -1.444  0.00  0.00    +0.107 C 
ATOM     19  C   UNL     1      15.176   3.939   0.485  0.00  0.00    +0.105 C 
ENDROOT
BRANCH  14  17
ATOM      4  O   UNL     1      11.773   4.671   1.271  0.00  0.00    -0.336 OA
ATOM     11  N   UNL     1      12.531   6.067   2.849  0.00  0.00    -0.190 NA
ATOM     12  N   UNL     1      10.909   4.528   2.364  0.00  0.00    -0.056 NA
ATOM     17  C   UNL     1      12.698   5.596   1.640  0.00  0.00    +0.245 A 
ATOM     25  C   UNL     1      11.422   5.383   3.254  0.00  0.00    +0.202 A 
BRANCH  25  27
ATOM     27  C   UNL     1      10.850   5.576   4.555  0.00  0.00    +0.023 A 
ATOM     28  C   UNL     1      11.588   6.210   5.555  0.00  0.00    +0.015 A 
ATOM     29  C   UNL     1       9.555   5.131   4.821  0.00  0.00    +0.015 A 
ATOM     30  C   UNL     1      11.032   6.396   6.820  0.00  0.00    +0.046 A 
ATOM     31  C   UNL     1       8.999   5.318   6.086  0.00  0.00    +0.046 A 
ATOM     32  C   UNL     1       9.737   5.950   7.085  0.00  0.00    +0.130 A 
BRANCH  32   8
ATOM      8  O   UNL     1       9.193   6.132   8.321  0.00  0.00    -0.406 OA
BRANCH   8  33
ATOM      1  F   UNL     1      10.527   5.401   9.987  0.00  0.00    -0.133 F 
ATOM      2  F   UNL     1       8.374   5.085  10.183  0.00  0.00    -0.133 F 
ATOM      3  F   UNL     1       9.548   3.910   8.725  0.00  0.00    -0.133 F 
ATOM     33  C   UNL     1       9.396   5.121   9.301  0.00  0.00    +0.575 C 
ENDBRANCH   8  33
ENDBRANCH  32   8
ENDBRANCH  25  27
ENDBRANCH  14  17
BRANCH  13  10
ATOM      5  O   UNL     1      13.336   6.247  -4.632  0.00  0.00    -0.276 OA
ATOM     10  N   UNL     1      12.553   5.847  -2.484  0.00  0.00    -0.311 N 
ATOM     21  C   UNL     1      12.476   5.817  -3.867  0.00  0.00    +0.214 C 
ATOM     34  H   UNL     1      11.792   5.470  -1.932  0.00  0.00    +0.149 HD
BRANCH  21  20
ATOM     20  C   UNL     1      11.194   5.180  -4.379  0.00  0.00    +0.102 C 
BRANCH  20  18
ATOM     18  C   UNL     1      11.238   3.635  -4.499  0.00  0.00    -0.017 C 
ATOM     23  C   UNL     1      10.551   3.177  -5.804  0.00  0.00    +0.012 C 
ATOM     24  C   UNL     1      12.719   3.206  -4.582  0.00  0.00    +0.012 C 
BRANCH  18  22
ATOM     22  C   UNL     1      10.542   2.920  -3.317  0.00  0.00    +0.127 C 
BRANCH  22  26
ATOM      7  O   UNL     1      11.998   1.402  -2.118  0.00  0.00    -0.251 OA
ATOM     26  C   UNL     1      11.466   2.502  -2.195  0.00  0.00    +0.305 C 
BRANCH  26   6
ATOM      6  O   UNL     1      11.642   3.476  -1.267  0.00  0.00    -0.481 OA
ATOM     35  H   UNL     1      10.965   4.182  -1.344  0.00  0.00    +0.295 HD
ENDBRANCH  26   6
ENDBRANCH  22  26
ENDBRANCH  18  22
ENDBRANCH  20  18
ENDBRANCH  21  20
ENDBRANCH  13  10
TORSDOF 10
ENDMDL
MODEL 9
REMARK VINA RESULT:      -5.9      2.120      2.967
REMARK  Name = 28960717
REMARK  13 active torsions:
REMARK  status: ('A' for Active; 'I' for Inactive)
REMARK    1  A    between atoms: O_6  and  C_26
REMARK    2  A    between atoms: O_8  and  C_32
REMARK    3  A    between atoms: O_8  and  C_33
REMARK    4  A    between atoms: N_9  and  C_19
REMARK    5  A    between atoms: N_10  and  C_13
REMARK    6  A    between atoms: C_14  and  C_17
REMARK    7  A    between atoms: C_18  and  C_20
REMARK    8  A    between atoms: C_18  and  C_22
REMARK    9  A    between atoms: C_18  and  C_23
REMARK   10  A    between atoms: C_18  and  C_24
REMARK   11  A    between atoms: C_20  and  C_21
REMARK   12  A    between atoms: C_22  and  C_26
REMARK   13  A    between atoms: C_25  and  C_27
REMARK                            x       y       z     vdW  Elec       q    Type
REMARK                         _______ _______ _______ _____ _____    ______ ____
ROOT
ATOM      9  N   UNL     1      23.917   6.087  22.717  0.00  0.00    -0.293 NA
ATOM     13  C   UNL     1      24.895   4.592  21.220  0.00  0.00    +0.089 C 
ATOM     14  C   UNL     1      23.251   6.386  21.434  0.00  0.00    +0.147 C 
ATOM     15  C   UNL     1      23.774   5.307  20.466  0.00  0.00    +0.052 C 
ATOM     16  C   UNL     1      25.228   5.532  22.369  0.00  0.00    +0.107 C 
ATOM     19  C   UNL     1      24.032   7.250  23.588  0.00  0.00    +0.105 C 
ENDROOT
BRANCH  14  17
ATOM      4  O   UNL     1      21.204   6.046  22.725  0.00  0.00    -0.336 OA
ATOM     11  N   UNL     1      20.856   6.710  20.614  0.00  0.00    -0.190 NA
ATOM     12  N   UNL     1      19.815   6.135  22.569  0.00  0.00    -0.056 NA
ATOM     17  C   UNL     1      21.741   6.402  21.527  0.00  0.00    +0.245 A 
ATOM     25  C   UNL     1      19.689   6.533  21.299  0.00  0.00    +0.202 A 
BRANCH  25  27
ATOM     27  C   UNL     1      18.413   6.761  20.686  0.00  0.00    +0.023 A 
ATOM     28  C   UNL     1      17.933   5.874  19.722  0.00  0.00    +0.015 A 
ATOM     29  C   UNL     1      17.651   7.870  21.053  0.00  0.00    +0.015 A 
ATOM     30  C   UNL     1      16.692   6.097  19.125  0.00  0.00    +0.046 A 
ATOM     31  C   UNL     1      16.410   8.093  20.457  0.00  0.00    +0.046 A 
ATOM     32  C   UNL     1      15.931   7.207  19.493  0.00  0.00    +0.130 A 
BRANCH  32   8
ATOM      8  O   UNL     1      14.719   7.425  18.911  0.00  0.00    -0.406 OA
BRANCH   8  33
ATOM      1  F   UNL     1      13.083   8.369  20.146  0.00  0.00    -0.133 F 
ATOM      2  F   UNL     1      12.577   6.622  18.935  0.00  0.00    -0.133 F 
ATOM      3  F   UNL     1      13.821   6.402  20.748  0.00  0.00    -0.133 F 
ATOM     33  C   UNL     1      13.548   7.186  19.684  0.00  0.00    +0.575 C 
ENDBRANCH   8  33
ENDBRANCH  32   8
ENDBRANCH  25  27
ENDBRANCH  14  17
BRANCH  13  10
ATOM      5  O   UNL     1      26.491   2.203  21.396  0.00  0.00    -0.276 OA
ATOM     10  N   UNL     1      24.469   3.301  21.705  0.00  0.00    -0.311 N 
ATOM     21  C   UNL     1      25.314   2.204  21.752  0.00  0.00    +0.214 C 
ATOM     34  H   UNL     1      23.511   3.207  22.020  0.00  0.00    +0.149 HD
BRANCH  21  20
ATOM     20  C   UNL     1      24.645   0.957  22.305  0.00  0.00    +0.102 C 
BRANCH  20  18
ATOM     18  C   UNL     1      24.623   0.861  23.853  0.00  0.00    -0.017 C 
ATOM     23  C   UNL     1      25.358  -0.411  24.323  0.00  0.00    +0.012 C 
ATOM     24  C   UNL     1      25.395   2.075  24.414  0.00  0.00    +0.012 C 
BRANCH  18  22
ATOM     22  C   UNL     1      23.190   0.827  24.433  0.00  0.00    +0.127 C 
BRANCH  22  26
ATOM      7  O   UNL     1      22.276   2.910  23.603  0.00  0.00    -0.251 OA
ATOM     26  C   UNL     1      22.521   2.179  24.554  0.00  0.00    +0.305 C 
BRANCH  26   6
ATOM      6  O   UNL     1      22.222   2.506  25.836  0.00  0.00    -0.481 OA
ATOM     35  H   UNL     1      21.296   2.280  26.066  0.00  0.00    +0.295 HD
ENDBRANCH  26   6
ENDBRANCH  22  26
ENDBRANCH  18  22
ENDBRANCH  20  18
ENDBRANCH  21  20
ENDBRANCH  13  10
TORSDOF 10
ENDMDL
MODEL 10
REMARK VINA RESULT:      -5.8     29.590     31.993
REMARK  Name = 28960717
REMARK  13 active torsions:
REMARK  status: ('A' for Active; 'I' for Inactive)
REMARK    1  A    between atoms: O_6  and  C_26
REMARK    2  A    between atoms: O_8  and  C_32
REMARK    3  A    between atoms: O_8  and  C_33
REMARK    4  A    between atoms: N_9  and  C_19
REMARK    5  A    between atoms: N_10  and  C_13
REMARK    6  A    between atoms: C_14  and  C_17
REMARK    7  A    between atoms: C_18  and  C_20
REMARK    8  A    between atoms: C_18  and  C_22
REMARK    9  A    between atoms: C_18  and  C_23
REMARK   10  A    between atoms: C_18  and  C_24
REMARK   11  A    between atoms: C_20  and  C_21
REMARK   12  A    between atoms: C_22  and  C_26
REMARK   13  A    between atoms: C_25  and  C_27
REMARK                            x       y       z     vdW  Elec       q    Type
REMARK                         _______ _______ _______ _____ _____    ______ ____
ROOT
ATOM      9  N   UNL     1      -3.687 -11.830  11.162  0.00  0.00    -0.293 NA
ATOM     13  C   UNL     1      -3.653  -9.906   9.848  0.00  0.00    +0.089 C 
ATOM     14  C   UNL     1      -2.676 -10.976  11.815  0.00  0.00    +0.147 C 
ATOM     15  C   UNL     1      -2.748  -9.639  11.050  0.00  0.00    +0.052 C 
ATOM     16  C   UNL     1      -3.709 -11.423   9.754  0.00  0.00    +0.107 C 
ATOM     19  C   UNL     1      -3.417 -13.255  11.313  0.00  0.00    +0.105 C 
ENDROOT
BRANCH  14  17
ATOM      4  O   UNL     1      -1.802 -10.497  14.046  0.00  0.00    -0.336 OA
ATOM     11  N   UNL     1      -4.001 -10.919  13.996  0.00  0.00    -0.190 NA
ATOM     12  N   UNL     1      -2.249 -10.395  15.370  0.00  0.00    -0.056 NA
ATOM     17  C   UNL     1      -2.897 -10.808  13.303  0.00  0.00    +0.245 A 
ATOM     25  C   UNL     1      -3.554 -10.657  15.258  0.00  0.00    +0.202 A 
BRANCH  25  27
ATOM     27  C   UNL     1      -4.438 -10.664  16.387  0.00  0.00    +0.023 A 
ATOM     28  C   UNL     1      -5.628  -9.937  16.348  0.00  0.00    +0.015 A 
ATOM     29  C   UNL     1      -4.109 -11.400  17.526  0.00  0.00    +0.015 A 
ATOM     30  C   UNL     1      -6.487  -9.944  17.447  0.00  0.00    +0.046 A 
ATOM     31  C   UNL     1      -4.968 -11.408  18.625  0.00  0.00    +0.046 A 
ATOM     32  C   UNL     1      -6.156 -10.680  18.585  0.00  0.00    +0.130 A 
BRANCH  32   8
ATOM      8  O   UNL     1      -6.994 -10.687  19.659  0.00  0.00    -0.406 OA
BRANCH   8  33
ATOM      1  F   UNL     1      -8.253 -12.092  18.419  0.00  0.00    -0.133 F 
ATOM      2  F   UNL     1      -7.752 -12.692  20.460  0.00  0.00    -0.133 F 
ATOM      3  F   UNL     1      -9.206 -11.068  20.098  0.00  0.00    -0.133 F 
ATOM     33  C   UNL     1      -8.056 -11.635  19.677  0.00  0.00    +0.575 C 
ENDBRANCH   8  33
ENDBRANCH  32   8
ENDBRANCH  25  27
ENDBRANCH  14  17
BRANCH  13  10
ATOM      5  O   UNL     1      -5.610  -9.368   7.808  0.00  0.00    -0.276 OA
ATOM     10  N   UNL     1      -4.969  -9.343  10.038  0.00  0.00    -0.311 N 
ATOM     21  C   UNL     1      -5.845  -9.120   8.989  0.00  0.00    +0.214 C 
ATOM     34  H   UNL     1      -5.249  -9.105  10.982  0.00  0.00    +0.149 HD
BRANCH  21  20
ATOM     20  C   UNL     1      -7.171  -8.526   9.434  0.00  0.00    +0.102 C 
BRANCH  20  18
ATOM     18  C   UNL     1      -8.201  -9.557   9.964  0.00  0.00    -0.017 C 
ATOM     23  C   UNL     1      -9.629  -9.161   9.533  0.00  0.00    +0.012 C 
ATOM     24  C   UNL     1      -7.885 -10.922   9.314  0.00  0.00    +0.012 C 
BRANCH  18  22
ATOM     22  C   UNL     1      -8.185  -9.686  11.505  0.00  0.00    +0.127 C 
BRANCH  22  26
ATOM      7  O   UNL     1      -8.300 -11.974  12.288  0.00  0.00    -0.251 OA
ATOM     26  C   UNL     1      -7.622 -10.988  12.029  0.00  0.00    +0.305 C 
BRANCH  26   6
ATOM      6  O   UNL     1      -6.275 -10.953  12.192  0.00  0.00    -0.481 OA
ATOM     35  H   UNL     1      -5.817 -11.582  11.594  0.00  0.00    +0.295 HD
ENDBRANCH  26   6
ENDBRANCH  22  26
ENDBRANCH  18  22
ENDBRANCH  20  18
ENDBRANCH  21  20
ENDBRANCH  13  10
TORSDOF 10
ENDMDL
