MODEL 1
REMARK VINA RESULT:      -7.5      0.000      0.000
REMARK  Name = 45784039
REMARK  11 active torsions:
REMARK  status: ('A' for Active; 'I' for Inactive)
REMARK    1  A    between atoms: O_3  and  C_29
REMARK    2  A    between atoms: O_3  and  C_33
REMARK    3  A    between atoms: N_4  and  C_15
REMARK    4  A    between atoms: C_10  and  C_14
REMARK    5  A    between atoms: C_11  and  C_15
REMARK    6  A    between atoms: C_13  and  C_18
REMARK    7  A    between atoms: C_14  and  C_19
REMARK    8  A    between atoms: C_14  and  C_20
REMARK    9  A    between atoms: C_17  and  C_23
REMARK   10  A    between atoms: C_18  and  C_26
REMARK   11  A    between atoms: C_28  and  C_29
REMARK                            x       y       z     vdW  Elec       q    Type
REMARK                         _______ _______ _______ _____ _____    ______ ____
ROOT
ATOM     10  C   UNL     1      -7.573 -12.016  16.865  0.00  0.00    +0.000 C 
ATOM     11  C   UNL     1      -7.743 -11.968  18.401  0.00  0.00    +0.029 C 
ATOM     12  C   UNL     1      -6.413 -11.112  16.424  0.00  0.00    +0.012 C 
ATOM     13  C   UNL     1      -5.071 -11.465  17.100  0.00  0.00    +0.024 C 
ATOM     16  C   UNL     1      -6.427 -12.047  19.132  0.00  0.00    -0.023 C 
ATOM     17  C   UNL     1      -5.224 -11.838  18.567  0.00  0.00    -0.073 C 
ATOM     23  C   UNL     1      -3.966 -12.028  19.370  0.00  0.00    +0.039 C 
ENDROOT
BRANCH  10  14
ATOM     14  C   UNL     1      -7.375 -13.454  16.368  0.00  0.00    -0.013 C 
ATOM     19  C   UNL     1      -8.451 -14.370  16.945  0.00  0.00    +0.007 C 
ATOM     20  C   UNL     1      -7.388 -13.498  14.843  0.00  0.00    +0.007 C 
ENDBRANCH  10  14
BRANCH  11  15
ATOM     15  C   UNL     1      -8.493 -10.710  18.848  0.00  0.00    +0.092 C 
BRANCH  15   4
ATOM      4  N   UNL     1      -9.335 -10.198  17.768  0.00  0.00    -0.299 NA
ATOM      5  N   UNL     1     -11.230  -8.444  16.546  0.00  0.00    -0.297 N 
ATOM      8  N   UNL     1     -13.377  -8.213  15.656  0.00  0.00    -0.223 NA
ATOM      9  N   UNL     1     -11.747  -6.451  15.444  0.00  0.00    -0.223 NA
ATOM     21  C   UNL     1     -10.752 -10.255  18.148  0.00  0.00    +0.103 C 
ATOM     22  C   UNL     1      -8.963  -8.819  17.433  0.00  0.00    +0.103 C 
ATOM     24  C   UNL     1     -11.647  -9.775  17.004  0.00  0.00    +0.123 C 
ATOM     25  C   UNL     1      -9.799  -8.290  16.266  0.00  0.00    +0.123 C 
ATOM     27  C   UNL     1     -12.162  -7.667  15.849  0.00  0.00    +0.218 A 
ATOM     30  C   UNL     1     -14.250  -7.437  14.982  0.00  0.00    +0.116 A 
ATOM     31  C   UNL     1     -12.670  -5.729  14.775  0.00  0.00    +0.116 A 
ATOM     32  C   UNL     1     -13.949  -6.173  14.513  0.00  0.00    +0.039 A 
ENDBRANCH  15   4
ENDBRANCH  11  15
BRANCH  13  18
ATOM     18  C   UNL     1      -4.091 -10.307  16.878  0.00  0.00    +0.105 C 
BRANCH  18  26
ATOM      2  O   UNL     1      -3.225 -10.974  14.696  0.00  0.00    -0.421 OA
ATOM      6  N   UNL     1      -1.675 -10.880  16.307  0.00  0.00    -0.112 NA
ATOM      7  N   UNL     1      -1.051 -11.267  15.135  0.00  0.00    -0.109 NA
ATOM     26  C   UNL     1      -2.942 -10.720  16.004  0.00  0.00    +0.218 A 
ATOM     28  C   UNL     1      -1.993 -11.308  14.223  0.00  0.00    +0.254 A 
BRANCH  28  29
ATOM     29  C   UNL     1      -1.902 -11.653  12.799  0.00  0.00    +0.326 C 
BRANCH  29   3
ATOM      3  O   UNL     1      -1.862 -10.465  12.003  0.00  0.00    -0.483 OA
BRANCH   3  33
ATOM      1  F   UNL     1      -5.511 -10.142   7.906  0.00  0.00    -0.205 F 
ATOM     33  C   UNL     1      -2.769 -10.384  10.984  0.00  0.00    +0.121 A 
ATOM     34  C   UNL     1      -2.990  -9.166  10.340  0.00  0.00    +0.048 A 
ATOM     35  C   UNL     1      -3.475 -11.520  10.588  0.00  0.00    +0.048 A 
ATOM     36  C   UNL     1      -3.916  -9.085   9.300  0.00  0.00    +0.042 A 
ATOM     37  C   UNL     1      -4.400 -11.439   9.547  0.00  0.00    +0.042 A 
ATOM     38  C   UNL     1      -4.622 -10.221   8.904  0.00  0.00    +0.124 A 
ENDBRANCH   3  33
ENDBRANCH  29   3
ENDBRANCH  28  29
ENDBRANCH  18  26
ENDBRANCH  13  18
TORSDOF 8
ENDMDL
MODEL 2
REMARK VINA RESULT:      -7.5      2.905      3.885
REMARK  Name = 45784039
REMARK  11 active torsions:
REMARK  status: ('A' for Active; 'I' for Inactive)
REMARK    1  A    between atoms: O_3  and  C_29
REMARK    2  A    between atoms: O_3  and  C_33
REMARK    3  A    between atoms: N_4  and  C_15
REMARK    4  A    between atoms: C_10  and  C_14
REMARK    5  A    between atoms: C_11  and  C_15
REMARK    6  A    between atoms: C_13  and  C_18
REMARK    7  A    between atoms: C_14  and  C_19
REMARK    8  A    between atoms: C_14  and  C_20
REMARK    9  A    between atoms: C_17  and  C_23
REMARK   10  A    between atoms: C_18  and  C_26
REMARK   11  A    between atoms: C_28  and  C_29
REMARK                            x       y       z     vdW  Elec       q    Type
REMARK                         _______ _______ _______ _____ _____    ______ ____
ROOT
ATOM     10  C   UNL     1      -7.555 -12.295  17.201  0.00  0.00    +0.000 C 
ATOM     11  C   UNL     1      -7.583 -12.257  18.747  0.00  0.00    +0.029 C 
ATOM     12  C   UNL     1      -6.514 -11.307  16.658  0.00  0.00    +0.012 C 
ATOM     13  C   UNL     1      -5.091 -11.555  17.205  0.00  0.00    +0.024 C 
ATOM     16  C   UNL     1      -6.203 -12.233  19.351  0.00  0.00    -0.023 C 
ATOM     17  C   UNL     1      -5.078 -11.934  18.678  0.00  0.00    -0.073 C 
ATOM     23  C   UNL     1      -3.739 -12.026  19.359  0.00  0.00    +0.039 C 
ENDROOT
BRANCH  10  14
ATOM     14  C   UNL     1      -7.295 -13.715  16.681  0.00  0.00    -0.013 C 
ATOM     19  C   UNL     1      -8.252 -14.706  17.338  0.00  0.00    +0.007 C 
ATOM     20  C   UNL     1      -7.429 -13.759  15.162  0.00  0.00    +0.007 C 
ENDBRANCH  10  14
BRANCH  11  15
ATOM     15  C   UNL     1      -8.383 -11.058  19.268  0.00  0.00    +0.092 C 
BRANCH  15   4
ATOM      4  N   UNL     1      -9.805 -11.386  19.361  0.00  0.00    -0.299 NA
ATOM      5  N   UNL     1     -12.275 -11.927  20.691  0.00  0.00    -0.297 N 
ATOM      8  N   UNL     1     -13.905 -13.521  21.195  0.00  0.00    -0.223 NA
ATOM      9  N   UNL     1     -14.236 -11.194  21.725  0.00  0.00    -0.223 NA
ATOM     21  C   UNL     1      -9.997 -12.648  20.086  0.00  0.00    +0.103 C 
ATOM     22  C   UNL     1     -10.539 -10.307  20.033  0.00  0.00    +0.103 C 
ATOM     24  C   UNL     1     -11.477 -13.030  20.140  0.00  0.00    +0.123 C 
ATOM     25  C   UNL     1     -12.038 -10.612  20.088  0.00  0.00    +0.123 C 
ATOM     27  C   UNL     1     -13.530 -12.228  21.228  0.00  0.00    +0.218 A 
ATOM     30  C   UNL     1     -15.120 -13.776  21.722  0.00  0.00    +0.116 A 
ATOM     31  C   UNL     1     -15.441 -11.520  22.235  0.00  0.00    +0.116 A 
ATOM     32  C   UNL     1     -15.941 -12.806  22.262  0.00  0.00    +0.039 A 
ENDBRANCH  15   4
ENDBRANCH  11  15
BRANCH  13  18
ATOM     18  C   UNL     1      -4.227 -10.326  16.898  0.00  0.00    +0.105 C 
BRANCH  18  26
ATOM      2  O   UNL     1      -3.274 -10.969  14.745  0.00  0.00    -0.421 OA
ATOM      6  N   UNL     1      -1.772 -10.779  16.392  0.00  0.00    -0.112 NA
ATOM      7  N   UNL     1      -1.100 -11.145  15.240  0.00  0.00    -0.109 NA
ATOM     26  C   UNL     1      -3.037 -10.688  16.056  0.00  0.00    +0.218 A 
ATOM     28  C   UNL     1      -2.015 -11.243  14.305  0.00  0.00    +0.254 A 
BRANCH  28  29
ATOM     29  C   UNL     1      -1.871 -11.597  12.889  0.00  0.00    +0.326 C 
BRANCH  29   3
ATOM      3  O   UNL     1      -1.874 -10.417  12.080  0.00  0.00    -0.483 OA
BRANCH   3  33
ATOM      1  F   UNL     1      -5.459 -10.316   7.914  0.00  0.00    -0.205 F 
ATOM     33  C   UNL     1      -2.766 -10.392  11.044  0.00  0.00    +0.121 A 
ATOM     34  C   UNL     1      -3.015  -9.198  10.367  0.00  0.00    +0.048 A 
ATOM     35  C   UNL     1      -3.426 -11.560  10.663  0.00  0.00    +0.048 A 
ATOM     36  C   UNL     1      -3.925  -9.172   9.310  0.00  0.00    +0.042 A 
ATOM     37  C   UNL     1      -4.334 -11.535   9.606  0.00  0.00    +0.042 A 
ATOM     38  C   UNL     1      -4.585 -10.341   8.929  0.00  0.00    +0.124 A 
ENDBRANCH   3  33
ENDBRANCH  29   3
ENDBRANCH  28  29
ENDBRANCH  18  26
ENDBRANCH  13  18
TORSDOF 8
ENDMDL
MODEL 3
REMARK VINA RESULT:      -7.4      3.938      8.167
REMARK  Name = 45784039
REMARK  11 active torsions:
REMARK  status: ('A' for Active; 'I' for Inactive)
REMARK    1  A    between atoms: O_3  and  C_29
REMARK    2  A    between atoms: O_3  and  C_33
REMARK    3  A    between atoms: N_4  and  C_15
REMARK    4  A    between atoms: C_10  and  C_14
REMARK    5  A    between atoms: C_11  and  C_15
REMARK    6  A    between atoms: C_13  and  C_18
REMARK    7  A    between atoms: C_14  and  C_19
REMARK    8  A    between atoms: C_14  and  C_20
REMARK    9  A    between atoms: C_17  and  C_23
REMARK   10  A    between atoms: C_18  and  C_26
REMARK   11  A    between atoms: C_28  and  C_29
REMARK                            x       y       z     vdW  Elec       q    Type
REMARK                         _______ _______ _______ _____ _____    ______ ____
ROOT
ATOM     10  C   UNL     1      -3.661 -10.516  15.254  0.00  0.00    +0.000 C 
ATOM     11  C   UNL     1      -4.827 -11.171  14.479  0.00  0.00    +0.029 C 
ATOM     12  C   UNL     1      -4.053 -10.284  16.720  0.00  0.00    +0.012 C 
ATOM     13  C   UNL     1      -4.494 -11.573  17.447  0.00  0.00    +0.024 C 
ATOM     16  C   UNL     1      -5.483 -12.286  15.252  0.00  0.00    -0.023 C 
ATOM     17  C   UNL     1      -5.337 -12.490  16.574  0.00  0.00    -0.073 C 
ATOM     23  C   UNL     1      -5.969 -13.687  17.231  0.00  0.00    +0.039 C 
ENDROOT
BRANCH  10  14
ATOM     14  C   UNL     1      -2.379 -11.352  15.150  0.00  0.00    -0.013 C 
ATOM     19  C   UNL     1      -2.045 -11.633  13.688  0.00  0.00    +0.007 C 
ATOM     20  C   UNL     1      -1.221 -10.641  15.842  0.00  0.00    +0.007 C 
ENDBRANCH  10  14
BRANCH  11  15
ATOM     15  C   UNL     1      -5.889 -10.142  14.079  0.00  0.00    +0.092 C 
BRANCH  15   4
ATOM      4  N   UNL     1      -6.312 -10.346  12.694  0.00  0.00    -0.299 NA
ATOM      5  N   UNL     1      -6.263  -9.940   9.867  0.00  0.00    -0.297 N 
ATOM      8  N   UNL     1      -7.388  -9.098   8.002  0.00  0.00    -0.223 NA
ATOM      9  N   UNL     1      -5.380 -10.406   7.756  0.00  0.00    -0.223 NA
ATOM     21  C   UNL     1      -6.803  -9.089  12.116  0.00  0.00    +0.103 C 
ATOM     22  C   UNL     1      -5.201 -10.865  11.887  0.00  0.00    +0.103 C 
ATOM     24  C   UNL     1      -7.301  -9.301  10.685  0.00  0.00    +0.123 C 
ATOM     25  C   UNL     1      -5.645 -11.135  10.448  0.00  0.00    +0.123 C 
ATOM     27  C   UNL     1      -6.348  -9.808   8.477  0.00  0.00    +0.218 A 
ATOM     30  C   UNL     1      -7.439  -8.990   6.658  0.00  0.00    +0.116 A 
ATOM     31  C   UNL     1      -5.493 -10.259   6.419  0.00  0.00    +0.116 A 
ATOM     32  C   UNL     1      -6.510  -9.556   5.808  0.00  0.00    +0.039 A 
ENDBRANCH  15   4
ENDBRANCH  11  15
BRANCH  13  18
ATOM     18  C   UNL     1      -5.195 -11.184  18.754  0.00  0.00    +0.105 C 
BRANCH  18  26
ATOM      2  O   UNL     1      -6.816  -9.800  17.565  0.00  0.00    -0.421 OA
ATOM      6  N   UNL     1      -7.722 -11.178  19.077  0.00  0.00    -0.112 NA
ATOM      7  N   UNL     1      -8.745 -10.461  18.484  0.00  0.00    -0.109 NA
ATOM     26  C   UNL     1      -6.615 -10.760  18.510  0.00  0.00    +0.218 A 
ATOM     28  C   UNL     1      -8.170  -9.670  17.609  0.00  0.00    +0.254 A 
BRANCH  28  29
ATOM     29  C   UNL     1      -8.772  -8.693  16.694  0.00  0.00    +0.326 C 
BRANCH  29   3
ATOM      3  O   UNL     1      -9.638  -7.809  17.412  0.00  0.00    -0.483 OA
BRANCH   3  33
ATOM      1  F   UNL     1     -14.296  -6.353  14.883  0.00  0.00    -0.205 F 
ATOM     33  C   UNL     1     -10.797  -7.448  16.784  0.00  0.00    +0.121 A 
ATOM     34  C   UNL     1     -11.933  -8.249  16.898  0.00  0.00    +0.048 A 
ATOM     35  C   UNL     1     -10.842  -6.277  16.027  0.00  0.00    +0.048 A 
ATOM     36  C   UNL     1     -13.115  -7.879  16.257  0.00  0.00    +0.042 A 
ATOM     37  C   UNL     1     -12.024  -5.906  15.386  0.00  0.00    +0.042 A 
ATOM     38  C   UNL     1     -13.161  -6.708  15.500  0.00  0.00    +0.124 A 
ENDBRANCH   3  33
ENDBRANCH  29   3
ENDBRANCH  28  29
ENDBRANCH  18  26
ENDBRANCH  13  18
TORSDOF 8
ENDMDL
MODEL 4
REMARK VINA RESULT:      -7.4      5.562      9.524
REMARK  Name = 45784039
REMARK  11 active torsions:
REMARK  status: ('A' for Active; 'I' for Inactive)
REMARK    1  A    between atoms: O_3  and  C_29
REMARK    2  A    between atoms: O_3  and  C_33
REMARK    3  A    between atoms: N_4  and  C_15
REMARK    4  A    between atoms: C_10  and  C_14
REMARK    5  A    between atoms: C_11  and  C_15
REMARK    6  A    between atoms: C_13  and  C_18
REMARK    7  A    between atoms: C_14  and  C_19
REMARK    8  A    between atoms: C_14  and  C_20
REMARK    9  A    between atoms: C_17  and  C_23
REMARK   10  A    between atoms: C_18  and  C_26
REMARK   11  A    between atoms: C_28  and  C_29
REMARK                            x       y       z     vdW  Elec       q    Type
REMARK                         _______ _______ _______ _____ _____    ______ ____
ROOT
ATOM     10  C   UNL     1      -6.135 -10.722   9.846  0.00  0.00    +0.000 C 
ATOM     11  C   UNL     1      -5.399  -9.929   8.741  0.00  0.00    +0.029 C 
ATOM     12  C   UNL     1      -5.168 -11.681  10.554  0.00  0.00    +0.012 C 
ATOM     13  C   UNL     1      -3.938 -10.973  11.162  0.00  0.00    +0.024 C 
ATOM     16  C   UNL     1      -4.053  -9.422   9.190  0.00  0.00    -0.023 C 
ATOM     17  C   UNL     1      -3.391  -9.865  10.274  0.00  0.00    -0.073 C 
ATOM     23  C   UNL     1      -2.091  -9.227  10.683  0.00  0.00    +0.039 C 
ENDROOT
BRANCH  10  14
ATOM     14  C   UNL     1      -6.817  -9.782  10.849  0.00  0.00    -0.013 C 
ATOM     19  C   UNL     1      -7.886  -8.946  10.153  0.00  0.00    +0.007 C 
ATOM     20  C   UNL     1      -7.419 -10.580  12.002  0.00  0.00    +0.007 C 
ENDBRANCH  10  14
BRANCH  11  15
ATOM     15  C   UNL     1      -5.224 -10.764   7.468  0.00  0.00    +0.092 C 
BRANCH  15   4
ATOM      4  N   UNL     1      -6.308 -10.501   6.523  0.00  0.00    -0.299 NA
ATOM      5  N   UNL     1      -7.557  -9.280   4.263  0.00  0.00    -0.297 N 
ATOM      8  N   UNL     1      -9.206  -7.807   3.510  0.00  0.00    -0.223 NA
ATOM      9  N   UNL     1      -7.972  -9.186   1.966  0.00  0.00    -0.223 NA
ATOM     21  C   UNL     1      -6.693  -9.085   6.563  0.00  0.00    +0.103 C 
ATOM     22  C   UNL     1      -5.905 -10.870   5.161  0.00  0.00    +0.103 C 
ATOM     24  C   UNL     1      -7.864  -8.808   5.619  0.00  0.00    +0.123 C 
ATOM     25  C   UNL     1      -7.050 -10.652   4.170  0.00  0.00    +0.123 C 
ATOM     27  C   UNL     1      -8.279  -8.732   3.197  0.00  0.00    +0.218 A 
ATOM     30  C   UNL     1      -9.883  -7.300   2.459  0.00  0.00    +0.116 A 
ATOM     31  C   UNL     1      -8.687  -8.638   0.963  0.00  0.00    +0.116 A 
ATOM     32  C   UNL     1      -9.664  -7.682   1.150  0.00  0.00    +0.039 A 
ENDBRANCH  15   4
ENDBRANCH  11  15
BRANCH  13  18
ATOM     18  C   UNL     1      -2.886 -12.032  11.512  0.00  0.00    +0.105 C 
BRANCH  18  26
ATOM      2  O   UNL     1      -3.044 -10.957  13.698  0.00  0.00    -0.421 OA
ATOM      6  N   UNL     1      -1.443 -12.513  13.556  0.00  0.00    -0.112 NA
ATOM      7  N   UNL     1      -1.420 -11.991  14.836  0.00  0.00    -0.109 NA
ATOM     26  C   UNL     1      -2.405 -11.881  12.927  0.00  0.00    +0.218 A 
ATOM     28  C   UNL     1      -2.371 -11.088  14.874  0.00  0.00    +0.254 A 
BRANCH  28  29
ATOM     29  C   UNL     1      -2.798 -10.225  15.981  0.00  0.00    +0.326 C 
BRANCH  29   3
ATOM      3  O   UNL     1      -3.519 -10.987  16.954  0.00  0.00    -0.483 OA
BRANCH   3  33
ATOM      1  F   UNL     1      -8.649  -9.340  18.039  0.00  0.00    -0.205 F 
ATOM     33  C   UNL     1      -4.795 -10.577  17.224  0.00  0.00    +0.121 A 
ATOM     34  C   UNL     1      -5.341 -10.785  18.491  0.00  0.00    +0.048 A 
ATOM     35  C   UNL     1      -5.551  -9.952  16.233  0.00  0.00    +0.048 A 
ATOM     36  C   UNL     1      -6.643 -10.367  18.766  0.00  0.00    +0.042 A 
ATOM     37  C   UNL     1      -6.852  -9.533  16.508  0.00  0.00    +0.042 A 
ATOM     38  C   UNL     1      -7.399  -9.741  17.775  0.00  0.00    +0.124 A 
ENDBRANCH   3  33
ENDBRANCH  29   3
ENDBRANCH  28  29
ENDBRANCH  18  26
ENDBRANCH  13  18
TORSDOF 8
ENDMDL
MODEL 5
REMARK VINA RESULT:      -7.3      1.435      2.273
REMARK  Name = 45784039
REMARK  11 active torsions:
REMARK  status: ('A' for Active; 'I' for Inactive)
REMARK    1  A    between atoms: O_3  and  C_29
REMARK    2  A    between atoms: O_3  and  C_33
REMARK    3  A    between atoms: N_4  and  C_15
REMARK    4  A    between atoms: C_10  and  C_14
REMARK    5  A    between atoms: C_11  and  C_15
REMARK    6  A    between atoms: C_13  and  C_18
REMARK    7  A    between atoms: C_14  and  C_19
REMARK    8  A    between atoms: C_14  and  C_20
REMARK    9  A    between atoms: C_17  and  C_23
REMARK   10  A    between atoms: C_18  and  C_26
REMARK   11  A    between atoms: C_28  and  C_29
REMARK                            x       y       z     vdW  Elec       q    Type
REMARK                         _______ _______ _______ _____ _____    ______ ____
ROOT
ATOM     10  C   UNL     1      -7.741  -9.753  15.369  0.00  0.00    +0.000 C 
ATOM     11  C   UNL     1      -8.667  -9.921  16.597  0.00  0.00    +0.029 C 
ATOM     12  C   UNL     1      -6.269  -9.753  15.803  0.00  0.00    +0.012 C 
ATOM     13  C   UNL     1      -5.861 -11.019  16.587  0.00  0.00    +0.024 C 
ATOM     16  C   UNL     1      -8.179 -10.980  17.551  0.00  0.00    -0.023 C 
ATOM     17  C   UNL     1      -6.935 -11.492  17.555  0.00  0.00    -0.073 C 
ATOM     23  C   UNL     1      -6.578 -12.610  18.496  0.00  0.00    +0.039 C 
ENDROOT
BRANCH  10  14
ATOM     14  C   UNL     1      -8.008 -10.836  14.316  0.00  0.00    -0.013 C 
ATOM     19  C   UNL     1      -9.462 -10.785  13.856  0.00  0.00    +0.007 C 
ATOM     20  C   UNL     1      -7.061 -10.671  13.132  0.00  0.00    +0.007 C 
ENDBRANCH  10  14
BRANCH  11  15
ATOM     15  C   UNL     1      -8.844  -8.601  17.355  0.00  0.00    +0.092 C 
BRANCH  15   4
ATOM      4  N   UNL     1     -10.148  -8.007  17.063  0.00  0.00    -0.299 NA
ATOM      5  N   UNL     1     -12.445  -7.413  15.472  0.00  0.00    -0.297 N 
ATOM      8  N   UNL     1     -13.656  -5.769  14.339  0.00  0.00    -0.223 NA
ATOM      9  N   UNL     1     -14.549  -7.987  14.635  0.00  0.00    -0.223 NA
ATOM     21  C   UNL     1     -10.048  -7.076  15.932  0.00  0.00    +0.103 C 
ATOM     22  C   UNL     1     -11.135  -9.051  16.763  0.00  0.00    +0.103 C 
ATOM     24  C   UNL     1     -11.393  -6.405  15.652  0.00  0.00    +0.123 C 
ATOM     25  C   UNL     1     -12.517  -8.446  16.510  0.00  0.00    +0.123 C 
ATOM     27  C   UNL     1     -13.604  -7.039  14.783  0.00  0.00    +0.218 A 
ATOM     30  C   UNL     1     -14.786  -5.442  13.679  0.00  0.00    +0.116 A 
ATOM     31  C   UNL     1     -15.652  -7.592  13.967  0.00  0.00    +0.116 A 
ATOM     32  C   UNL     1     -15.828  -6.321  13.460  0.00  0.00    +0.039 A 
ENDBRANCH  15   4
ENDBRANCH  11  15
BRANCH  13  18
ATOM     18  C   UNL     1      -4.513 -10.759  17.271  0.00  0.00    +0.105 C 
BRANCH  18  26
ATOM      2  O   UNL     1      -3.657 -11.670  15.174  0.00  0.00    -0.421 OA
ATOM      6  N   UNL     1      -2.092 -10.748  16.480  0.00  0.00    -0.112 NA
ATOM      7  N   UNL     1      -1.472 -11.218  15.336  0.00  0.00    -0.109 NA
ATOM     26  C   UNL     1      -3.365 -11.033  16.342  0.00  0.00    +0.218 A 
ATOM     28  C   UNL     1      -2.424 -11.748  14.604  0.00  0.00    +0.254 A 
BRANCH  28  29
ATOM     29  C   UNL     1      -2.342 -12.392  13.288  0.00  0.00    +0.326 C 
BRANCH  29   3
ATOM      3  O   UNL     1      -1.740 -11.507  12.339  0.00  0.00    -0.483 OA
BRANCH   3  33
ATOM      1  F   UNL     1      -5.042  -9.497   8.431  0.00  0.00    -0.205 F 
ATOM     33  C   UNL     1      -2.561 -11.006  11.367  0.00  0.00    +0.121 A 
ATOM     34  C   UNL     1      -2.445  -9.673  10.973  0.00  0.00    +0.048 A 
ATOM     35  C   UNL     1      -3.515 -11.830  10.769  0.00  0.00    +0.048 A 
ATOM     36  C   UNL     1      -3.283  -9.163   9.981  0.00  0.00    +0.042 A 
ATOM     37  C   UNL     1      -4.352 -11.320   9.777  0.00  0.00    +0.042 A 
ATOM     38  C   UNL     1      -4.237  -9.986   9.384  0.00  0.00    +0.124 A 
ENDBRANCH   3  33
ENDBRANCH  29   3
ENDBRANCH  28  29
ENDBRANCH  18  26
ENDBRANCH  13  18
TORSDOF 8
ENDMDL
MODEL 6
REMARK VINA RESULT:      -6.9      5.748     11.023
REMARK  Name = 45784039
REMARK  11 active torsions:
REMARK  status: ('A' for Active; 'I' for Inactive)
REMARK    1  A    between atoms: O_3  and  C_29
REMARK    2  A    between atoms: O_3  and  C_33
REMARK    3  A    between atoms: N_4  and  C_15
REMARK    4  A    between atoms: C_10  and  C_14
REMARK    5  A    between atoms: C_11  and  C_15
REMARK    6  A    between atoms: C_13  and  C_18
REMARK    7  A    between atoms: C_14  and  C_19
REMARK    8  A    between atoms: C_14  and  C_20
REMARK    9  A    between atoms: C_17  and  C_23
REMARK   10  A    between atoms: C_18  and  C_26
REMARK   11  A    between atoms: C_28  and  C_29
REMARK                            x       y       z     vdW  Elec       q    Type
REMARK                         _______ _______ _______ _____ _____    ______ ____
ROOT
ATOM     10  C   UNL     1      -5.155 -12.861   9.938  0.00  0.00    +0.000 C 
ATOM     11  C   UNL     1      -5.039 -12.342   8.486  0.00  0.00    +0.029 C 
ATOM     12  C   UNL     1      -3.967 -12.372  10.780  0.00  0.00    +0.012 C 
ATOM     13  C   UNL     1      -3.819 -10.836  10.794  0.00  0.00    +0.024 C 
ATOM     16  C   UNL     1      -4.636 -10.891   8.420  0.00  0.00    -0.023 C 
ATOM     17  C   UNL     1      -4.101 -10.198   9.442  0.00  0.00    -0.073 C 
ATOM     23  C   UNL     1      -3.816  -8.728   9.294  0.00  0.00    +0.039 C 
ENDROOT
BRANCH  10  14
ATOM     14  C   UNL     1      -6.490 -12.454  10.574  0.00  0.00    -0.013 C 
ATOM     19  C   UNL     1      -7.657 -13.034   9.780  0.00  0.00    +0.007 C 
ATOM     20  C   UNL     1      -6.547 -12.907  12.029  0.00  0.00    +0.007 C 
ENDBRANCH  10  14
BRANCH  11  15
ATOM     15  C   UNL     1      -4.053 -13.177   7.663  0.00  0.00    +0.092 C 
BRANCH  15   4
ATOM      4  N   UNL     1      -4.024 -12.723   6.274  0.00  0.00    -0.299 NA
ATOM      5  N   UNL     1      -4.146 -13.008   3.434  0.00  0.00    -0.297 N 
ATOM      8  N   UNL     1      -2.976 -12.903   1.416  0.00  0.00    -0.223 NA
ATOM      9  N   UNL     1      -5.371 -13.166   1.452  0.00  0.00    -0.223 NA
ATOM     21  C   UNL     1      -2.925 -13.367   5.545  0.00  0.00    +0.103 C 
ATOM     22  C   UNL     1      -5.300 -13.011   5.610  0.00  0.00    +0.103 C 
ATOM     24  C   UNL     1      -2.848 -12.857   4.104  0.00  0.00    +0.123 C 
ATOM     25  C   UNL     1      -5.303 -12.491   4.171  0.00  0.00    +0.123 C 
ATOM     27  C   UNL     1      -4.164 -13.026   2.035  0.00  0.00    +0.218 A 
ATOM     30  C   UNL     1      -3.030 -12.926   0.068  0.00  0.00    +0.116 A 
ATOM     31  C   UNL     1      -5.352 -13.180   0.103  0.00  0.00    +0.116 A 
ATOM     32  C   UNL     1      -4.202 -13.063  -0.650  0.00  0.00    +0.039 A 
ENDBRANCH  15   4
ENDBRANCH  11  15
BRANCH  13  18
ATOM     18  C   UNL     1      -2.431 -10.483  11.342  0.00  0.00    +0.105 C 
BRANCH  18  26
ATOM      2  O   UNL     1      -2.500 -10.261  13.771  0.00  0.00    -0.421 OA
ATOM      6  N   UNL     1      -1.788 -12.257  13.053  0.00  0.00    -0.112 NA
ATOM      7  N   UNL     1      -1.777 -12.270  14.436  0.00  0.00    -0.109 NA
ATOM     26  C   UNL     1      -2.216 -11.065  12.709  0.00  0.00    +0.218 A 
ATOM     28  C   UNL     1      -2.200 -11.086  14.811  0.00  0.00    +0.254 A 
BRANCH  28  29
ATOM     29  C   UNL     1      -2.392 -10.547  16.162  0.00  0.00    +0.326 C 
BRANCH  29   3
ATOM      3  O   UNL     1      -3.291 -11.376  16.905  0.00  0.00    -0.483 OA
BRANCH   3  33
ATOM      1  F   UNL     1      -8.253  -9.268  17.972  0.00  0.00    -0.205 F 
ATOM     33  C   UNL     1      -4.525 -10.851  17.169  0.00  0.00    +0.121 A 
ATOM     34  C   UNL     1      -5.187 -10.100  16.198  0.00  0.00    +0.048 A 
ATOM     35  C   UNL     1      -5.122 -11.068  18.411  0.00  0.00    +0.048 A 
ATOM     36  C   UNL     1      -6.447  -9.566  16.469  0.00  0.00    +0.042 A 
ATOM     37  C   UNL     1      -6.381 -10.534  18.682  0.00  0.00    +0.042 A 
ATOM     38  C   UNL     1      -7.044  -9.782  17.711  0.00  0.00    +0.124 A 
ENDBRANCH   3  33
ENDBRANCH  29   3
ENDBRANCH  28  29
ENDBRANCH  18  26
ENDBRANCH  13  18
TORSDOF 8
ENDMDL
MODEL 7
REMARK VINA RESULT:      -6.9     28.219     31.095
REMARK  Name = 45784039
REMARK  11 active torsions:
REMARK  status: ('A' for Active; 'I' for Inactive)
REMARK    1  A    between atoms: O_3  and  C_29
REMARK    2  A    between atoms: O_3  and  C_33
REMARK    3  A    between atoms: N_4  and  C_15
REMARK    4  A    between atoms: C_10  and  C_14
REMARK    5  A    between atoms: C_11  and  C_15
REMARK    6  A    between atoms: C_13  and  C_18
REMARK    7  A    between atoms: C_14  and  C_19
REMARK    8  A    between atoms: C_14  and  C_20
REMARK    9  A    between atoms: C_17  and  C_23
REMARK   10  A    between atoms: C_18  and  C_26
REMARK   11  A    between atoms: C_28  and  C_29
REMARK                            x       y       z     vdW  Elec       q    Type
REMARK                         _______ _______ _______ _____ _____    ______ ____
ROOT
ATOM     10  C   UNL     1      13.735   9.583  18.242  0.00  0.00    +0.000 C 
ATOM     11  C   UNL     1      12.673  10.249  19.149  0.00  0.00    +0.029 C 
ATOM     12  C   UNL     1      14.725   8.767  19.084  0.00  0.00    +0.012 C 
ATOM     13  C   UNL     1      14.045   7.689  19.955  0.00  0.00    +0.024 C 
ATOM     16  C   UNL     1      12.147   9.314  20.207  0.00  0.00    -0.023 C 
ATOM     17  C   UNL     1      12.737   8.161  20.572  0.00  0.00    -0.073 C 
ATOM     23  C   UNL     1      12.079   7.258  21.580  0.00  0.00    +0.039 C 
ENDROOT
BRANCH  10  14
ATOM     14  C   UNL     1      13.080   8.716  17.159  0.00  0.00    -0.013 C 
ATOM     19  C   UNL     1      12.362   9.591  16.137  0.00  0.00    +0.007 C 
ATOM     20  C   UNL     1      14.124   7.836  16.479  0.00  0.00    +0.007 C 
ENDBRANCH  10  14
BRANCH  11  15
ATOM     15  C   UNL     1      13.217  11.514  19.820  0.00  0.00    +0.092 C 
BRANCH  15   4
ATOM      4  N   UNL     1      13.231  11.364  21.275  0.00  0.00    -0.299 NA
ATOM      5  N   UNL     1      13.904  12.060  23.962  0.00  0.00    -0.297 N 
ATOM      8  N   UNL     1      15.113  11.487  25.876  0.00  0.00    -0.223 NA
ATOM      9  N   UNL     1      13.508  13.284  25.911  0.00  0.00    -0.223 NA
ATOM     21  C   UNL     1      14.605  11.197  21.762  0.00  0.00    +0.103 C 
ATOM     22  C   UNL     1      12.610  12.527  21.919  0.00  0.00    +0.103 C 
ATOM     24  C   UNL     1      14.628  10.982  23.277  0.00  0.00    +0.123 C 
ATOM     25  C   UNL     1      12.568  12.357  23.439  0.00  0.00    +0.123 C 
ATOM     27  C   UNL     1      14.188  12.287  25.313  0.00  0.00    +0.218 A 
ATOM     30  C   UNL     1      15.362  11.734  27.179  0.00  0.00    +0.116 A 
ATOM     31  C   UNL     1      13.805  13.475  27.213  0.00  0.00    +0.116 A 
ATOM     32  C   UNL     1      14.733  12.724  27.906  0.00  0.00    +0.039 A 
ENDBRANCH  15   4
ENDBRANCH  11  15
BRANCH  13  18
ATOM     18  C   UNL     1      15.053   7.195  20.999  0.00  0.00    +0.105 C 
BRANCH  18  26
ATOM      2  O   UNL     1      17.457   6.775  21.002  0.00  0.00    -0.421 OA
ATOM      6  N   UNL     1      16.386   5.947  19.222  0.00  0.00    -0.112 NA
ATOM      7  N   UNL     1      17.728   5.639  19.095  0.00  0.00    -0.109 NA
ATOM     26  C   UNL     1      16.274   6.610  20.349  0.00  0.00    +0.218 A 
ATOM     28  C   UNL     1      18.314   6.141  20.156  0.00  0.00    +0.254 A 
BRANCH  28  29
ATOM     29  C   UNL     1      19.729   6.111  20.545  0.00  0.00    +0.326 C 
BRANCH  29   3
ATOM      3  O   UNL     1      20.298   4.833  20.245  0.00  0.00    -0.483 OA
BRANCH   3  33
ATOM      1  F   UNL     1      25.101   3.668  22.650  0.00  0.00    -0.205 F 
ATOM     33  C   UNL     1      21.492   4.543  20.843  0.00  0.00    +0.121 A 
ATOM     34  C   UNL     1      21.749   3.250  21.300  0.00  0.00    +0.048 A 
ATOM     35  C   UNL     1      22.455   5.540  20.997  0.00  0.00    +0.048 A 
ATOM     36  C   UNL     1      22.968   2.954  21.910  0.00  0.00    +0.042 A 
ATOM     37  C   UNL     1      23.674   5.245  21.606  0.00  0.00    +0.042 A 
ATOM     38  C   UNL     1      23.930   3.952  22.064  0.00  0.00    +0.124 A 
ENDBRANCH   3  33
ENDBRANCH  29   3
ENDBRANCH  28  29
ENDBRANCH  18  26
ENDBRANCH  13  18
TORSDOF 8
ENDMDL
MODEL 8
REMARK VINA RESULT:      -6.9      2.324      3.973
REMARK  Name = 45784039
REMARK  11 active torsions:
REMARK  status: ('A' for Active; 'I' for Inactive)
REMARK    1  A    between atoms: O_3  and  C_29
REMARK    2  A    between atoms: O_3  and  C_33
REMARK    3  A    between atoms: N_4  and  C_15
REMARK    4  A    between atoms: C_10  and  C_14
REMARK    5  A    between atoms: C_11  and  C_15
REMARK    6  A    between atoms: C_13  and  C_18
REMARK    7  A    between atoms: C_14  and  C_19
REMARK    8  A    between atoms: C_14  and  C_20
REMARK    9  A    between atoms: C_17  and  C_23
REMARK   10  A    between atoms: C_18  and  C_26
REMARK   11  A    between atoms: C_28  and  C_29
REMARK                            x       y       z     vdW  Elec       q    Type
REMARK                         _______ _______ _______ _____ _____    ______ ____
ROOT
ATOM     10  C   UNL     1      -9.278  -9.203  15.805  0.00  0.00    +0.000 C 
ATOM     11  C   UNL     1     -10.583  -9.595  16.537  0.00  0.00    +0.029 C 
ATOM     12  C   UNL     1      -8.097  -9.188  16.785  0.00  0.00    +0.012 C 
ATOM     13  C   UNL     1      -7.892 -10.531  17.518  0.00  0.00    +0.024 C 
ATOM     16  C   UNL     1     -10.393 -10.754  17.481  0.00  0.00    -0.023 C 
ATOM     17  C   UNL     1      -9.200 -11.195  17.921  0.00  0.00    -0.073 C 
ATOM     23  C   UNL     1      -9.119 -12.417  18.794  0.00  0.00    +0.039 C 
ENDROOT
BRANCH  10  14
ATOM     14  C   UNL     1      -9.001 -10.134  14.618  0.00  0.00    -0.013 C 
ATOM     19  C   UNL     1     -10.228 -10.225  13.715  0.00  0.00    +0.007 C 
ATOM     20  C   UNL     1      -7.786  -9.650  13.833  0.00  0.00    +0.007 C 
ENDBRANCH  10  14
BRANCH  11  15
ATOM     15  C   UNL     1     -11.178  -8.411  17.306  0.00  0.00    +0.092 C 
BRANCH  15   4
ATOM      4  N   UNL     1     -11.836  -7.479  16.392  0.00  0.00    -0.299 NA
ATOM      5  N   UNL     1     -12.361  -6.220  13.881  0.00  0.00    -0.297 N 
ATOM      8  N   UNL     1     -12.219  -4.261  12.619  0.00  0.00    -0.223 NA
ATOM      9  N   UNL     1     -13.439  -6.174  11.810  0.00  0.00    -0.223 NA
ATOM     21  C   UNL     1     -10.858  -6.554  15.806  0.00  0.00    +0.103 C 
ATOM     22  C   UNL     1     -12.534  -8.208  15.326  0.00  0.00    +0.103 C 
ATOM     24  C   UNL     1     -11.543  -5.537  14.891  0.00  0.00    +0.123 C 
ATOM     25  C   UNL     1     -13.275  -7.246  14.394  0.00  0.00    +0.123 C 
ATOM     27  C   UNL     1     -12.689  -5.519  12.716  0.00  0.00    +0.218 A 
ATOM     30  C   UNL     1     -12.553  -3.614  11.484  0.00  0.00    +0.116 A 
ATOM     31  C   UNL     1     -13.737  -5.469  10.700  0.00  0.00    +0.116 A 
ATOM     32  C   UNL     1     -13.317  -4.173  10.479  0.00  0.00    +0.039 A 
ENDBRANCH  15   4
ENDBRANCH  11  15
BRANCH  13  18
ATOM     18  C   UNL     1      -6.949 -10.303  18.705  0.00  0.00    +0.105 C 
BRANCH  18  26
ATOM      2  O   UNL     1      -4.993 -10.439  17.251  0.00  0.00    -0.421 OA
ATOM      6  N   UNL     1      -4.816 -11.627  19.139  0.00  0.00    -0.112 NA
ATOM      7  N   UNL     1      -3.648 -11.793  18.417  0.00  0.00    -0.109 NA
ATOM     26  C   UNL     1      -5.571 -10.829  18.421  0.00  0.00    +0.218 A 
ATOM     28  C   UNL     1      -3.796 -11.082  17.324  0.00  0.00    +0.254 A 
BRANCH  28  29
ATOM     29  C   UNL     1      -2.871 -10.889  16.202  0.00  0.00    +0.326 C 
BRANCH  29   3
ATOM      3  O   UNL     1      -3.253 -11.714  15.096  0.00  0.00    -0.483 OA
BRANCH   3  33
ATOM      1  F   UNL     1      -2.916  -9.431  10.108  0.00  0.00    -0.205 F 
ATOM     33  C   UNL     1      -3.169 -11.146  13.856  0.00  0.00    +0.121 A 
ATOM     34  C   UNL     1      -4.328 -10.727  13.201  0.00  0.00    +0.048 A 
ATOM     35  C   UNL     1      -1.926 -10.986  13.245  0.00  0.00    +0.048 A 
ATOM     36  C   UNL     1      -4.242 -10.148  11.935  0.00  0.00    +0.042 A 
ATOM     37  C   UNL     1      -1.840 -10.405  11.980  0.00  0.00    +0.042 A 
ATOM     38  C   UNL     1      -2.999  -9.988  11.324  0.00  0.00    +0.124 A 
ENDBRANCH   3  33
ENDBRANCH  29   3
ENDBRANCH  28  29
ENDBRANCH  18  26
ENDBRANCH  13  18
TORSDOF 8
ENDMDL
MODEL 9
REMARK VINA RESULT:      -6.8      1.740      2.264
REMARK  Name = 45784039
REMARK  11 active torsions:
REMARK  status: ('A' for Active; 'I' for Inactive)
REMARK    1  A    between atoms: O_3  and  C_29
REMARK    2  A    between atoms: O_3  and  C_33
REMARK    3  A    between atoms: N_4  and  C_15
REMARK    4  A    between atoms: C_10  and  C_14
REMARK    5  A    between atoms: C_11  and  C_15
REMARK    6  A    between atoms: C_13  and  C_18
REMARK    7  A    between atoms: C_14  and  C_19
REMARK    8  A    between atoms: C_14  and  C_20
REMARK    9  A    between atoms: C_17  and  C_23
REMARK   10  A    between atoms: C_18  and  C_26
REMARK   11  A    between atoms: C_28  and  C_29
REMARK                            x       y       z     vdW  Elec       q    Type
REMARK                         _______ _______ _______ _____ _____    ______ ____
ROOT
ATOM     10  C   UNL     1      -8.276 -11.877  18.058  0.00  0.00    +0.000 C 
ATOM     11  C   UNL     1      -7.675 -10.523  18.505  0.00  0.00    +0.029 C 
ATOM     12  C   UNL     1      -7.231 -12.703  17.295  0.00  0.00    +0.012 C 
ATOM     13  C   UNL     1      -5.941 -12.955  18.103  0.00  0.00    +0.024 C 
ATOM     16  C   UNL     1      -6.287 -10.665  19.074  0.00  0.00    -0.023 C 
ATOM     17  C   UNL     1      -5.502 -11.747  18.917  0.00  0.00    -0.073 C 
ATOM     23  C   UNL     1      -4.164 -11.820  19.602  0.00  0.00    +0.039 C 
ENDROOT
BRANCH  10  14
ATOM     14  C   UNL     1      -8.838 -12.660  19.251  0.00  0.00    -0.013 C 
ATOM     19  C   UNL     1      -9.818 -11.797  20.041  0.00  0.00    +0.007 C 
ATOM     20  C   UNL     1      -9.510 -13.945  18.776  0.00  0.00    +0.007 C 
ENDBRANCH  10  14
BRANCH  11  15
ATOM     15  C   UNL     1      -7.647  -9.511  17.356  0.00  0.00    +0.092 C 
BRANCH  15   4
ATOM      4  N   UNL     1      -8.987  -9.317  16.804  0.00  0.00    -0.299 NA
ATOM      5  N   UNL     1     -11.028  -7.976  15.322  0.00  0.00    -0.297 N 
ATOM      8  N   UNL     1     -13.049  -6.808  15.409  0.00  0.00    -0.223 NA
ATOM      9  N   UNL     1     -12.103  -7.500  13.304  0.00  0.00    -0.223 NA
ATOM     21  C   UNL     1      -9.578  -8.072  17.312  0.00  0.00    +0.103 C 
ATOM     22  C   UNL     1      -8.942  -9.285  15.337  0.00  0.00    +0.103 C 
ATOM     24  C   UNL     1     -11.003  -7.886  16.787  0.00  0.00    +0.123 C 
ATOM     25  C   UNL     1     -10.346  -9.138  14.746  0.00  0.00    +0.123 C 
ATOM     27  C   UNL     1     -12.111  -7.402  14.647  0.00  0.00    +0.218 A 
ATOM     30  C   UNL     1     -14.078  -6.265  14.726  0.00  0.00    +0.116 A 
ATOM     31  C   UNL     1     -13.161  -6.937  12.685  0.00  0.00    +0.116 A 
ATOM     32  C   UNL     1     -14.188  -6.299  13.350  0.00  0.00    +0.039 A 
ENDBRANCH  15   4
ENDBRANCH  11  15
BRANCH  13  18
ATOM     18  C   UNL     1      -4.853 -13.456  17.146  0.00  0.00    +0.105 C 
BRANCH  18  26
ATOM      2  O   UNL     1      -4.388 -12.885  14.819  0.00  0.00    -0.421 OA
ATOM      6  N   UNL     1      -4.363 -11.136  16.214  0.00  0.00    -0.112 NA
ATOM      7  N   UNL     1      -4.088 -10.672  14.941  0.00  0.00    -0.109 NA
ATOM     26  C   UNL     1      -4.532 -12.432  16.095  0.00  0.00    +0.218 A 
ATOM     28  C   UNL     1      -4.113 -11.726  14.160  0.00  0.00    +0.254 A 
BRANCH  28  29
ATOM     29  C   UNL     1      -3.893 -11.823  12.712  0.00  0.00    +0.326 C 
BRANCH  29   3
ATOM      3  O   UNL     1      -3.335 -10.604  12.213  0.00  0.00    -0.483 OA
BRANCH   3  33
ATOM      1  F   UNL     1      -6.490  -7.691   8.783  0.00  0.00    -0.205 F 
ATOM     33  C   UNL     1      -4.119  -9.879  11.360  0.00  0.00    +0.121 A 
ATOM     34  C   UNL     1      -3.631  -9.510  10.106  0.00  0.00    +0.048 A 
ATOM     35  C   UNL     1      -5.408  -9.510  11.743  0.00  0.00    +0.048 A 
ATOM     36  C   UNL     1      -4.432  -8.771   9.236  0.00  0.00    +0.042 A 
ATOM     37  C   UNL     1      -6.210  -8.772  10.872  0.00  0.00    +0.042 A 
ATOM     38  C   UNL     1      -5.721  -8.401   9.619  0.00  0.00    +0.124 A 
ENDBRANCH   3  33
ENDBRANCH  29   3
ENDBRANCH  28  29
ENDBRANCH  18  26
ENDBRANCH  13  18
TORSDOF 8
ENDMDL
MODEL 10
REMARK VINA RESULT:      -6.8     26.074     30.052
REMARK  Name = 45784039
REMARK  11 active torsions:
REMARK  status: ('A' for Active; 'I' for Inactive)
REMARK    1  A    between atoms: O_3  and  C_29
REMARK    2  A    between atoms: O_3  and  C_33
REMARK    3  A    between atoms: N_4  and  C_15
REMARK    4  A    between atoms: C_10  and  C_14
REMARK    5  A    between atoms: C_11  and  C_15
REMARK    6  A    between atoms: C_13  and  C_18
REMARK    7  A    between atoms: C_14  and  C_19
REMARK    8  A    between atoms: C_14  and  C_20
REMARK    9  A    between atoms: C_17  and  C_23
REMARK   10  A    between atoms: C_18  and  C_26
REMARK   11  A    between atoms: C_28  and  C_29
REMARK                            x       y       z     vdW  Elec       q    Type
REMARK                         _______ _______ _______ _____ _____    ______ ____
ROOT
ATOM     10  C   UNL     1      10.356   6.885   5.934  0.00  0.00    +0.000 C 
ATOM     11  C   UNL     1      10.689   7.148   4.447  0.00  0.00    +0.029 C 
ATOM     12  C   UNL     1      11.336   7.638   6.846  0.00  0.00    +0.012 C 
ATOM     13  C   UNL     1      11.365   9.160   6.586  0.00  0.00    +0.024 C 
ATOM     16  C   UNL     1      10.989   8.598   4.168  0.00  0.00    -0.023 C 
ATOM     17  C   UNL     1      11.280   9.514   5.109  0.00  0.00    -0.073 C 
ATOM     23  C   UNL     1      11.478  10.956   4.728  0.00  0.00    +0.039 C 
ENDROOT
BRANCH  10  14
ATOM     14  C   UNL     1       8.903   7.255   6.257  0.00  0.00    -0.013 C 
ATOM     19  C   UNL     1       7.941   6.370   5.468  0.00  0.00    +0.007 C 
ATOM     20  C   UNL     1       8.643   7.135   7.755  0.00  0.00    +0.007 C 
ENDBRANCH  10  14
BRANCH  11  15
ATOM     15  C   UNL     1      11.865   6.289   3.970  0.00  0.00    +0.092 C 
BRANCH  15   4
ATOM      4  N   UNL     1      11.813   6.100   2.521  0.00  0.00    -0.299 NA
ATOM      5  N   UNL     1      11.910   4.620   0.080  0.00  0.00    -0.297 N 
ATOM      8  N   UNL     1      13.078   4.206  -1.900  0.00  0.00    -0.223 NA
ATOM      9  N   UNL     1      10.883   3.280  -1.534  0.00  0.00    -0.223 NA
ATOM     21  C   UNL     1      13.089   5.568   2.026  0.00  0.00    +0.103 C 
ATOM     22  C   UNL     1      10.719   5.191   2.159  0.00  0.00    +0.103 C 
ATOM     24  C   UNL     1      13.067   5.419   0.503  0.00  0.00    +0.123 C 
ATOM     25  C   UNL     1      10.619   5.028   0.641  0.00  0.00    +0.123 C 
ATOM     27  C   UNL     1      11.959   4.007  -1.177  0.00  0.00    +0.218 A 
ATOM     30  C   UNL     1      13.092   3.601  -3.105  0.00  0.00    +0.116 A 
ATOM     31  C   UNL     1      10.963   2.705  -2.751  0.00  0.00    +0.116 A 
ATOM     32  C   UNL     1      12.053   2.830  -3.589  0.00  0.00    +0.039 A 
ENDBRANCH  15   4
ENDBRANCH  11  15
BRANCH  13  18
ATOM     18  C   UNL     1      12.603   9.750   7.272  0.00  0.00    +0.105 C 
BRANCH  18  26
ATOM      2  O   UNL     1      14.794  10.001   6.225  0.00  0.00    -0.421 OA
ATOM      6  N   UNL     1      14.233   7.884   6.681  0.00  0.00    -0.112 NA
ATOM      7  N   UNL     1      15.487   7.878   6.097  0.00  0.00    -0.109 NA
ATOM     26  C   UNL     1      13.868   9.143   6.736  0.00  0.00    +0.218 A 
ATOM     28  C   UNL     1      15.773   9.134   5.848  0.00  0.00    +0.254 A 
BRANCH  28  29
ATOM     29  C   UNL     1      16.974   9.716   5.238  0.00  0.00    +0.326 C 
BRANCH  29   3
ATOM      3  O   UNL     1      18.090   9.595   6.126  0.00  0.00    -0.483 OA
BRANCH   3  33
ATOM      1  F   UNL     1      22.094   6.165   4.575  0.00  0.00    -0.205 F 
ATOM     33  C   UNL     1      19.085   8.742   5.740  0.00  0.00    +0.121 A 
ATOM     34  C   UNL     1      19.107   8.237   4.440  0.00  0.00    +0.048 A 
ATOM     35  C   UNL     1      20.080   8.376   6.646  0.00  0.00    +0.048 A 
ATOM     36  C   UNL     1      20.123   7.367   4.046  0.00  0.00    +0.042 A 
ATOM     37  C   UNL     1      21.097   7.507   6.253  0.00  0.00    +0.042 A 
ATOM     38  C   UNL     1      21.118   7.001   4.953  0.00  0.00    +0.124 A 
ENDBRANCH   3  33
ENDBRANCH  29   3
ENDBRANCH  28  29
ENDBRANCH  18  26
ENDBRANCH  13  18
TORSDOF 8
ENDMDL
