MODEL 1
REMARK VINA RESULT:      -6.5      0.000      0.000
REMARK  Name = 11879859
REMARK  7 active torsions:
REMARK  status: ('A' for Active; 'I' for Inactive)
REMARK    1  A    between atoms: S_1  and  N_11
REMARK    2  A    between atoms: S_1  and  C_27
REMARK    3  A    between atoms: O_7  and  C_26
REMARK    4  A    between atoms: N_11  and  C_22
REMARK    5  A    between atoms: C_21  and  C_24
REMARK    6  A    between atoms: C_24  and  C_25
REMARK    7  A    between atoms: C_25  and  C_26
REMARK                            x       y       z     vdW  Elec       q    Type
REMARK                         _______ _______ _______ _____ _____    ______ ____
ROOT
ATOM      3  O   UNL     1      17.158   9.395  21.603  0.00  0.00    -0.266 OA
ATOM      4  O   UNL     1      11.977  10.637  22.182  0.00  0.00    -0.276 OA
ATOM      9  N   UNL     1      12.503  10.325  19.939  0.00  0.00    -0.301 N 
ATOM     10  N   UNL     1      15.578   9.455  19.874  0.00  0.00    -0.310 N 
ATOM     12  C   UNL     1      14.461  11.615  19.079  0.00  0.00    +0.027 C 
ATOM     13  C   UNL     1      13.856   9.472  18.034  0.00  0.00    +0.054 C 
ATOM     14  C   UNL     1      14.335  10.893  17.743  0.00  0.00    +0.018 C 
ATOM     15  C   UNL     1      13.103  11.652  19.801  0.00  0.00    +0.113 C 
ATOM     16  C   UNL     1      15.541  10.923  19.917  0.00  0.00    +0.130 C 
ATOM     17  C   UNL     1      12.471   9.521  18.708  0.00  0.00    +0.117 C 
ATOM     18  C   UNL     1      14.839   8.736  18.926  0.00  0.00    +0.027 A 
ATOM     19  C   UNL     1      14.974   7.401  18.826  0.00  0.00    +0.024 A 
ATOM     20  C   UNL     1      16.470   8.818  20.762  0.00  0.00    +0.274 A 
ATOM     21  C   UNL     1      11.940   9.947  21.159  0.00  0.00    +0.216 C 
ATOM     22  C   UNL     1      16.559   7.343  20.619  0.00  0.00    +0.112 A 
ATOM     23  C   UNL     1      15.860   6.678  19.698  0.00  0.00    +0.031 A 
ENDROOT
BRANCH  22  11
ATOM     11  N   UNL     1      17.409   6.600  21.456  0.00  0.00    -0.211 N 
ATOM     31  H   UNL     1      17.350   6.899  22.439  0.00  0.00    +0.174 HD
BRANCH  11   1
ATOM      1  S   UNL     1      19.004   6.394  20.891  0.00  0.00    +0.079 S 
ATOM      5  O   UNL     1      19.182   5.045  20.391  0.00  0.00    -0.149 OA
ATOM      6  O   UNL     1      19.377   7.553  20.102  0.00  0.00    -0.149 OA
BRANCH   1  27
ATOM      2  S   UNL     1      21.412   5.403  22.222  0.00  0.00    -0.077 S 
ATOM     27  C   UNL     1      20.077   6.449  22.327  0.00  0.00    +0.146 A 
ATOM     28  C   UNL     1      20.023   7.166  23.473  0.00  0.00    +0.036 A 
ATOM     29  C   UNL     1      21.124   6.855  24.323  0.00  0.00    +0.010 A 
ATOM     30  C   UNL     1      21.957   5.910  23.764  0.00  0.00    +0.047 A 
ENDBRANCH   1  27
ENDBRANCH  11   1
ENDBRANCH  22  11
BRANCH  21  24
ATOM     24  C   UNL     1      11.258   8.603  21.200  0.00  0.00    +0.107 C 
BRANCH  24  25
ATOM     25  C   UNL     1      12.274   7.520  21.506  0.00  0.00    +0.129 C 
BRANCH  25  26
ATOM      8  O   UNL     1      11.191   5.379  21.794  0.00  0.00    -0.251 OA
ATOM     26  C   UNL     1      11.777   6.166  21.062  0.00  0.00    +0.305 C 
BRANCH  26   7
ATOM      7  O   UNL     1      12.070   5.902  19.765  0.00  0.00    -0.481 OA
ATOM     32  H   UNL     1      12.737   5.189  19.678  0.00  0.00    +0.295 HD
ENDBRANCH  26   7
ENDBRANCH  25  26
ENDBRANCH  24  25
ENDBRANCH  21  24
TORSDOF 7
ENDMDL
MODEL 2
REMARK VINA RESULT:      -6.5     15.294     17.675
REMARK  Name = 11879859
REMARK  7 active torsions:
REMARK  status: ('A' for Active; 'I' for Inactive)
REMARK    1  A    between atoms: S_1  and  N_11
REMARK    2  A    between atoms: S_1  and  C_27
REMARK    3  A    between atoms: O_7  and  C_26
REMARK    4  A    between atoms: N_11  and  C_22
REMARK    5  A    between atoms: C_21  and  C_24
REMARK    6  A    between atoms: C_24  and  C_25
REMARK    7  A    between atoms: C_25  and  C_26
REMARK                            x       y       z     vdW  Elec       q    Type
REMARK                         _______ _______ _______ _____ _____    ______ ____
ROOT
ATOM      3  O   UNL     1      12.276   8.161   2.454  0.00  0.00    -0.266 OA
ATOM      4  O   UNL     1      11.971   6.592   7.569  0.00  0.00    -0.276 OA
ATOM      9  N   UNL     1      10.494   8.338   7.155  0.00  0.00    -0.301 N 
ATOM     10  N   UNL     1      10.755   8.983   4.035  0.00  0.00    -0.310 N 
ATOM     12  C   UNL     1      11.464  10.366   6.068  0.00  0.00    +0.027 C 
ATOM     13  C   UNL     1       9.090   9.820   5.733  0.00  0.00    +0.054 C 
ATOM     14  C   UNL     1      10.068  10.968   5.970  0.00  0.00    +0.018 C 
ATOM     15  C   UNL     1      11.538   9.360   7.230  0.00  0.00    +0.113 C 
ATOM     16  C   UNL     1      11.822   9.722   4.724  0.00  0.00    +0.130 C 
ATOM     17  C   UNL     1       9.133   8.847   6.928  0.00  0.00    +0.117 C 
ATOM     18  C   UNL     1       9.421   9.077   4.452  0.00  0.00    +0.027 A 
ATOM     19  C   UNL     1       8.441   8.488   3.740  0.00  0.00    +0.024 A 
ATOM     20  C   UNL     1      11.127   8.265   2.879  0.00  0.00    +0.274 A 
ATOM     21  C   UNL     1      10.822   7.000   7.380  0.00  0.00    +0.216 C 
ATOM     22  C   UNL     1      10.007   7.619   2.150  0.00  0.00    +0.112 A 
ATOM     23  C   UNL     1       8.740   7.734   2.552  0.00  0.00    +0.031 A 
ENDROOT
BRANCH  22  11
ATOM     11  N   UNL     1      10.257   6.869   0.988  0.00  0.00    -0.211 N 
ATOM     31  H   UNL     1       9.602   7.093   0.227  0.00  0.00    +0.174 HD
BRANCH  11   1
ATOM      1  S   UNL     1      10.492   5.197   1.227  0.00  0.00    +0.079 S 
ATOM      5  O   UNL     1      10.369   4.877   2.637  0.00  0.00    -0.149 OA
ATOM      6  O   UNL     1       9.751   4.468   0.215  0.00  0.00    -0.149 OA
BRANCH   1  27
ATOM      2  S   UNL     1      12.785   3.416   1.574  0.00  0.00    -0.077 S 
ATOM     27  C   UNL     1      12.215   4.855   0.872  0.00  0.00    +0.146 A 
ATOM     28  C   UNL     1      13.144   5.527   0.152  0.00  0.00    +0.036 A 
ATOM     29  C   UNL     1      14.394   4.841   0.165  0.00  0.00    +0.010 A 
ATOM     30  C   UNL     1      14.338   3.679   0.902  0.00  0.00    +0.047 A 
ENDBRANCH   1  27
ENDBRANCH  11   1
ENDBRANCH  22  11
BRANCH  21  24
ATOM     24  C   UNL     1       9.680   6.015   7.379  0.00  0.00    +0.107 C 
BRANCH  24  25
ATOM     25  C   UNL     1       9.195   5.790   8.798  0.00  0.00    +0.129 C 
BRANCH  25  26
ATOM      8  O   UNL     1      10.015   4.420  10.613  0.00  0.00    -0.251 OA
ATOM     26  C   UNL     1       9.848   4.575   9.410  0.00  0.00    +0.305 C 
BRANCH  26   7
ATOM      7  O   UNL     1      10.255   3.676   8.479  0.00  0.00    -0.481 OA
ATOM     32  H   UNL     1       9.986   3.940   7.573  0.00  0.00    +0.295 HD
ENDBRANCH  26   7
ENDBRANCH  25  26
ENDBRANCH  24  25
ENDBRANCH  21  24
TORSDOF 7
ENDMDL
MODEL 3
REMARK VINA RESULT:      -6.5     28.004     29.711
REMARK  Name = 11879859
REMARK  7 active torsions:
REMARK  status: ('A' for Active; 'I' for Inactive)
REMARK    1  A    between atoms: S_1  and  N_11
REMARK    2  A    between atoms: S_1  and  C_27
REMARK    3  A    between atoms: O_7  and  C_26
REMARK    4  A    between atoms: N_11  and  C_22
REMARK    5  A    between atoms: C_21  and  C_24
REMARK    6  A    between atoms: C_24  and  C_25
REMARK    7  A    between atoms: C_25  and  C_26
REMARK                            x       y       z     vdW  Elec       q    Type
REMARK                         _______ _______ _______ _____ _____    ______ ____
ROOT
ATOM      3  O   UNL     1      -4.610 -14.217  15.535  0.00  0.00    -0.266 OA
ATOM      4  O   UNL     1      -9.368 -11.773  15.868  0.00  0.00    -0.276 OA
ATOM      9  N   UNL     1      -7.891 -10.916  17.444  0.00  0.00    -0.301 N 
ATOM     10  N   UNL     1      -5.112 -12.414  16.946  0.00  0.00    -0.310 N 
ATOM     12  C   UNL     1      -6.748 -12.588  18.905  0.00  0.00    +0.027 C 
ATOM     13  C   UNL     1      -5.651 -10.441  18.419  0.00  0.00    +0.054 C 
ATOM     14  C   UNL     1      -5.916 -11.469  19.518  0.00  0.00    +0.018 C 
ATOM     15  C   UNL     1      -8.079 -12.038  18.365  0.00  0.00    +0.113 C 
ATOM     16  C   UNL     1      -5.924 -13.279  17.813  0.00  0.00    +0.130 C 
ATOM     17  C   UNL     1      -6.989  -9.857  17.923  0.00  0.00    +0.117 C 
ATOM     18  C   UNL     1      -4.899 -11.065  17.257  0.00  0.00    +0.027 A 
ATOM     19  C   UNL     1      -4.059 -10.318  16.516  0.00  0.00    +0.024 A 
ATOM     20  C   UNL     1      -4.478 -13.035  15.849  0.00  0.00    +0.274 A 
ATOM     21  C   UNL     1      -8.615 -10.874  16.252  0.00  0.00    +0.216 C 
ATOM     22  C   UNL     1      -3.582 -12.155  15.057  0.00  0.00    +0.112 A 
ATOM     23  C   UNL     1      -3.379 -10.877  15.379  0.00  0.00    +0.031 A 
ENDROOT
BRANCH  22  11
ATOM     11  N   UNL     1      -2.903 -12.661  13.935  0.00  0.00    -0.211 N 
ATOM     31  H   UNL     1      -1.936 -12.315  13.872  0.00  0.00    +0.174 HD
BRANCH  11   1
ATOM      1  S   UNL     1      -3.759 -12.591  12.462  0.00  0.00    +0.079 S 
ATOM      5  O   UNL     1      -3.325 -13.662  11.586  0.00  0.00    -0.149 OA
ATOM      6  O   UNL     1      -5.163 -12.362  12.744  0.00  0.00    -0.149 OA
BRANCH   1  27
ATOM      2  S   UNL     1      -4.284 -10.582  10.403  0.00  0.00    -0.077 S 
ATOM     27  C   UNL     1      -3.212 -11.111  11.611  0.00  0.00    +0.146 A 
ATOM     28  C   UNL     1      -2.110 -10.338  11.751  0.00  0.00    +0.036 A 
ATOM     29  C   UNL     1      -2.127  -9.252  10.828  0.00  0.00    +0.010 A 
ATOM     30  C   UNL     1      -3.253  -9.266  10.035  0.00  0.00    +0.047 A 
ENDBRANCH   1  27
ENDBRANCH  11   1
ENDBRANCH  22  11
BRANCH  21  24
ATOM     24  C   UNL     1      -8.440  -9.644  15.399  0.00  0.00    +0.107 C 
BRANCH  24  25
ATOM     25  C   UNL     1      -9.753  -8.893  15.303  0.00  0.00    +0.129 C 
BRANCH  25  26
ATOM      8  O   UNL     1      -9.888  -7.880  17.494  0.00  0.00    -0.251 OA
ATOM     26  C   UNL     1      -9.797  -7.744  16.281  0.00  0.00    +0.305 C 
BRANCH  26   7
ATOM      7  O   UNL     1      -9.745  -6.536  15.667  0.00  0.00    -0.481 OA
ATOM     32  H   UNL     1      -8.930  -6.041  15.901  0.00  0.00    +0.295 HD
ENDBRANCH  26   7
ENDBRANCH  25  26
ENDBRANCH  24  25
ENDBRANCH  21  24
TORSDOF 7
ENDMDL
MODEL 4
REMARK VINA RESULT:      -6.3     16.073     18.106
REMARK  Name = 11879859
REMARK  7 active torsions:
REMARK  status: ('A' for Active; 'I' for Inactive)
REMARK    1  A    between atoms: S_1  and  N_11
REMARK    2  A    between atoms: S_1  and  C_27
REMARK    3  A    between atoms: O_7  and  C_26
REMARK    4  A    between atoms: N_11  and  C_22
REMARK    5  A    between atoms: C_21  and  C_24
REMARK    6  A    between atoms: C_24  and  C_25
REMARK    7  A    between atoms: C_25  and  C_26
REMARK                            x       y       z     vdW  Elec       q    Type
REMARK                         _______ _______ _______ _____ _____    ______ ____
ROOT
ATOM      3  O   UNL     1      12.825   7.915   2.546  0.00  0.00    -0.266 OA
ATOM      4  O   UNL     1      11.336   8.571   7.652  0.00  0.00    -0.276 OA
ATOM      9  N   UNL     1       9.524   7.938   6.342  0.00  0.00    -0.301 N 
ATOM     10  N   UNL     1      10.691   7.468   3.403  0.00  0.00    -0.310 N 
ATOM     12  C   UNL     1       9.128   9.294   4.282  0.00  0.00    +0.027 C 
ATOM     13  C   UNL     1       8.415   6.941   4.350  0.00  0.00    +0.054 C 
ATOM     14  C   UNL     1       8.013   8.337   3.880  0.00  0.00    +0.018 C 
ATOM     15  C   UNL     1       9.322   9.285   5.809  0.00  0.00    +0.113 C 
ATOM     16  C   UNL     1      10.409   8.904   3.536  0.00  0.00    +0.130 C 
ATOM     17  C   UNL     1       8.553   6.932   5.885  0.00  0.00    +0.117 C 
ATOM     18  C   UNL     1       9.721   6.505   3.712  0.00  0.00    +0.027 A 
ATOM     19  C   UNL     1       9.955   5.201   3.474  0.00  0.00    +0.024 A 
ATOM     20  C   UNL     1      11.942   7.117   2.854  0.00  0.00    +0.274 A 
ATOM     21  C   UNL     1      10.531   7.712   7.282  0.00  0.00    +0.216 C 
ATOM     22  C   UNL     1      12.150   5.663   2.636  0.00  0.00    +0.112 A 
ATOM     23  C   UNL     1      11.208   4.762   2.920  0.00  0.00    +0.031 A 
ENDROOT
BRANCH  22  11
ATOM     11  N   UNL     1      13.362   5.193   2.102  0.00  0.00    -0.211 N 
ATOM     31  H   UNL     1      14.028   5.954   1.911  0.00  0.00    +0.174 HD
BRANCH  11   1
ATOM      1  S   UNL     1      13.219   4.066   0.831  0.00  0.00    +0.079 S 
ATOM      5  O   UNL     1      13.333   2.717   1.351  0.00  0.00    -0.149 OA
ATOM      6  O   UNL     1      12.117   4.459  -0.026  0.00  0.00    -0.149 OA
BRANCH   1  27
ATOM      2  S   UNL     1      14.347   4.704  -1.790  0.00  0.00    -0.077 S 
ATOM     27  C   UNL     1      14.682   4.242  -0.190  0.00  0.00    +0.146 A 
ATOM     28  C   UNL     1      15.999   4.076   0.075  0.00  0.00    +0.036 A 
ATOM     29  C   UNL     1      16.790   4.336  -1.082  0.00  0.00    +0.010 A 
ATOM     30  C   UNL     1      16.018   4.688  -2.167  0.00  0.00    +0.047 A 
ENDBRANCH   1  27
ENDBRANCH  11   1
ENDBRANCH  22  11
BRANCH  21  24
ATOM     24  C   UNL     1      10.619   6.321   7.856  0.00  0.00    +0.107 C 
BRANCH  24  25
ATOM     25  C   UNL     1       9.459   6.081   8.801  0.00  0.00    +0.129 C 
BRANCH  25  26
ATOM      8  O   UNL     1       8.832   4.294  10.303  0.00  0.00    -0.251 OA
ATOM     26  C   UNL     1       9.467   4.665   9.325  0.00  0.00    +0.305 C 
BRANCH  26   7
ATOM      7  O   UNL     1      10.275   3.848   8.605  0.00  0.00    -0.481 OA
ATOM     32  H   UNL     1       9.931   2.929   8.573  0.00  0.00    +0.295 HD
ENDBRANCH  26   7
ENDBRANCH  25  26
ENDBRANCH  24  25
ENDBRANCH  21  24
TORSDOF 7
ENDMDL
MODEL 5
REMARK VINA RESULT:      -6.2     27.476     29.642
REMARK  Name = 11879859
REMARK  7 active torsions:
REMARK  status: ('A' for Active; 'I' for Inactive)
REMARK    1  A    between atoms: S_1  and  N_11
REMARK    2  A    between atoms: S_1  and  C_27
REMARK    3  A    between atoms: O_7  and  C_26
REMARK    4  A    between atoms: N_11  and  C_22
REMARK    5  A    between atoms: C_21  and  C_24
REMARK    6  A    between atoms: C_24  and  C_25
REMARK    7  A    between atoms: C_25  and  C_26
REMARK                            x       y       z     vdW  Elec       q    Type
REMARK                         _______ _______ _______ _____ _____    ______ ____
ROOT
ATOM      3  O   UNL     1      -6.231 -10.211  15.215  0.00  0.00    -0.266 OA
ATOM      4  O   UNL     1      -4.878 -14.640  12.518  0.00  0.00    -0.276 OA
ATOM      9  N   UNL     1      -3.216 -13.026  12.334  0.00  0.00    -0.301 N 
ATOM     10  N   UNL     1      -4.183 -10.567  14.134  0.00  0.00    -0.310 N 
ATOM     12  C   UNL     1      -3.961 -10.760  11.592  0.00  0.00    +0.027 C 
ATOM     13  C   UNL     1      -1.965 -10.985  13.011  0.00  0.00    +0.054 C 
ATOM     14  C   UNL     1      -2.548 -10.235  11.816  0.00  0.00    +0.018 C 
ATOM     15  C   UNL     1      -3.935 -12.272  11.307  0.00  0.00    +0.113 C 
ATOM     16  C   UNL     1      -4.817 -10.419  12.817  0.00  0.00    +0.130 C 
ATOM     17  C   UNL     1      -1.894 -12.491  12.693  0.00  0.00    +0.117 C 
ATOM     18  C   UNL     1      -2.801 -10.760  14.258  0.00  0.00    +0.027 A 
ATOM     19  C   UNL     1      -2.222 -10.777  15.473  0.00  0.00    +0.024 A 
ATOM     20  C   UNL     1      -5.017 -10.401  15.260  0.00  0.00    +0.274 A 
ATOM     21  C   UNL     1      -3.766 -14.208  12.832  0.00  0.00    +0.216 C 
ATOM     22  C   UNL     1      -4.324 -10.452  16.572  0.00  0.00    +0.112 A 
ATOM     23  C   UNL     1      -3.005 -10.619  16.669  0.00  0.00    +0.031 A 
ENDROOT
BRANCH  22  11
ATOM     11  N   UNL     1      -5.054 -10.308  17.764  0.00  0.00    -0.211 N 
ATOM     31  H   UNL     1      -4.783  -9.466  18.290  0.00  0.00    +0.174 HD
BRANCH  11   1
ATOM      1  S   UNL     1      -5.180 -11.711  18.724  0.00  0.00    +0.079 S 
ATOM      5  O   UNL     1      -3.866 -12.117  19.183  0.00  0.00    -0.149 OA
ATOM      6  O   UNL     1      -6.291 -11.554  19.643  0.00  0.00    -0.149 OA
BRANCH   1  27
ATOM      2  S   UNL     1      -7.333 -13.073  17.288  0.00  0.00    -0.077 S 
ATOM     27  C   UNL     1      -5.670 -13.047  17.634  0.00  0.00    +0.146 A 
ATOM     28  C   UNL     1      -4.964 -14.036  17.037  0.00  0.00    +0.036 A 
ATOM     29  C   UNL     1      -5.814 -14.868  16.251  0.00  0.00    +0.010 A 
ATOM     30  C   UNL     1      -7.128 -14.456  16.300  0.00  0.00    +0.047 A 
ENDBRANCH   1  27
ENDBRANCH  11   1
ENDBRANCH  22  11
BRANCH  21  24
ATOM     24  C   UNL     1      -2.927 -14.980  13.819  0.00  0.00    +0.107 C 
BRANCH  24  25
ATOM     25  C   UNL     1      -2.208 -16.110  13.110  0.00  0.00    +0.129 C 
BRANCH  25  26
ATOM      8  O   UNL     1      -0.306 -16.615  14.514  0.00  0.00    -0.251 OA
ATOM     26  C   UNL     1      -0.744 -16.138  13.475  0.00  0.00    +0.305 C 
BRANCH  26   7
ATOM      7  O   UNL     1       0.039 -15.556  12.533  0.00  0.00    -0.481 OA
ATOM     32  H   UNL     1       0.994 -15.694  12.714  0.00  0.00    +0.295 HD
ENDBRANCH  26   7
ENDBRANCH  25  26
ENDBRANCH  24  25
ENDBRANCH  21  24
TORSDOF 7
ENDMDL
MODEL 6
REMARK VINA RESULT:      -6.2     17.869     20.282
REMARK  Name = 11879859
REMARK  7 active torsions:
REMARK  status: ('A' for Active; 'I' for Inactive)
REMARK    1  A    between atoms: S_1  and  N_11
REMARK    2  A    between atoms: S_1  and  C_27
REMARK    3  A    between atoms: O_7  and  C_26
REMARK    4  A    between atoms: N_11  and  C_22
REMARK    5  A    between atoms: C_21  and  C_24
REMARK    6  A    between atoms: C_24  and  C_25
REMARK    7  A    between atoms: C_25  and  C_26
REMARK                            x       y       z     vdW  Elec       q    Type
REMARK                         _______ _______ _______ _____ _____    ______ ____
ROOT
ATOM      3  O   UNL     1      12.334   7.575   3.120  0.00  0.00    -0.266 OA
ATOM      4  O   UNL     1      12.171   6.317  -2.087  0.00  0.00    -0.276 OA
ATOM      9  N   UNL     1      12.953   4.524  -0.831  0.00  0.00    -0.301 N 
ATOM     10  N   UNL     1      12.814   5.465   2.220  0.00  0.00    -0.310 N 
ATOM     12  C   UNL     1      14.843   5.013   0.728  0.00  0.00    +0.027 C 
ATOM     13  C   UNL     1      13.276   3.188   1.243  0.00  0.00    +0.054 C 
ATOM     14  C   UNL     1      14.749   3.592   1.270  0.00  0.00    +0.018 C 
ATOM     15  C   UNL     1      14.302   5.078  -0.712  0.00  0.00    +0.113 C 
ATOM     16  C   UNL     1      14.086   5.955   1.671  0.00  0.00    +0.130 C 
ATOM     17  C   UNL     1      12.761   3.205  -0.210  0.00  0.00    +0.117 C 
ATOM     18  C   UNL     1      12.438   4.121   2.098  0.00  0.00    +0.027 A 
ATOM     19  C   UNL     1      11.327   3.666   2.707  0.00  0.00    +0.024 A 
ATOM     20  C   UNL     1      12.048   6.389   2.962  0.00  0.00    +0.274 A 
ATOM     21  C   UNL     1      11.990   5.209  -1.572  0.00  0.00    +0.216 C 
ATOM     22  C   UNL     1      10.823   5.833   3.591  0.00  0.00    +0.112 A 
ATOM     23  C   UNL     1      10.491   4.546   3.477  0.00  0.00    +0.031 A 
ENDROOT
BRANCH  22  11
ATOM     11  N   UNL     1       9.976   6.661   4.346  0.00  0.00    -0.211 N 
ATOM     31  H   UNL     1       9.943   7.624   3.983  0.00  0.00    +0.174 HD
BRANCH  11   1
ATOM      1  S   UNL     1      10.171   6.568   6.038  0.00  0.00    +0.079 S 
ATOM      5  O   UNL     1       9.100   5.780   6.617  0.00  0.00    -0.149 OA
ATOM      6  O   UNL     1      11.564   6.294   6.336  0.00  0.00    -0.149 OA
BRANCH   1  27
ATOM      2  S   UNL     1       9.855   9.424   5.500  0.00  0.00    -0.077 S 
ATOM     27  C   UNL     1       9.876   8.212   6.689  0.00  0.00    +0.146 A 
ATOM     28  C   UNL     1       9.666   8.665   7.947  0.00  0.00    +0.036 A 
ATOM     29  C   UNL     1       9.477  10.078   7.956  0.00  0.00    +0.010 A 
ATOM     30  C   UNL     1       9.556  10.618   6.691  0.00  0.00    +0.047 A 
ENDBRANCH   1  27
ENDBRANCH  11   1
ENDBRANCH  22  11
BRANCH  21  24
ATOM     24  C   UNL     1      10.652   4.533  -1.730  0.00  0.00    +0.107 C 
BRANCH  24  25
ATOM     25  C   UNL     1      10.356   4.317  -3.201  0.00  0.00    +0.129 C 
BRANCH  25  26
ATOM      8  O   UNL     1      10.201   1.948  -2.747  0.00  0.00    -0.251 OA
ATOM     26  C   UNL     1       9.917   2.897  -3.465  0.00  0.00    +0.305 C 
BRANCH  26   7
ATOM      7  O   UNL     1       9.188   2.780  -4.603  0.00  0.00    -0.481 OA
ATOM     32  H   UNL     1       8.687   3.600  -4.803  0.00  0.00    +0.295 HD
ENDBRANCH  26   7
ENDBRANCH  25  26
ENDBRANCH  24  25
ENDBRANCH  21  24
TORSDOF 7
ENDMDL
MODEL 7
REMARK VINA RESULT:      -6.1     27.982     30.096
REMARK  Name = 11879859
REMARK  7 active torsions:
REMARK  status: ('A' for Active; 'I' for Inactive)
REMARK    1  A    between atoms: S_1  and  N_11
REMARK    2  A    between atoms: S_1  and  C_27
REMARK    3  A    between atoms: O_7  and  C_26
REMARK    4  A    between atoms: N_11  and  C_22
REMARK    5  A    between atoms: C_21  and  C_24
REMARK    6  A    between atoms: C_24  and  C_25
REMARK    7  A    between atoms: C_25  and  C_26
REMARK                            x       y       z     vdW  Elec       q    Type
REMARK                         _______ _______ _______ _____ _____    ______ ____
ROOT
ATOM      3  O   UNL     1      -6.524  -9.833  14.023  0.00  0.00    -0.266 OA
ATOM      4  O   UNL     1      -4.964 -14.739  12.533  0.00  0.00    -0.276 OA
ATOM      9  N   UNL     1      -3.129 -13.335  12.789  0.00  0.00    -0.301 N 
ATOM     10  N   UNL     1      -4.301 -10.544  13.816  0.00  0.00    -0.310 N 
ATOM     12  C   UNL     1      -3.234 -11.156  11.573  0.00  0.00    +0.027 C 
ATOM     13  C   UNL     1      -1.915 -11.338  13.641  0.00  0.00    +0.054 C 
ATOM     14  C   UNL     1      -1.929 -10.735  12.238  0.00  0.00    +0.018 C 
ATOM     15  C   UNL     1      -3.327 -12.689  11.491  0.00  0.00    +0.113 C 
ATOM     16  C   UNL     1      -4.406 -10.547  12.351  0.00  0.00    +0.130 C 
ATOM     17  C   UNL     1      -1.954 -12.875  13.545  0.00  0.00    +0.117 C 
ATOM     18  C   UNL     1      -3.093 -10.842  14.460  0.00  0.00    +0.027 A 
ATOM     19  C   UNL     1      -2.984 -10.720  15.796  0.00  0.00    +0.024 A 
ATOM     20  C   UNL     1      -5.443 -10.125  14.531  0.00  0.00    +0.274 A 
ATOM     21  C   UNL     1      -3.982 -14.368  13.182  0.00  0.00    +0.216 C 
ATOM     22  C   UNL     1      -5.268 -10.032  16.003  0.00  0.00    +0.112 A 
ATOM     23  C   UNL     1      -4.105 -10.304  16.596  0.00  0.00    +0.031 A 
ENDROOT
BRANCH  22  11
ATOM     11  N   UNL     1      -6.340  -9.635  16.820  0.00  0.00    -0.211 N 
ATOM     31  H   UNL     1      -6.178  -8.720  17.261  0.00  0.00    +0.174 HD
BRANCH  11   1
ATOM      1  S   UNL     1      -6.930 -10.823  17.890  0.00  0.00    +0.079 S 
ATOM      5  O   UNL     1      -7.045 -12.095  17.203  0.00  0.00    -0.149 OA
ATOM      6  O   UNL     1      -6.234 -10.704  19.157  0.00  0.00    -0.149 OA
BRANCH   1  27
ATOM      2  S   UNL     1      -9.300 -11.291  19.538  0.00  0.00    -0.077 S 
ATOM     27  C   UNL     1      -8.632 -10.396  18.258  0.00  0.00    +0.146 A 
ATOM     28  C   UNL     1      -9.481  -9.496  17.709  0.00  0.00    +0.036 A 
ATOM     29  C   UNL     1     -10.749  -9.528  18.357  0.00  0.00    +0.010 A 
ATOM     30  C   UNL     1     -10.788 -10.461  19.371  0.00  0.00    +0.047 A 
ENDBRANCH   1  27
ENDBRANCH  11   1
ENDBRANCH  22  11
BRANCH  21  24
ATOM     24  C   UNL     1      -3.661 -15.048  14.489  0.00  0.00    +0.107 C 
BRANCH  24  25
ATOM     25  C   UNL     1      -4.436 -14.391  15.614  0.00  0.00    +0.129 C 
BRANCH  25  26
ATOM      8  O   UNL     1      -5.278 -16.420  16.622  0.00  0.00    -0.251 OA
ATOM     26  C   UNL     1      -4.681 -15.359  16.745  0.00  0.00    +0.305 C 
BRANCH  26   7
ATOM      7  O   UNL     1      -4.184 -14.916  17.927  0.00  0.00    -0.481 OA
ATOM     32  H   UNL     1      -3.282 -15.262  18.098  0.00  0.00    +0.295 HD
ENDBRANCH  26   7
ENDBRANCH  25  26
ENDBRANCH  24  25
ENDBRANCH  21  24
TORSDOF 7
ENDMDL
MODEL 8
REMARK VINA RESULT:      -6.1     28.018     30.359
REMARK  Name = 11879859
REMARK  7 active torsions:
REMARK  status: ('A' for Active; 'I' for Inactive)
REMARK    1  A    between atoms: S_1  and  N_11
REMARK    2  A    between atoms: S_1  and  C_27
REMARK    3  A    between atoms: O_7  and  C_26
REMARK    4  A    between atoms: N_11  and  C_22
REMARK    5  A    between atoms: C_21  and  C_24
REMARK    6  A    between atoms: C_24  and  C_25
REMARK    7  A    between atoms: C_25  and  C_26
REMARK                            x       y       z     vdW  Elec       q    Type
REMARK                         _______ _______ _______ _____ _____    ______ ____
ROOT
ATOM      3  O   UNL     1      -5.909 -13.634  16.335  0.00  0.00    -0.266 OA
ATOM      4  O   UNL     1      -9.997 -10.303  15.379  0.00  0.00    -0.276 OA
ATOM      9  N   UNL     1      -9.891 -10.850  17.636  0.00  0.00    -0.301 N 
ATOM     10  N   UNL     1      -7.309 -12.704  17.967  0.00  0.00    -0.310 N 
ATOM     12  C   UNL     1      -9.792 -13.287  18.174  0.00  0.00    +0.027 C 
ATOM     13  C   UNL     1      -8.790 -11.655  19.716  0.00  0.00    +0.054 C 
ATOM     14  C   UNL     1      -9.606 -12.943  19.647  0.00  0.00    +0.018 C 
ATOM     15  C   UNL     1     -10.531 -12.152  17.444  0.00  0.00    +0.113 C 
ATOM     16  C   UNL     1      -8.419 -13.573  17.555  0.00  0.00    +0.130 C 
ATOM     17  C   UNL     1      -9.564 -10.513  19.029  0.00  0.00    +0.117 C 
ATOM     18  C   UNL     1      -7.435 -11.830  19.054  0.00  0.00    +0.027 A 
ATOM     19  C   UNL     1      -6.373 -11.127  19.491  0.00  0.00    +0.024 A 
ATOM     20  C   UNL     1      -6.087 -12.872  17.283  0.00  0.00    +0.274 A 
ATOM     21  C   UNL     1      -9.715 -10.001  16.542  0.00  0.00    +0.216 C 
ATOM     22  C   UNL     1      -4.959 -12.054  17.796  0.00  0.00    +0.112 A 
ATOM     23  C   UNL     1      -5.094 -11.239  18.843  0.00  0.00    +0.031 A 
ENDROOT
BRANCH  22  11
ATOM     11  N   UNL     1      -3.694 -12.130  17.187  0.00  0.00    -0.211 N 
ATOM     31  H   UNL     1      -2.932 -12.203  17.874  0.00  0.00    +0.174 HD
BRANCH  11   1
ATOM      1  S   UNL     1      -3.403 -10.993  15.950  0.00  0.00    +0.079 S 
ATOM      5  O   UNL     1      -4.620 -10.263  15.651  0.00  0.00    -0.149 OA
ATOM      6  O   UNL     1      -2.154 -10.307  16.226  0.00  0.00    -0.149 OA
BRANCH   1  27
ATOM      2  S   UNL     1      -2.896 -10.947  13.071  0.00  0.00    -0.077 S 
ATOM     27  C   UNL     1      -3.096 -11.921  14.448  0.00  0.00    +0.146 A 
ATOM     28  C   UNL     1      -2.995 -13.250  14.207  0.00  0.00    +0.036 A 
ATOM     29  C   UNL     1      -2.740 -13.500  12.827  0.00  0.00    +0.010 A 
ATOM     30  C   UNL     1      -2.662 -12.335  12.096  0.00  0.00    +0.047 A 
ENDBRANCH   1  27
ENDBRANCH  11   1
ENDBRANCH  22  11
BRANCH  21  24
ATOM     24  C   UNL     1      -9.135  -8.640  16.831  0.00  0.00    +0.107 C 
BRANCH  24  25
ATOM     25  C   UNL     1     -10.252  -7.625  16.970  0.00  0.00    +0.129 C 
BRANCH  25  26
ATOM      8  O   UNL     1     -11.313  -7.296  14.823  0.00  0.00    -0.251 OA
ATOM     26  C   UNL     1     -10.509  -6.915  15.663  0.00  0.00    +0.305 C 
BRANCH  26   7
ATOM      7  O   UNL     1      -9.731  -5.815  15.506  0.00  0.00    -0.481 OA
ATOM     32  H   UNL     1      -9.737  -5.491  14.580  0.00  0.00    +0.295 HD
ENDBRANCH  26   7
ENDBRANCH  25  26
ENDBRANCH  24  25
ENDBRANCH  21  24
TORSDOF 7
ENDMDL
MODEL 9
REMARK VINA RESULT:      -6.1     15.543     17.939
REMARK  Name = 11879859
REMARK  7 active torsions:
REMARK  status: ('A' for Active; 'I' for Inactive)
REMARK    1  A    between atoms: S_1  and  N_11
REMARK    2  A    between atoms: S_1  and  C_27
REMARK    3  A    between atoms: O_7  and  C_26
REMARK    4  A    between atoms: N_11  and  C_22
REMARK    5  A    between atoms: C_21  and  C_24
REMARK    6  A    between atoms: C_24  and  C_25
REMARK    7  A    between atoms: C_25  and  C_26
REMARK                            x       y       z     vdW  Elec       q    Type
REMARK                         _______ _______ _______ _____ _____    ______ ____
ROOT
ATOM      3  O   UNL     1       9.287   8.166   2.860  0.00  0.00    -0.266 OA
ATOM      4  O   UNL     1      12.926   9.352   6.611  0.00  0.00    -0.276 OA
ATOM      9  N   UNL     1      11.481   7.694   7.363  0.00  0.00    -0.301 N 
ATOM     10  N   UNL     1       9.523   7.066   4.916  0.00  0.00    -0.310 N 
ATOM     12  C   UNL     1       9.041   8.189   7.164  0.00  0.00    +0.027 C 
ATOM     13  C   UNL     1       9.823   5.858   7.108  0.00  0.00    +0.054 C 
ATOM     14  C   UNL     1       8.727   6.777   7.643  0.00  0.00    +0.018 C 
ATOM     15  C   UNL     1      10.415   8.643   7.686  0.00  0.00    +0.113 C 
ATOM     16  C   UNL     1       8.967   8.221   5.633  0.00  0.00    +0.130 C 
ATOM     17  C   UNL     1      11.187   6.289   7.681  0.00  0.00    +0.117 C 
ATOM     18  C   UNL     1       9.868   5.888   5.591  0.00  0.00    +0.027 A 
ATOM     19  C   UNL     1      10.265   4.800   4.905  0.00  0.00    +0.024 A 
ATOM     20  C   UNL     1       9.592   7.167   3.510  0.00  0.00    +0.274 A 
ATOM     21  C   UNL     1      12.699   8.167   6.872  0.00  0.00    +0.216 C 
ATOM     22  C   UNL     1      10.059   5.943   2.811  0.00  0.00    +0.112 A 
ATOM     23  C   UNL     1      10.366   4.825   3.470  0.00  0.00    +0.031 A 
ENDROOT
BRANCH  22  11
ATOM     11  N   UNL     1      10.177   5.929   1.411  0.00  0.00    -0.211 N 
ATOM     31  H   UNL     1       9.867   5.038   1.000  0.00  0.00    +0.174 HD
BRANCH  11   1
ATOM      1  S   UNL     1      11.660   6.496   0.791  0.00  0.00    +0.079 S 
ATOM      5  O   UNL     1      11.575   6.631  -0.651  0.00  0.00    -0.149 OA
ATOM      6  O   UNL     1      12.138   7.579   1.629  0.00  0.00    -0.149 OA
BRANCH   1  27
ATOM      2  S   UNL     1      14.470   5.710   0.982  0.00  0.00    -0.077 S 
ATOM     27  C   UNL     1      12.857   5.180   1.014  0.00  0.00    +0.146 A 
ATOM     28  C   UNL     1      12.715   3.847   1.202  0.00  0.00    +0.036 A 
ATOM     29  C   UNL     1      13.984   3.211   1.328  0.00  0.00    +0.010 A 
ATOM     30  C   UNL     1      15.024   4.109   1.228  0.00  0.00    +0.047 A 
ENDBRANCH   1  27
ENDBRANCH  11   1
ENDBRANCH  22  11
BRANCH  21  24
ATOM     24  C   UNL     1      13.782   7.142   6.649  0.00  0.00    +0.107 C 
BRANCH  24  25
ATOM     25  C   UNL     1      15.008   7.810   6.059  0.00  0.00    +0.129 C 
BRANCH  25  26
ATOM      8  O   UNL     1      14.747   8.359   3.719  0.00  0.00    -0.251 OA
ATOM     26  C   UNL     1      15.103   7.558   4.574  0.00  0.00    +0.305 C 
BRANCH  26   7
ATOM      7  O   UNL     1      15.607   6.333   4.284  0.00  0.00    -0.481 OA
ATOM     32  H   UNL     1      15.410   5.680   4.989  0.00  0.00    +0.295 HD
ENDBRANCH  26   7
ENDBRANCH  25  26
ENDBRANCH  24  25
ENDBRANCH  21  24
TORSDOF 7
ENDMDL
MODEL 10
REMARK VINA RESULT:      -6.0     14.415     16.285
REMARK  Name = 11879859
REMARK  7 active torsions:
REMARK  status: ('A' for Active; 'I' for Inactive)
REMARK    1  A    between atoms: S_1  and  N_11
REMARK    2  A    between atoms: S_1  and  C_27
REMARK    3  A    between atoms: O_7  and  C_26
REMARK    4  A    between atoms: N_11  and  C_22
REMARK    5  A    between atoms: C_21  and  C_24
REMARK    6  A    between atoms: C_24  and  C_25
REMARK    7  A    between atoms: C_25  and  C_26
REMARK                            x       y       z     vdW  Elec       q    Type
REMARK                         _______ _______ _______ _____ _____    ______ ____
ROOT
ATOM      3  O   UNL     1      13.937   6.508   7.407  0.00  0.00    -0.266 OA
ATOM      4  O   UNL     1      10.584   4.367   3.817  0.00  0.00    -0.276 OA
ATOM      9  N   UNL     1       9.521   6.030   5.045  0.00  0.00    -0.301 N 
ATOM     10  N   UNL     1      11.750   7.239   6.991  0.00  0.00    -0.310 N 
ATOM     12  C   UNL     1       9.681   5.834   7.530  0.00  0.00    +0.027 C 
ATOM     13  C   UNL     1       9.415   8.049   6.494  0.00  0.00    +0.054 C 
ATOM     14  C   UNL     1       8.977   7.178   7.670  0.00  0.00    +0.018 C 
ATOM     15  C   UNL     1       9.298   5.160   6.201  0.00  0.00    +0.113 C 
ATOM     16  C   UNL     1      11.193   6.051   7.651  0.00  0.00    +0.130 C 
ATOM     17  C   UNL     1       8.979   7.391   5.171  0.00  0.00    +0.117 C 
ATOM     18  C   UNL     1      10.919   8.253   6.497  0.00  0.00    +0.027 A 
ATOM     19  C   UNL     1      11.449   9.387   6.000  0.00  0.00    +0.024 A 
ATOM     20  C   UNL     1      13.156   7.354   6.974  0.00  0.00    +0.274 A 
ATOM     21  C   UNL     1      10.135   5.513   3.902  0.00  0.00    +0.216 C 
ATOM     22  C   UNL     1      13.681   8.616   6.394  0.00  0.00    +0.112 A 
ATOM     23  C   UNL     1      12.873   9.577   5.945  0.00  0.00    +0.031 A 
ENDROOT
BRANCH  22  11
ATOM     11  N   UNL     1      15.066   8.837   6.316  0.00  0.00    -0.211 N 
ATOM     31  H   UNL     1      15.336   9.763   6.675  0.00  0.00    +0.174 HD
BRANCH  11   1
ATOM      1  S   UNL     1      15.794   8.436   4.827  0.00  0.00    +0.079 S 
ATOM      5  O   UNL     1      15.584   7.030   4.537  0.00  0.00    -0.149 OA
ATOM      6  O   UNL     1      15.481   9.467   3.857  0.00  0.00    -0.149 OA
BRANCH   1  27
ATOM      2  S   UNL     1      18.462   8.356   3.634  0.00  0.00    -0.077 S 
ATOM     27  C   UNL     1      17.567   8.549   5.065  0.00  0.00    +0.146 A 
ATOM     28  C   UNL     1      18.323   8.760   6.168  0.00  0.00    +0.036 A 
ATOM     29  C   UNL     1      19.710   8.766   5.842  0.00  0.00    +0.010 A 
ATOM     30  C   UNL     1      19.927   8.557   4.498  0.00  0.00    +0.047 A 
ENDBRANCH   1  27
ENDBRANCH  11   1
ENDBRANCH  22  11
BRANCH  21  24
ATOM     24  C   UNL     1      10.247   6.440   2.719  0.00  0.00    +0.107 C 
BRANCH  24  25
ATOM     25  C   UNL     1      11.511   6.130   1.942  0.00  0.00    +0.129 C 
BRANCH  25  26
ATOM      8  O   UNL     1      12.783   8.006   2.781  0.00  0.00    -0.251 OA
ATOM     26  C   UNL     1      12.711   6.804   2.561  0.00  0.00    +0.305 C 
BRANCH  26   7
ATOM      7  O   UNL     1      13.716   5.934   2.830  0.00  0.00    -0.481 OA
ATOM     32  H   UNL     1      14.566   6.223   2.434  0.00  0.00    +0.295 HD
ENDBRANCH  26   7
ENDBRANCH  25  26
ENDBRANCH  24  25
ENDBRANCH  21  24
TORSDOF 7
ENDMDL
