MODEL 1
REMARK VINA RESULT:      -6.9      0.000      0.000
REMARK  Name = 7051430
REMARK  5 active torsions:
REMARK  status: ('A' for Active; 'I' for Inactive)
REMARK    1  A    between atoms: S_1  and  N_8
REMARK    2  A    between atoms: S_1  and  C_25
REMARK    3  A    between atoms: N_8  and  C_20
REMARK    4  A    between atoms: C_19  and  C_22
REMARK    5  A    between atoms: C_29  and  C_34
REMARK                            x       y       z     vdW  Elec       q    Type
REMARK                         _______ _______ _______ _____ _____    ______ ____
ROOT
ATOM      2  O   UNL     1      -6.424  -9.689  13.821  0.00  0.00    -0.266 OA
ATOM      3  O   UNL     1      -5.329 -14.592  12.556  0.00  0.00    -0.270 OA
ATOM      6  N   UNL     1      -3.300 -13.462  12.832  0.00  0.00    -0.297 N 
ATOM      7  N   UNL     1      -4.259 -10.583  13.755  0.00  0.00    -0.310 N 
ATOM     10  C   UNL     1      -3.118 -11.316  11.583  0.00  0.00    +0.027 C 
ATOM     11  C   UNL     1      -1.946 -11.584  13.733  0.00  0.00    +0.054 C 
ATOM     12  C   UNL     1      -1.823 -11.003  12.325  0.00  0.00    +0.018 C 
ATOM     13  C   UNL     1      -3.341 -12.838  11.509  0.00  0.00    +0.113 C 
ATOM     14  C   UNL     1      -4.275 -10.596  12.286  0.00  0.00    +0.130 C 
ATOM     15  C   UNL     1      -2.123 -13.113  13.646  0.00  0.00    +0.117 C 
ATOM     16  C   UNL     1      -3.121 -10.974  14.474  0.00  0.00    +0.027 A 
ATOM     17  C   UNL     1      -3.084 -10.848  15.813  0.00  0.00    +0.024 A 
ATOM     18  C   UNL     1      -5.403 -10.063  14.397  0.00  0.00    +0.274 A 
ATOM     19  C   UNL     1      -4.345 -14.298  13.232  0.00  0.00    +0.247 C 
ATOM     20  C   UNL     1      -5.311  -9.971  15.876  0.00  0.00    +0.112 A 
ATOM     21  C   UNL     1      -4.212 -10.332  16.539  0.00  0.00    +0.031 A 
ENDROOT
BRANCH  19  22
ATOM     22  C   UNL     1      -4.290 -14.870  14.580  0.00  0.00    +0.037 A 
ATOM     23  C   UNL     1      -4.869 -14.187  15.647  0.00  0.00    +0.013 A 
ATOM     24  C   UNL     1      -3.658 -16.094  14.788  0.00  0.00    +0.013 A 
ATOM     26  C   UNL     1      -4.816 -14.732  16.931  0.00  0.00    +0.001 A 
ATOM     27  C   UNL     1      -3.606 -16.638  16.071  0.00  0.00    +0.001 A 
ATOM     28  C   UNL     1      -4.185 -15.957  17.142  0.00  0.00    +0.000 A 
ENDBRANCH  19  22
BRANCH  20   8
ATOM      8  N   UNL     1      -6.396  -9.484  16.624  0.00  0.00    -0.211 N 
ATOM     35  H   UNL     1      -6.217  -8.548  17.014  0.00  0.00    +0.174 HD
BRANCH   8   1
ATOM      1  S   UNL     1      -7.148 -10.566  17.685  0.00  0.00    +0.074 S 
ATOM      4  O   UNL     1      -7.258 -11.869  17.057  0.00  0.00    -0.150 OA
ATOM      5  O   UNL     1      -6.565 -10.440  19.007  0.00  0.00    -0.150 OA
BRANCH   1  25
ATOM     25  C   UNL     1      -8.776  -9.878  17.758  0.00  0.00    +0.126 A 
ATOM     29  C   UNL     1      -9.763 -10.445  18.550  0.00  0.00    +0.078 A 
ATOM     30  C   UNL     1      -9.031  -8.749  16.992  0.00  0.00    +0.030 A 
ATOM     31  C   UNL     1     -11.034  -9.870  18.578  0.00  0.00    +0.021 A 
ATOM     32  C   UNL     1     -10.302  -8.175  17.020  0.00  0.00    +0.002 A 
ATOM     33  C   UNL     1     -11.304  -8.736  17.813  0.00  0.00    +0.001 A 
BRANCH  29  34
ATOM      9  N   UNL     1      -9.326 -12.553  19.992  0.00  0.00    -0.191 NA
ATOM     34  C   UNL     1      -9.522 -11.610  19.347  0.00  0.00    +0.101 C 
ENDBRANCH  29  34
ENDBRANCH   1  25
ENDBRANCH   8   1
ENDBRANCH  20   8
TORSDOF 5
ENDMDL
MODEL 2
REMARK VINA RESULT:      -6.8     25.217     28.625
REMARK  Name = 7051430
REMARK  5 active torsions:
REMARK  status: ('A' for Active; 'I' for Inactive)
REMARK    1  A    between atoms: S_1  and  N_8
REMARK    2  A    between atoms: S_1  and  C_25
REMARK    3  A    between atoms: N_8  and  C_20
REMARK    4  A    between atoms: C_19  and  C_22
REMARK    5  A    between atoms: C_29  and  C_34
REMARK                            x       y       z     vdW  Elec       q    Type
REMARK                         _______ _______ _______ _____ _____    ______ ____
ROOT
ATOM      2  O   UNL     1      12.085   9.420   2.310  0.00  0.00    -0.266 OA
ATOM      3  O   UNL     1      12.202   8.222   7.349  0.00  0.00    -0.270 OA
ATOM      6  N   UNL     1      10.062   9.032   6.863  0.00  0.00    -0.297 N 
ATOM      7  N   UNL     1      10.226   9.514   3.733  0.00  0.00    -0.310 N 
ATOM     10  C   UNL     1      10.015  11.203   5.646  0.00  0.00    +0.027 C 
ATOM     11  C   UNL     1       8.228   9.550   5.270  0.00  0.00    +0.054 C 
ATOM     12  C   UNL     1       8.514  11.043   5.433  0.00  0.00    +0.018 C 
ATOM     13  C   UNL     1      10.465  10.438   6.904  0.00  0.00    +0.113 C 
ATOM     14  C   UNL     1      10.746  10.723   4.386  0.00  0.00    +0.130 C 
ATOM     15  C   UNL     1       8.641   8.803   6.554  0.00  0.00    +0.117 C 
ATOM     16  C   UNL     1       8.978   8.978   4.082  0.00  0.00    +0.027 A 
ATOM     17  C   UNL     1       8.466   7.940   3.396  0.00  0.00    +0.024 A 
ATOM     18  C   UNL     1      10.993   8.985   2.674  0.00  0.00    +0.274 A 
ATOM     19  C   UNL     1      11.014   8.036   7.091  0.00  0.00    +0.247 C 
ATOM     20  C   UNL     1      10.387   7.826   1.971  0.00  0.00    +0.112 A 
ATOM     21  C   UNL     1       9.190   7.342   2.307  0.00  0.00    +0.031 A 
ENDROOT
BRANCH  19  22
ATOM     22  C   UNL     1      10.583   6.638   6.999  0.00  0.00    +0.037 A 
ATOM     23  C   UNL     1      10.524   6.012   5.756  0.00  0.00    +0.013 A 
ATOM     24  C   UNL     1      10.233   5.944   8.154  0.00  0.00    +0.013 A 
ATOM     26  C   UNL     1      10.112   4.681   5.669  0.00  0.00    +0.001 A 
ATOM     27  C   UNL     1       9.822   4.614   8.067  0.00  0.00    +0.001 A 
ATOM     28  C   UNL     1       9.762   3.983   6.824  0.00  0.00    +0.000 A 
ENDBRANCH  19  22
BRANCH  20   8
ATOM      8  N   UNL     1      11.068   7.205   0.910  0.00  0.00    -0.211 N 
ATOM     35  H   UNL     1      10.433   6.897   0.160  0.00  0.00    +0.174 HD
BRANCH   8   1
ATOM      1  S   UNL     1      12.281   6.098   1.316  0.00  0.00    +0.074 S 
ATOM      4  O   UNL     1      13.584   6.706   1.120  0.00  0.00    -0.150 OA
ATOM      5  O   UNL     1      11.957   5.458   2.577  0.00  0.00    -0.150 OA
BRANCH   1  25
ATOM     25  C   UNL     1      12.066   4.892   0.040  0.00  0.00    +0.126 A 
ATOM     29  C   UNL     1      12.855   3.752  -0.014  0.00  0.00    +0.078 A 
ATOM     30  C   UNL     1      11.079   5.127  -0.906  0.00  0.00    +0.030 A 
ATOM     31  C   UNL     1      12.653   2.826  -1.038  0.00  0.00    +0.021 A 
ATOM     32  C   UNL     1      10.877   4.201  -1.930  0.00  0.00    +0.002 A 
ATOM     33  C   UNL     1      11.664   3.051  -1.995  0.00  0.00    +0.001 A 
BRANCH  29  34
ATOM      9  N   UNL     1      14.709   3.278   1.733  0.00  0.00    -0.191 NA
ATOM     34  C   UNL     1      13.880   3.490   0.952  0.00  0.00    +0.101 C 
ENDBRANCH  29  34
ENDBRANCH   1  25
ENDBRANCH   8   1
ENDBRANCH  20   8
TORSDOF 5
ENDMDL
MODEL 3
REMARK VINA RESULT:      -6.7     25.130     28.261
REMARK  Name = 7051430
REMARK  5 active torsions:
REMARK  status: ('A' for Active; 'I' for Inactive)
REMARK    1  A    between atoms: S_1  and  N_8
REMARK    2  A    between atoms: S_1  and  C_25
REMARK    3  A    between atoms: N_8  and  C_20
REMARK    4  A    between atoms: C_19  and  C_22
REMARK    5  A    between atoms: C_29  and  C_34
REMARK                            x       y       z     vdW  Elec       q    Type
REMARK                         _______ _______ _______ _____ _____    ______ ____
ROOT
ATOM      2  O   UNL     1      12.538   7.502   3.270  0.00  0.00    -0.266 OA
ATOM      3  O   UNL     1      13.469   7.114  -1.812  0.00  0.00    -0.270 OA
ATOM      6  N   UNL     1      13.853   5.013  -0.859  0.00  0.00    -0.297 N 
ATOM      7  N   UNL     1      13.053   5.497   2.172  0.00  0.00    -0.310 N 
ATOM     10  C   UNL     1      15.345   5.023   1.134  0.00  0.00    +0.027 C 
ATOM     11  C   UNL     1      13.551   3.345   0.957  0.00  0.00    +0.054 C 
ATOM     12  C   UNL     1      15.001   3.560   1.390  0.00  0.00    +0.018 C 
ATOM     13  C   UNL     1      15.184   5.360  -0.360  0.00  0.00    +0.113 C 
ATOM     14  C   UNL     1      14.457   5.902   2.023  0.00  0.00    +0.130 C 
ATOM     15  C   UNL     1      13.413   3.642  -0.549  0.00  0.00    +0.117 C 
ATOM     16  C   UNL     1      12.609   4.238   1.743  0.00  0.00    +0.027 A 
ATOM     17  C   UNL     1      11.348   3.840   1.989  0.00  0.00    +0.024 A 
ATOM     18  C   UNL     1      12.204   6.393   2.855  0.00  0.00    +0.274 A 
ATOM     19  C   UNL     1      13.105   5.968  -1.551  0.00  0.00    +0.247 C 
ATOM     20  C   UNL     1      10.819   5.906   3.076  0.00  0.00    +0.112 A 
ATOM     21  C   UNL     1      10.421   4.698   2.676  0.00  0.00    +0.031 A 
ENDROOT
BRANCH  19  22
ATOM     22  C   UNL     1      11.760   5.597  -1.997  0.00  0.00    +0.037 A 
ATOM     23  C   UNL     1      11.575   5.057  -3.268  0.00  0.00    +0.013 A 
ATOM     24  C   UNL     1      10.671   5.787  -1.149  0.00  0.00    +0.013 A 
ATOM     26  C   UNL     1      10.294   4.704  -3.692  0.00  0.00    +0.001 A 
ATOM     27  C   UNL     1       9.391   5.434  -1.573  0.00  0.00    +0.001 A 
ATOM     28  C   UNL     1       9.202   4.892  -2.845  0.00  0.00    +0.000 A 
ENDBRANCH  19  22
BRANCH  20   8
ATOM      8  N   UNL     1       9.878   6.720   3.733  0.00  0.00    -0.211 N 
ATOM     35  H   UNL     1      10.055   7.723   3.587  0.00  0.00    +0.174 HD
BRANCH   8   1
ATOM      1  S   UNL     1       9.462   6.292   5.316  0.00  0.00    +0.074 S 
ATOM      4  O   UNL     1       8.089   5.824   5.351  0.00  0.00    -0.150 OA
ATOM      5  O   UNL     1      10.522   5.492   5.901  0.00  0.00    -0.150 OA
BRANCH   1  25
ATOM     25  C   UNL     1       9.499   7.875   6.104  0.00  0.00    +0.126 A 
ATOM     29  C   UNL     1       9.342   8.000   7.477  0.00  0.00    +0.078 A 
ATOM     30  C   UNL     1       9.690   8.990   5.300  0.00  0.00    +0.030 A 
ATOM     31  C   UNL     1       9.376   9.267   8.059  0.00  0.00    +0.021 A 
ATOM     32  C   UNL     1       9.724  10.256   5.882  0.00  0.00    +0.002 A 
ATOM     33  C   UNL     1       9.567  10.395   7.262  0.00  0.00    +0.001 A 
BRANCH  29  34
ATOM      9  N   UNL     1       8.980   5.944   9.013  0.00  0.00    -0.191 NA
ATOM     34  C   UNL     1       9.142   6.864   8.325  0.00  0.00    +0.101 C 
ENDBRANCH  29  34
ENDBRANCH   1  25
ENDBRANCH   8   1
ENDBRANCH  20   8
TORSDOF 5
ENDMDL
MODEL 4
REMARK VINA RESULT:      -6.6     25.759     29.010
REMARK  Name = 7051430
REMARK  5 active torsions:
REMARK  status: ('A' for Active; 'I' for Inactive)
REMARK    1  A    between atoms: S_1  and  N_8
REMARK    2  A    between atoms: S_1  and  C_25
REMARK    3  A    between atoms: N_8  and  C_20
REMARK    4  A    between atoms: C_19  and  C_22
REMARK    5  A    between atoms: C_29  and  C_34
REMARK                            x       y       z     vdW  Elec       q    Type
REMARK                         _______ _______ _______ _____ _____    ______ ____
ROOT
ATOM      2  O   UNL     1       8.523   8.013   2.524  0.00  0.00    -0.266 OA
ATOM      3  O   UNL     1      11.700  10.245   5.955  0.00  0.00    -0.270 OA
ATOM      6  N   UNL     1      11.007   8.200   6.856  0.00  0.00    -0.297 N 
ATOM      7  N   UNL     1       9.244   6.999   4.509  0.00  0.00    -0.310 N 
ATOM     10  C   UNL     1       8.546   7.824   6.831  0.00  0.00    +0.027 C 
ATOM     11  C   UNL     1      10.080   5.908   6.622  0.00  0.00    +0.054 C 
ATOM     12  C   UNL     1       8.771   6.377   7.257  0.00  0.00    +0.018 C 
ATOM     13  C   UNL     1       9.712   8.711   7.305  0.00  0.00    +0.113 C 
ATOM     14  C   UNL     1       8.369   7.869   5.308  0.00  0.00    +0.130 C 
ATOM     15  C   UNL     1      11.244   6.775   7.140  0.00  0.00    +0.117 C 
ATOM     16  C   UNL     1      10.014   5.992   5.109  0.00  0.00    +0.027 A 
ATOM     17  C   UNL     1      10.720   5.132   4.353  0.00  0.00    +0.024 A 
ATOM     18  C   UNL     1       9.191   7.161   3.109  0.00  0.00    +0.274 A 
ATOM     19  C   UNL     1      11.893   9.054   6.195  0.00  0.00    +0.247 C 
ATOM     20  C   UNL     1      10.009   6.198   2.330  0.00  0.00    +0.112 A 
ATOM     21  C   UNL     1      10.720   5.236   2.919  0.00  0.00    +0.031 A 
ENDROOT
BRANCH  19  22
ATOM     22  C   UNL     1      13.162   8.495   5.721  0.00  0.00    +0.037 A 
ATOM     23  C   UNL     1      13.229   7.891   4.468  0.00  0.00    +0.013 A 
ATOM     24  C   UNL     1      14.296   8.570   6.527  0.00  0.00    +0.013 A 
ATOM     26  C   UNL     1      14.437   7.359   4.017  0.00  0.00    +0.001 A 
ATOM     27  C   UNL     1      15.504   8.039   6.076  0.00  0.00    +0.001 A 
ATOM     28  C   UNL     1      15.574   7.433   4.821  0.00  0.00    +0.000 A 
ENDBRANCH  19  22
BRANCH  20   8
ATOM      8  N   UNL     1      10.047   6.273   0.927  0.00  0.00    -0.211 N 
ATOM     35  H   UNL     1       9.814   5.377   0.477  0.00  0.00    +0.174 HD
BRANCH   8   1
ATOM      1  S   UNL     1      11.351   7.100   0.235  0.00  0.00    +0.074 S 
ATOM      4  O   UNL     1      11.017   7.493  -1.121  0.00  0.00    -0.150 OA
ATOM      5  O   UNL     1      11.863   8.080   1.174  0.00  0.00    -0.150 OA
BRANCH   1  25
ATOM     25  C   UNL     1      12.545   5.799   0.126  0.00  0.00    +0.126 A 
ATOM     29  C   UNL     1      12.262   4.617  -0.542  0.00  0.00    +0.078 A 
ATOM     30  C   UNL     1      13.775   6.003   0.734  0.00  0.00    +0.030 A 
ATOM     31  C   UNL     1      13.232   3.615  -0.603  0.00  0.00    +0.021 A 
ATOM     32  C   UNL     1      14.744   5.001   0.673  0.00  0.00    +0.002 A 
ATOM     33  C   UNL     1      14.472   3.807   0.005  0.00  0.00    +0.001 A 
BRANCH  29  34
ATOM      9  N   UNL     1       9.977   4.197  -1.688  0.00  0.00    -0.191 NA
ATOM     34  C   UNL     1      10.999   4.384  -1.175  0.00  0.00    +0.101 C 
ENDBRANCH  29  34
ENDBRANCH   1  25
ENDBRANCH   8   1
ENDBRANCH  20   8
TORSDOF 5
ENDMDL
MODEL 5
REMARK VINA RESULT:      -6.5      9.909     14.084
REMARK  Name = 7051430
REMARK  5 active torsions:
REMARK  status: ('A' for Active; 'I' for Inactive)
REMARK    1  A    between atoms: S_1  and  N_8
REMARK    2  A    between atoms: S_1  and  C_25
REMARK    3  A    between atoms: N_8  and  C_20
REMARK    4  A    between atoms: C_19  and  C_22
REMARK    5  A    between atoms: C_29  and  C_34
REMARK                            x       y       z     vdW  Elec       q    Type
REMARK                         _______ _______ _______ _____ _____    ______ ____
ROOT
ATOM      2  O   UNL     1     -12.467  -7.702   9.154  0.00  0.00    -0.266 OA
ATOM      3  O   UNL     1     -16.523  -4.838  10.632  0.00  0.00    -0.270 OA
ATOM      6  N   UNL     1     -14.666  -4.123  11.860  0.00  0.00    -0.297 N 
ATOM      7  N   UNL     1     -12.337  -5.899  10.644  0.00  0.00    -0.310 N 
ATOM     10  C   UNL     1     -13.386  -5.941  12.980  0.00  0.00    +0.027 C 
ATOM     11  C   UNL     1     -12.214  -3.920  12.201  0.00  0.00    +0.054 C 
ATOM     12  C   UNL     1     -12.291  -4.941  13.335  0.00  0.00    +0.018 C 
ATOM     13  C   UNL     1     -14.740  -5.223  12.821  0.00  0.00    +0.113 C 
ATOM     14  C   UNL     1     -12.977  -6.689  11.705  0.00  0.00    +0.130 C 
ATOM     15  C   UNL     1     -13.559  -3.177  12.083  0.00  0.00    +0.117 C 
ATOM     16  C   UNL     1     -11.885  -4.593  10.882  0.00  0.00    +0.027 A 
ATOM     17  C   UNL     1     -11.199  -3.927   9.935  0.00  0.00    +0.024 A 
ATOM     18  C   UNL     1     -12.110  -6.554   9.416  0.00  0.00    +0.274 A 
ATOM     19  C   UNL     1     -15.598  -4.051  10.822  0.00  0.00    +0.247 C 
ATOM     20  C   UNL     1     -11.370  -5.759   8.403  0.00  0.00    +0.112 A 
ATOM     21  C   UNL     1     -10.932  -4.525   8.655  0.00  0.00    +0.031 A 
ENDROOT
BRANCH  19  22
ATOM     22  C   UNL     1     -15.466  -2.959   9.854  0.00  0.00    +0.037 A 
ATOM     23  C   UNL     1     -14.648  -3.118   8.738  0.00  0.00    +0.013 A 
ATOM     24  C   UNL     1     -16.159  -1.767  10.054  0.00  0.00    +0.013 A 
ATOM     26  C   UNL     1     -14.522  -2.078   7.816  0.00  0.00    +0.001 A 
ATOM     27  C   UNL     1     -16.033  -0.729   9.132  0.00  0.00    +0.001 A 
ATOM     28  C   UNL     1     -15.215  -0.884   8.013  0.00  0.00    +0.000 A 
ENDBRANCH  19  22
BRANCH  20   8
ATOM      8  N   UNL     1     -11.100  -6.302   7.135  0.00  0.00    -0.211 N 
ATOM     35  H   UNL     1     -11.933  -6.724   6.702  0.00  0.00    +0.174 HD
BRANCH   8   1
ATOM      1  S   UNL     1      -9.677  -7.204   6.970  0.00  0.00    +0.074 S 
ATOM      4  O   UNL     1      -8.543  -6.413   7.409  0.00  0.00    -0.150 OA
ATOM      5  O   UNL     1      -9.882  -8.541   7.496  0.00  0.00    -0.150 OA
BRANCH   1  25
ATOM     25  C   UNL     1      -9.576  -7.338   5.210  0.00  0.00    +0.126 A 
ATOM     29  C   UNL     1      -8.511  -7.982   4.597  0.00  0.00    +0.078 A 
ATOM     30  C   UNL     1     -10.600  -6.775   4.462  0.00  0.00    +0.030 A 
ATOM     31  C   UNL     1      -8.469  -8.065   3.205  0.00  0.00    +0.021 A 
ATOM     32  C   UNL     1     -10.558  -6.859   3.070  0.00  0.00    +0.002 A 
ATOM     33  C   UNL     1      -9.492  -7.503   2.442  0.00  0.00    +0.001 A 
BRANCH  29  34
ATOM      9  N   UNL     1      -6.578  -9.043   5.958  0.00  0.00    -0.191 NA
ATOM     34  C   UNL     1      -7.443  -8.569   5.349  0.00  0.00    +0.101 C 
ENDBRANCH  29  34
ENDBRANCH   1  25
ENDBRANCH   8   1
ENDBRANCH  20   8
TORSDOF 5
ENDMDL
MODEL 6
REMARK VINA RESULT:      -6.4      2.624      7.720
REMARK  Name = 7051430
REMARK  5 active torsions:
REMARK  status: ('A' for Active; 'I' for Inactive)
REMARK    1  A    between atoms: S_1  and  N_8
REMARK    2  A    between atoms: S_1  and  C_25
REMARK    3  A    between atoms: N_8  and  C_20
REMARK    4  A    between atoms: C_19  and  C_22
REMARK    5  A    between atoms: C_29  and  C_34
REMARK                            x       y       z     vdW  Elec       q    Type
REMARK                         _______ _______ _______ _____ _____    ______ ____
ROOT
ATOM      2  O   UNL     1      -6.111 -13.912  14.820  0.00  0.00    -0.266 OA
ATOM      3  O   UNL     1      -9.731 -12.052  18.026  0.00  0.00    -0.270 OA
ATOM      6  N   UNL     1      -7.706 -11.015  18.567  0.00  0.00    -0.297 N 
ATOM      7  N   UNL     1      -5.744 -12.195  16.371  0.00  0.00    -0.310 N 
ATOM     10  C   UNL     1      -5.791 -12.570  18.904  0.00  0.00    +0.027 C 
ATOM     11  C   UNL     1      -5.390 -10.311  18.008  0.00  0.00    +0.054 C 
ATOM     12  C   UNL     1      -4.842 -11.377  18.955  0.00  0.00    +0.018 C 
ATOM     13  C   UNL     1      -7.206 -12.150  19.343  0.00  0.00    +0.113 C 
ATOM     14  C   UNL     1      -5.775 -13.153  17.486  0.00  0.00    +0.130 C 
ATOM     15  C   UNL     1      -6.787  -9.867  18.484  0.00  0.00    +0.117 C 
ATOM     16  C   UNL     1      -5.478 -10.836  16.587  0.00  0.00    +0.027 A 
ATOM     17  C   UNL     1      -5.340  -9.995  15.546  0.00  0.00    +0.024 A 
ATOM     18  C   UNL     1      -5.893 -12.728  15.074  0.00  0.00    +0.274 A 
ATOM     19  C   UNL     1      -8.961 -11.096  17.960  0.00  0.00    +0.247 C 
ATOM     20  C   UNL     1      -5.754 -11.747  13.968  0.00  0.00    +0.112 A 
ATOM     21  C   UNL     1      -5.483 -10.461  14.194  0.00  0.00    +0.031 A 
ENDROOT
BRANCH  19  22
ATOM     22  C   UNL     1      -9.410  -9.956  17.154  0.00  0.00    +0.037 A 
ATOM     23  C   UNL     1     -10.160  -8.942  17.746  0.00  0.00    +0.013 A 
ATOM     24  C   UNL     1      -9.084  -9.893  15.801  0.00  0.00    +0.013 A 
ATOM     26  C   UNL     1     -10.586  -7.858  16.978  0.00  0.00    +0.001 A 
ATOM     27  C   UNL     1      -9.510  -8.809  15.035  0.00  0.00    +0.001 A 
ATOM     28  C   UNL     1     -10.262  -7.791  15.623  0.00  0.00    +0.000 A 
ENDBRANCH  19  22
BRANCH  20   8
ATOM      8  N   UNL     1      -5.899 -12.160  12.632  0.00  0.00    -0.211 N 
ATOM     35  H   UNL     1      -6.748 -12.723  12.484  0.00  0.00    +0.174 HD
BRANCH   8   1
ATOM      1  S   UNL     1      -4.514 -12.738  11.850  0.00  0.00    +0.074 S 
ATOM      4  O   UNL     1      -3.564 -13.224  12.833  0.00  0.00    -0.150 OA
ATOM      5  O   UNL     1      -4.900 -13.577  10.731  0.00  0.00    -0.150 OA
BRANCH   1  25
ATOM     25  C   UNL     1      -3.861 -11.236  11.184  0.00  0.00    +0.126 A 
ATOM     29  C   UNL     1      -4.604 -10.451  10.314  0.00  0.00    +0.078 A 
ATOM     30  C   UNL     1      -2.578 -10.869  11.563  0.00  0.00    +0.030 A 
ATOM     31  C   UNL     1      -4.051  -9.273   9.811  0.00  0.00    +0.021 A 
ATOM     32  C   UNL     1      -2.025  -9.692  11.059  0.00  0.00    +0.002 A 
ATOM     33  C   UNL     1      -2.762  -8.894  10.183  0.00  0.00    +0.001 A 
BRANCH  29  34
ATOM      9  N   UNL     1      -7.003 -11.102   9.581  0.00  0.00    -0.191 NA
ATOM     34  C   UNL     1      -5.930 -10.811   9.909  0.00  0.00    +0.101 C 
ENDBRANCH  29  34
ENDBRANCH   1  25
ENDBRANCH   8   1
ENDBRANCH  20   8
TORSDOF 5
ENDMDL
MODEL 7
REMARK VINA RESULT:      -6.4     26.313     30.073
REMARK  Name = 7051430
REMARK  5 active torsions:
REMARK  status: ('A' for Active; 'I' for Inactive)
REMARK    1  A    between atoms: S_1  and  N_8
REMARK    2  A    between atoms: S_1  and  C_25
REMARK    3  A    between atoms: N_8  and  C_20
REMARK    4  A    between atoms: C_19  and  C_22
REMARK    5  A    between atoms: C_29  and  C_34
REMARK                            x       y       z     vdW  Elec       q    Type
REMARK                         _______ _______ _______ _____ _____    ______ ____
ROOT
ATOM      2  O   UNL     1      12.454   7.211   3.353  0.00  0.00    -0.266 OA
ATOM      3  O   UNL     1       8.662   9.740   5.816  0.00  0.00    -0.270 OA
ATOM      6  N   UNL     1       9.067   7.756   6.987  0.00  0.00    -0.297 N 
ATOM      7  N   UNL     1      11.507   6.520   5.381  0.00  0.00    -0.310 N 
ATOM     10  C   UNL     1       9.090   5.699   5.586  0.00  0.00    +0.027 C 
ATOM     11  C   UNL     1      10.512   5.829   7.592  0.00  0.00    +0.054 C 
ATOM     12  C   UNL     1       9.611   4.903   6.777  0.00  0.00    +0.018 C 
ATOM     13  C   UNL     1       8.292   6.925   6.066  0.00  0.00    +0.113 C 
ATOM     14  C   UNL     1      10.277   6.094   4.699  0.00  0.00    +0.130 C 
ATOM     15  C   UNL     1       9.691   7.028   8.105  0.00  0.00    +0.117 C 
ATOM     16  C   UNL     1      11.679   6.327   6.759  0.00  0.00    +0.027 A 
ATOM     17  C   UNL     1      12.853   6.617   7.347  0.00  0.00    +0.024 A 
ATOM     18  C   UNL     1      12.538   7.034   4.568  0.00  0.00    +0.274 A 
ATOM     19  C   UNL     1       9.180   9.128   6.748  0.00  0.00    +0.247 C 
ATOM     20  C   UNL     1      13.801   7.358   5.277  0.00  0.00    +0.112 A 
ATOM     21  C   UNL     1      13.950   7.151   6.586  0.00  0.00    +0.031 A 
ENDROOT
BRANCH  19  22
ATOM     22  C   UNL     1      10.001   9.921   7.668  0.00  0.00    +0.037 A 
ATOM     23  C   UNL     1       9.418  10.502   8.791  0.00  0.00    +0.013 A 
ATOM     24  C   UNL     1      11.360  10.089   7.414  0.00  0.00    +0.013 A 
ATOM     26  C   UNL     1      10.199  11.257   9.667  0.00  0.00    +0.001 A 
ATOM     27  C   UNL     1      12.141  10.843   8.290  0.00  0.00    +0.001 A 
ATOM     28  C   UNL     1      11.561  11.427   9.416  0.00  0.00    +0.000 A 
ENDBRANCH  19  22
BRANCH  20   8
ATOM      8  N   UNL     1      14.893   7.893   4.571  0.00  0.00    -0.211 N 
ATOM     35  H   UNL     1      15.772   7.396   4.771  0.00  0.00    +0.174 HD
BRANCH   8   1
ATOM      1  S   UNL     1      15.023   9.579   4.516  0.00  0.00    +0.074 S 
ATOM      4  O   UNL     1      15.182  10.013   3.141  0.00  0.00    -0.150 OA
ATOM      5  O   UNL     1      14.003  10.176   5.357  0.00  0.00    -0.150 OA
BRANCH   1  25
ATOM     25  C   UNL     1      16.578   9.815   5.326  0.00  0.00    +0.126 A 
ATOM     29  C   UNL     1      17.036  11.084   5.650  0.00  0.00    +0.078 A 
ATOM     30  C   UNL     1      17.326   8.685   5.624  0.00  0.00    +0.030 A 
ATOM     31  C   UNL     1      18.269  11.226   6.287  0.00  0.00    +0.021 A 
ATOM     32  C   UNL     1      18.558   8.827   6.261  0.00  0.00    +0.002 A 
ATOM     33  C   UNL     1      19.030  10.098   6.592  0.00  0.00    +0.001 A 
BRANCH  29  34
ATOM      9  N   UNL     1      15.671  13.219   5.108  0.00  0.00    -0.191 NA
ATOM     34  C   UNL     1      16.282  12.264   5.350  0.00  0.00    +0.101 C 
ENDBRANCH  29  34
ENDBRANCH   1  25
ENDBRANCH   8   1
ENDBRANCH  20   8
TORSDOF 5
ENDMDL
MODEL 8
REMARK VINA RESULT:      -6.3     24.614     28.616
REMARK  Name = 7051430
REMARK  5 active torsions:
REMARK  status: ('A' for Active; 'I' for Inactive)
REMARK    1  A    between atoms: S_1  and  N_8
REMARK    2  A    between atoms: S_1  and  C_25
REMARK    3  A    between atoms: N_8  and  C_20
REMARK    4  A    between atoms: C_19  and  C_22
REMARK    5  A    between atoms: C_29  and  C_34
REMARK                            x       y       z     vdW  Elec       q    Type
REMARK                         _______ _______ _______ _____ _____    ______ ____
ROOT
ATOM      2  O   UNL     1      12.818   7.890   3.087  0.00  0.00    -0.266 OA
ATOM      3  O   UNL     1      10.931   8.795   7.827  0.00  0.00    -0.270 OA
ATOM      6  N   UNL     1       9.116   8.638   6.360  0.00  0.00    -0.297 N 
ATOM      7  N   UNL     1      10.536   7.922   3.615  0.00  0.00    -0.310 N 
ATOM     10  C   UNL     1       9.295  10.050   4.317  0.00  0.00    +0.027 C 
ATOM     11  C   UNL     1       8.089   7.905   4.221  0.00  0.00    +0.054 C 
ATOM     12  C   UNL     1       8.067   9.355   3.739  0.00  0.00    +0.018 C 
ATOM     13  C   UNL     1       9.264  10.003   5.856  0.00  0.00    +0.113 C 
ATOM     14  C   UNL     1      10.554   9.386   3.745  0.00  0.00    +0.130 C 
ATOM     15  C   UNL     1       8.011   7.871   5.760  0.00  0.00    +0.117 C 
ATOM     16  C   UNL     1       9.346   7.194   3.757  0.00  0.00    +0.027 A 
ATOM     17  C   UNL     1       9.326   5.869   3.522  0.00  0.00    +0.024 A 
ATOM     18  C   UNL     1      11.747   7.304   3.243  0.00  0.00    +0.274 A 
ATOM     19  C   UNL     1      10.007   8.159   7.323  0.00  0.00    +0.247 C 
ATOM     20  C   UNL     1      11.667   5.838   3.021  0.00  0.00    +0.112 A 
ATOM     21  C   UNL     1      10.522   5.166   3.144  0.00  0.00    +0.031 A 
ENDROOT
BRANCH  19  22
ATOM     22  C   UNL     1       9.854   6.772   7.771  0.00  0.00    +0.037 A 
ATOM     23  C   UNL     1      10.371   5.734   7.000  0.00  0.00    +0.013 A 
ATOM     24  C   UNL     1       9.192   6.499   8.966  0.00  0.00    +0.013 A 
ATOM     26  C   UNL     1      10.225   4.413   7.428  0.00  0.00    +0.001 A 
ATOM     27  C   UNL     1       9.047   5.179   9.393  0.00  0.00    +0.001 A 
ATOM     28  C   UNL     1       9.564   4.136   8.624  0.00  0.00    +0.000 A 
ENDBRANCH  19  22
BRANCH  20   8
ATOM      8  N   UNL     1      12.816   5.112   2.662  0.00  0.00    -0.211 N 
ATOM     35  H   UNL     1      13.674   5.677   2.723  0.00  0.00    +0.174 HD
BRANCH   8   1
ATOM      1  S   UNL     1      12.707   4.126   1.291  0.00  0.00    +0.074 S 
ATOM      4  O   UNL     1      12.993   2.751   1.653  0.00  0.00    -0.150 OA
ATOM      5  O   UNL     1      11.502   4.451   0.550  0.00  0.00    -0.150 OA
BRANCH   1  25
ATOM     25  C   UNL     1      14.082   4.720   0.350  0.00  0.00    +0.126 A 
ATOM     29  C   UNL     1      14.254   4.360  -0.979  0.00  0.00    +0.078 A 
ATOM     30  C   UNL     1      14.984   5.559   0.988  0.00  0.00    +0.030 A 
ATOM     31  C   UNL     1      15.353   4.850  -1.685  0.00  0.00    +0.021 A 
ATOM     32  C   UNL     1      16.082   6.048   0.282  0.00  0.00    +0.002 A 
ATOM     33  C   UNL     1      16.267   5.694  -1.055  0.00  0.00    +0.001 A 
BRANCH  29  34
ATOM      9  N   UNL     1      12.594   2.795  -2.206  0.00  0.00    -0.191 NA
ATOM     34  C   UNL     1      13.336   3.495  -1.657  0.00  0.00    +0.101 C 
ENDBRANCH  29  34
ENDBRANCH   1  25
ENDBRANCH   8   1
ENDBRANCH  20   8
TORSDOF 5
ENDMDL
MODEL 9
REMARK VINA RESULT:      -6.3     24.763     28.561
REMARK  Name = 7051430
REMARK  5 active torsions:
REMARK  status: ('A' for Active; 'I' for Inactive)
REMARK    1  A    between atoms: S_1  and  N_8
REMARK    2  A    between atoms: S_1  and  C_25
REMARK    3  A    between atoms: N_8  and  C_20
REMARK    4  A    between atoms: C_19  and  C_22
REMARK    5  A    between atoms: C_29  and  C_34
REMARK                            x       y       z     vdW  Elec       q    Type
REMARK                         _______ _______ _______ _____ _____    ______ ____
ROOT
ATOM      2  O   UNL     1      12.340   8.404   2.210  0.00  0.00    -0.266 OA
ATOM      3  O   UNL     1      12.929   7.470   7.272  0.00  0.00    -0.270 OA
ATOM      6  N   UNL     1      11.010   8.782   7.012  0.00  0.00    -0.297 N 
ATOM      7  N   UNL     1      10.805   9.047   3.858  0.00  0.00    -0.310 N 
ATOM     10  C   UNL     1      11.319  10.827   5.626  0.00  0.00    +0.027 C 
ATOM     11  C   UNL     1       9.141   9.677   5.644  0.00  0.00    +0.054 C 
ATOM     12  C   UNL     1       9.811  11.051   5.635  0.00  0.00    +0.018 C 
ATOM     13  C   UNL     1      11.752  10.035   6.874  0.00  0.00    +0.113 C 
ATOM     14  C   UNL     1      11.704  10.111   4.326  0.00  0.00    +0.130 C 
ATOM     15  C   UNL     1       9.546   8.914   6.920  0.00  0.00    +0.117 C 
ATOM     16  C   UNL     1       9.532   8.871   4.419  0.00  0.00    +0.027 A 
ATOM     17  C   UNL     1       8.679   7.969   3.903  0.00  0.00    +0.024 A 
ATOM     18  C   UNL     1      11.244   8.285   2.755  0.00  0.00    +0.274 A 
ATOM     19  C   UNL     1      11.708   7.585   7.194  0.00  0.00    +0.247 C 
ATOM     20  C   UNL     1      10.268   7.290   2.246  0.00  0.00    +0.112 A 
ATOM     21  C   UNL     1       9.055   7.150   2.783  0.00  0.00    +0.031 A 
ENDROOT
BRANCH  19  22
ATOM     22  C   UNL     1      10.932   6.345   7.285  0.00  0.00    +0.037 A 
ATOM     23  C   UNL     1      10.561   5.673   6.122  0.00  0.00    +0.013 A 
ATOM     24  C   UNL     1      10.570   5.843   8.533  0.00  0.00    +0.013 A 
ATOM     26  C   UNL     1       9.823   4.492   6.208  0.00  0.00    +0.001 A 
ATOM     27  C   UNL     1       9.833   4.663   8.619  0.00  0.00    +0.001 A 
ATOM     28  C   UNL     1       9.459   3.987   7.457  0.00  0.00    +0.000 A 
ENDBRANCH  19  22
BRANCH  20   8
ATOM      8  N   UNL     1      10.601   6.461   1.160  0.00  0.00    -0.211 N 
ATOM     35  H   UNL     1      10.084   6.706   0.305  0.00  0.00    +0.174 HD
BRANCH   8   1
ATOM      1  S   UNL     1      10.728   4.802   1.468  0.00  0.00    +0.074 S 
ATOM      4  O   UNL     1      10.750   4.570   2.900  0.00  0.00    -0.150 OA
ATOM      5  O   UNL     1       9.796   4.077   0.625  0.00  0.00    -0.150 OA
BRANCH   1  25
ATOM     25  C   UNL     1      12.356   4.478   0.856  0.00  0.00    +0.126 A 
ATOM     29  C   UNL     1      12.723   4.829  -0.434  0.00  0.00    +0.078 A 
ATOM     30  C   UNL     1      13.253   3.858   1.715  0.00  0.00    +0.030 A 
ATOM     31  C   UNL     1      14.018   4.555  -0.877  0.00  0.00    +0.021 A 
ATOM     32  C   UNL     1      14.546   3.584   1.271  0.00  0.00    +0.002 A 
ATOM     33  C   UNL     1      14.929   3.932  -0.024  0.00  0.00    +0.001 A 
BRANCH  29  34
ATOM      9  N   UNL     1      11.078   5.986  -2.067  0.00  0.00    -0.191 NA
ATOM     34  C   UNL     1      11.814   5.469  -1.336  0.00  0.00    +0.101 C 
ENDBRANCH  29  34
ENDBRANCH   1  25
ENDBRANCH   8   1
ENDBRANCH  20   8
TORSDOF 5
ENDMDL
MODEL 10
REMARK VINA RESULT:      -6.1     25.303     27.252
REMARK  Name = 7051430
REMARK  5 active torsions:
REMARK  status: ('A' for Active; 'I' for Inactive)
REMARK    1  A    between atoms: S_1  and  N_8
REMARK    2  A    between atoms: S_1  and  C_25
REMARK    3  A    between atoms: N_8  and  C_20
REMARK    4  A    between atoms: C_19  and  C_22
REMARK    5  A    between atoms: C_29  and  C_34
REMARK                            x       y       z     vdW  Elec       q    Type
REMARK                         _______ _______ _______ _____ _____    ______ ____
ROOT
ATOM      2  O   UNL     1      19.447  -7.397  28.070  0.00  0.00    -0.266 OA
ATOM      3  O   UNL     1      21.214  -3.110  25.758  0.00  0.00    -0.270 OA
ATOM      6  N   UNL     1      20.363  -4.514  24.092  0.00  0.00    -0.297 N 
ATOM      7  N   UNL     1      19.215  -6.939  25.784  0.00  0.00    -0.310 N 
ATOM     10  C   UNL     1      21.200  -6.858  24.168  0.00  0.00    +0.027 C 
ATOM     11  C   UNL     1      18.927  -6.396  23.339  0.00  0.00    +0.054 C 
ATOM     12  C   UNL     1      20.174  -7.250  23.111  0.00  0.00    +0.018 C 
ATOM     13  C   UNL     1      21.553  -5.363  24.046  0.00  0.00    +0.113 C 
ATOM     14  C   UNL     1      20.642  -7.207  25.553  0.00  0.00    +0.130 C 
ATOM     15  C   UNL     1      19.285  -4.906  23.169  0.00  0.00    +0.117 C 
ATOM     16  C   UNL     1      18.352  -6.629  24.723  0.00  0.00    +0.027 A 
ATOM     17  C   UNL     1      17.030  -6.499  24.936  0.00  0.00    +0.024 A 
ATOM     18  C   UNL     1      18.743  -7.110  27.102  0.00  0.00    +0.274 A 
ATOM     19  C   UNL     1      20.317  -3.442  24.986  0.00  0.00    +0.247 C 
ATOM     20  C   UNL     1      17.280  -6.930  27.278  0.00  0.00    +0.112 A 
ATOM     21  C   UNL     1      16.474  -6.653  26.253  0.00  0.00    +0.031 A 
ENDROOT
BRANCH  19  22
ATOM     22  C   UNL     1      19.091  -2.640  25.034  0.00  0.00    +0.037 A 
ATOM     23  C   UNL     1      18.142  -2.884  26.024  0.00  0.00    +0.013 A 
ATOM     24  C   UNL     1      18.880  -1.639  24.089  0.00  0.00    +0.013 A 
ATOM     26  C   UNL     1      16.975  -2.120  26.070  0.00  0.00    +0.001 A 
ATOM     27  C   UNL     1      17.714  -0.876  24.135  0.00  0.00    +0.001 A 
ATOM     28  C   UNL     1      16.761  -1.116  25.126  0.00  0.00    +0.000 A 
ENDBRANCH  19  22
BRANCH  20   8
ATOM      8  N   UNL     1      16.699  -7.060  28.551  0.00  0.00    -0.211 N 
ATOM     35  H   UNL     1      15.781  -7.526  28.520  0.00  0.00    +0.174 HD
BRANCH   8   1
ATOM      1  S   UNL     1      16.781  -5.716  29.576  0.00  0.00    +0.074 S 
ATOM      4  O   UNL     1      17.698  -5.988  30.667  0.00  0.00    -0.150 OA
ATOM      5  O   UNL     1      16.924  -4.507  28.787  0.00  0.00    -0.150 OA
BRANCH   1  25
ATOM     25  C   UNL     1      15.146  -5.716  30.251  0.00  0.00    +0.126 A 
ATOM     29  C   UNL     1      14.749  -4.763  31.176  0.00  0.00    +0.078 A 
ATOM     30  C   UNL     1      14.273  -6.706  29.820  0.00  0.00    +0.030 A 
ATOM     31  C   UNL     1      13.450  -4.799  31.684  0.00  0.00    +0.021 A 
ATOM     32  C   UNL     1      12.975  -6.742  30.328  0.00  0.00    +0.002 A 
ATOM     33  C   UNL     1      12.563  -5.789  31.260  0.00  0.00    +0.001 A 
BRANCH  29  34
ATOM      9  N   UNL     1      16.349  -2.901  32.007  0.00  0.00    -0.191 NA
ATOM     34  C   UNL     1      15.633  -3.734  31.635  0.00  0.00    +0.101 C 
ENDBRANCH  29  34
ENDBRANCH   1  25
ENDBRANCH   8   1
ENDBRANCH  20   8
TORSDOF 5
ENDMDL
