REMARK  Name = 75536787
REMARK  6 active torsions:
REMARK  status: ('A' for Active; 'I' for Inactive)
REMARK    1  A    between atoms: O_3  and  C_9
REMARK    2  A    between atoms: N_5  and  C_8
REMARK    3  A    between atoms: N_5  and  C_11
REMARK    4  A    between atoms: N_6  and  C_15
REMARK    5  A    between atoms: C_10  and  C_15
REMARK    6  A    between atoms: C_16  and  C_17
REMARK                            x       y       z     vdW  Elec       q    Type
REMARK                         _______ _______ _______ _____ _____    ______ ____
ROOT
ATOM      1  O   UNL     1      -0.670  -1.136   0.380  0.00  0.00    -0.371 OA
ATOM      8  C   UNL     1      -2.830  -0.215   0.024  0.00  0.00    +0.111 C 
ATOM      9  C   UNL     1      -1.958   0.820   0.711  0.00  0.00    +0.164 C 
ATOM     10  C   UNL     1      -0.566   0.297   0.379  0.00  0.00    +0.165 C 
ATOM     12  C   UNL     1      -2.061  -1.494   0.311  0.00  0.00    +0.181 C 
ENDROOT
BRANCH   9   3
ATOM      3  O   UNL     1      -2.163   2.126   0.210  0.00  0.00    -0.388 OA
ATOM     23  H   UNL     1      -2.013   2.113  -0.750  0.00  0.00    +0.210 HD
ENDBRANCH   9   3
BRANCH   8   5
ATOM      5  N   UNL     1      -4.195  -0.251   0.522  0.00  0.00    -0.302 NA
ATOM     22  H   UNL     1      -4.216  -0.672   1.451  0.00  0.00    +0.123 HD
BRANCH   5  11
ATOM      2  O   UNL     1      -6.821   0.249  -0.773  0.00  0.00    -0.377 OA
ATOM     11  C   UNL     1      -5.060  -0.916  -0.460  0.00  0.00    +0.106 C 
ATOM     13  C   UNL     1      -6.500  -0.900   0.053  0.00  0.00    +0.180 C 
ATOM     14  C   UNL     1      -5.556   0.117  -1.472  0.00  0.00    +0.180 C 
ENDBRANCH   5  11
ENDBRANCH   8   5
BRANCH  10  15
ATOM     15  C   UNL     1       0.493   0.737   1.374  0.00  0.00    +0.138 C 
BRANCH  15   6
ATOM      4  O   UNL     1       2.447   1.997  -0.311  0.00  0.00    -0.270 OA
ATOM      6  N   UNL     1       1.784   0.218   1.024  0.00  0.00    -0.309 N 
ATOM     16  C   UNL     1       2.671   0.901   0.197  0.00  0.00    +0.244 C 
ATOM     24  H   UNL     1       2.006  -0.714   1.356  0.00  0.00    +0.149 HD
BRANCH  16  17
ATOM      7  N   UNL     1       6.378  -1.072  -0.634  0.00  0.00    -0.263 NA
ATOM     17  C   UNL     1       3.958   0.218  -0.091  0.00  0.00    +0.040 A 
ATOM     18  C   UNL     1       4.642   0.485  -1.272  0.00  0.00    +0.033 A 
ATOM     19  C   UNL     1       4.483  -0.694   0.819  0.00  0.00    +0.033 A 
ATOM     20  C   UNL     1       5.837  -0.180  -1.494  0.00  0.00    +0.111 A 
ATOM     21  C   UNL     1       5.685  -1.306   0.503  0.00  0.00    +0.111 A 
ENDBRANCH  16  17
ENDBRANCH  15   6
ENDBRANCH  10  15
TORSDOF 6
