REMARK  Name = 11941654
REMARK  8 active torsions:
REMARK  status: ('A' for Active; 'I' for Inactive)
REMARK    1  A    between atoms: O_5  and  C_27
REMARK    2  A    between atoms: O_5  and  C_33
REMARK    3  A    between atoms: O_6  and  C_28
REMARK    4  A    between atoms: O_6  and  C_34
REMARK    5  A    between atoms: N_7  and  C_14
REMARK    6  A    between atoms: N_8  and  C_15
REMARK    7  A    between atoms: N_9  and  C_21
REMARK    8  A    between atoms: C_20  and  C_24
REMARK                            x       y       z     vdW  Elec       q    Type
REMARK                         _______ _______ _______ _____ _____    ______ ____
ROOT
ATOM      1  O   UNL     1      -1.000  -3.522   0.045  0.00  0.00    -0.370 OA
ATOM      2  O   UNL     1      -1.729  -1.261   2.068  0.00  0.00    -0.370 OA
ATOM     12  C   UNL     1      -1.736  -1.337   0.633  0.00  0.00    +0.171 C 
ATOM     13  C   UNL     1      -0.539  -2.172   0.221  0.00  0.00    +0.171 C 
ATOM     14  C   UNL     1      -2.926  -2.135   0.156  0.00  0.00    +0.130 C 
ATOM     15  C   UNL     1       0.396  -2.085   1.406  0.00  0.00    +0.131 C 
ATOM     16  C   UNL     1      -2.422  -3.565   0.238  0.00  0.00    +0.185 C 
ATOM     17  C   UNL     1      -0.568  -1.940   2.570  0.00  0.00    +0.185 C 
ENDROOT
BRANCH  14   7
ATOM      7  N   UNL     1      -3.236  -1.792  -1.214  0.00  0.00    -0.306 N 
ATOM     10  N   UNL     1      -4.525   0.028  -0.566  0.00  0.00    -0.211 NA
ATOM     11  N   UNL     1      -4.224  -0.527  -2.892  0.00  0.00    -0.223 NA
ATOM     18  C   UNL     1      -4.029  -0.717  -1.573  0.00  0.00    +0.216 A 
ATOM     20  C   UNL     1      -5.293   1.068  -0.952  0.00  0.00    +0.111 A 
ATOM     22  C   UNL     1      -5.002   0.530  -3.206  0.00  0.00    +0.116 A 
ATOM     23  C   UNL     1      -5.569   1.370  -2.270  0.00  0.00    +0.051 A 
ATOM     35  H   UNL     1      -2.817  -2.325  -1.968  0.00  0.00    +0.149 HD
BRANCH  20  24
ATOM      4  O   UNL     1      -5.472   1.450   1.375  0.00  0.00    -0.461 OA
ATOM     24  C   UNL     1      -5.821   1.860   0.127  0.00  0.00    +0.153 A 
ATOM     29  C   UNL     1      -6.625   2.974   0.192  0.00  0.00    +0.051 A 
ATOM     31  C   UNL     1      -6.780   3.268   1.567  0.00  0.00    +0.042 A 
ATOM     32  C   UNL     1      -6.060   2.312   2.246  0.00  0.00    +0.196 A 
ENDBRANCH  20  24
ENDBRANCH  14   7
BRANCH  15   8
ATOM      3  O   UNL     1       3.051  -2.043   0.331  0.00  0.00    -0.252 OA
ATOM      8  N   UNL     1       1.266  -0.939   1.301  0.00  0.00    -0.292 N 
ATOM      9  N   UNL     1       3.160   0.256   0.790  0.00  0.00    -0.269 N 
ATOM     19  C   UNL     1       2.556  -1.004   0.761  0.00  0.00    +0.304 C 
ATOM     36  H   UNL     1       0.903  -0.030   1.573  0.00  0.00    +0.151 HD
ATOM     37  H   UNL     1       2.610   1.016   1.183  0.00  0.00    +0.156 HD
BRANCH   9  21
ATOM     21  C   UNL     1       4.453   0.610   0.340  0.00  0.00    +0.042 A 
ATOM     25  C   UNL     1       4.893   1.929   0.450  0.00  0.00    +0.069 A 
ATOM     26  C   UNL     1       5.288  -0.360  -0.214  0.00  0.00    +0.069 A 
ATOM     27  C   UNL     1       6.563  -0.012  -0.658  0.00  0.00    +0.125 A 
ATOM     28  C   UNL     1       6.169   2.277   0.006  0.00  0.00    +0.125 A 
ATOM     30  C   UNL     1       7.004   1.307  -0.548  0.00  0.00    +0.091 A 
BRANCH  27   5
ATOM      5  O   UNL     1       7.379  -0.958  -1.200  0.00  0.00    -0.495 OA
ATOM     33  C   UNL     1       6.865  -2.286  -1.283  0.00  0.00    +0.277 C 
ENDBRANCH  27   5
BRANCH  28   6
ATOM      6  O   UNL     1       6.599   3.564   0.113  0.00  0.00    -0.495 OA
ATOM     34  C   UNL     1       7.914   3.851  -0.361  0.00  0.00    +0.277 C 
ENDBRANCH  28   6
ENDBRANCH   9  21
ENDBRANCH  15   8
TORSDOF 6
