MODEL 1
REMARK VINA RESULT:      -5.6      0.000      0.000
REMARK  Name = 75537111
REMARK  4 active torsions:
REMARK  status: ('A' for Active; 'I' for Inactive)
REMARK    1  A    between atoms: N_3  and  C_13
REMARK    2  A    between atoms: N_4  and  C_14
REMARK    3  A    between atoms: N_5  and  C_17
REMARK    4  A    between atoms: C_13  and  C_15
REMARK                            x       y       z     vdW  Elec       q    Type
REMARK                         _______ _______ _______ _____ _____    ______ ____
ROOT
ATOM      1  O   UNL     1      10.569   8.427  19.742  0.00  0.00    -0.252 OA
ATOM      2  N   UNL     1      12.837   7.823  19.828  0.00  0.00    -0.278 N 
ATOM      3  N   UNL     1      15.500   7.741  20.731  0.00  0.00    -0.292 NA
ATOM      4  N   UNL     1      11.942   8.318  17.828  0.00  0.00    -0.287 N 
ATOM      7  C   UNL     1      13.893   7.539  18.878  0.00  0.00    +0.109 C 
ATOM      8  C   UNL     1      15.209   8.160  19.344  0.00  0.00    +0.109 C 
ATOM      9  C   UNL     1      13.353   8.095  17.561  0.00  0.00    +0.132 C 
ATOM     10  C   UNL     1      13.071   7.588  21.237  0.00  0.00    +0.125 C 
ATOM     11  C   UNL     1      14.425   8.173  21.647  0.00  0.00    +0.104 C 
ATOM     12  C   UNL     1      11.645   8.212  19.201  0.00  0.00    +0.305 C 
ATOM     14  C   UNL     1      11.024   8.745  16.795  0.00  0.00    +0.133 C 
ENDROOT
BRANCH   3  13
ATOM     13  C   UNL     1      16.787   8.281  21.166  0.00  0.00    +0.158 C 
BRANCH  13  15
ATOM      5  N   UNL     1      19.113   7.413  21.576  0.00  0.00    -0.336 N 
ATOM      6  N   UNL     1      17.883   6.274  20.119  0.00  0.00    -0.239 NA
ATOM     15  C   UNL     1      17.911   7.307  20.933  0.00  0.00    +0.124 A 
ATOM     16  C   UNL     1      19.902   6.384  21.145  0.00  0.00    +0.106 A 
ATOM     17  C   UNL     1      19.496   8.422  22.537  0.00  0.00    +0.150 C 
ATOM     18  C   UNL     1      19.121   5.696  20.247  0.00  0.00    +0.130 A 
ENDBRANCH  13  15
ENDBRANCH   3  13
TORSDOF 2
ENDMDL
MODEL 2
REMARK VINA RESULT:      -5.3      3.147      6.423
REMARK  Name = 75537111
REMARK  4 active torsions:
REMARK  status: ('A' for Active; 'I' for Inactive)
REMARK    1  A    between atoms: N_3  and  C_13
REMARK    2  A    between atoms: N_4  and  C_14
REMARK    3  A    between atoms: N_5  and  C_17
REMARK    4  A    between atoms: C_13  and  C_15
REMARK                            x       y       z     vdW  Elec       q    Type
REMARK                         _______ _______ _______ _____ _____    ______ ____
ROOT
ATOM      1  O   UNL     1      16.752   5.454  18.418  0.00  0.00    -0.252 OA
ATOM      2  N   UNL     1      15.331   6.877  19.631  0.00  0.00    -0.278 N 
ATOM      3  N   UNL     1      13.413   8.875  20.123  0.00  0.00    -0.292 NA
ATOM      4  N   UNL     1      17.436   6.600  20.361  0.00  0.00    -0.287 N 
ATOM      7  C   UNL     1      15.378   7.602  20.883  0.00  0.00    +0.109 C 
ATOM      8  C   UNL     1      14.761   8.990  20.717  0.00  0.00    +0.109 C 
ATOM      9  C   UNL     1      16.862   7.599  21.247  0.00  0.00    +0.132 C 
ATOM     10  C   UNL     1      14.089   6.826  18.888  0.00  0.00    +0.125 C 
ATOM     11  C   UNL     1      13.476   8.226  18.798  0.00  0.00    +0.104 C 
ATOM     12  C   UNL     1      16.532   6.210  19.353  0.00  0.00    +0.305 C 
ATOM     14  C   UNL     1      18.823   6.201  20.453  0.00  0.00    +0.133 C 
ENDROOT
BRANCH   3  13
ATOM     13  C   UNL     1      12.789  10.193  20.016  0.00  0.00    +0.158 C 
BRANCH  13  15
ATOM      5  N   UNL     1      11.802  11.854  21.627  0.00  0.00    -0.336 N 
ATOM      6  N   UNL     1      11.503   9.710  22.122  0.00  0.00    -0.239 NA
ATOM     15  C   UNL     1      12.027  10.556  21.263  0.00  0.00    +0.124 A 
ATOM     16  C   UNL     1      11.089  11.835  22.793  0.00  0.00    +0.106 A 
ATOM     17  C   UNL     1      12.231  13.040  20.922  0.00  0.00    +0.150 C 
ATOM     18  C   UNL     1      10.917  10.502  23.078  0.00  0.00    +0.130 A 
ENDBRANCH  13  15
ENDBRANCH   3  13
TORSDOF 2
ENDMDL
MODEL 3
REMARK VINA RESULT:      -5.2     32.165     32.784
REMARK  Name = 75537111
REMARK  4 active torsions:
REMARK  status: ('A' for Active; 'I' for Inactive)
REMARK    1  A    between atoms: N_3  and  C_13
REMARK    2  A    between atoms: N_4  and  C_14
REMARK    3  A    between atoms: N_5  and  C_17
REMARK    4  A    between atoms: C_13  and  C_15
REMARK                            x       y       z     vdW  Elec       q    Type
REMARK                         _______ _______ _______ _____ _____    ______ ____
ROOT
ATOM      1  O   UNL     1     -17.212   2.035  22.547  0.00  0.00    -0.252 OA
ATOM      2  N   UNL     1     -16.481   2.270  24.767  0.00  0.00    -0.278 N 
ATOM      3  N   UNL     1     -16.423   1.942  27.560  0.00  0.00    -0.292 NA
ATOM      4  N   UNL     1     -16.550   4.102  23.469  0.00  0.00    -0.287 N 
ATOM      7  C   UNL     1     -15.903   3.316  25.585  0.00  0.00    +0.109 C 
ATOM      8  C   UNL     1     -16.519   3.299  26.983  0.00  0.00    +0.109 C 
ATOM      9  C   UNL     1     -16.167   4.590  24.783  0.00  0.00    +0.132 C 
ATOM     10  C   UNL     1     -16.572   0.925  25.296  0.00  0.00    +0.125 C 
ATOM     11  C   UNL     1     -17.137   0.961  26.719  0.00  0.00    +0.104 C 
ATOM     12  C   UNL     1     -16.796   2.714  23.475  0.00  0.00    +0.305 C 
ATOM     14  C   UNL     1     -16.785   4.997  22.358  0.00  0.00    +0.133 C 
ENDROOT
BRANCH   3  13
ATOM     13  C   UNL     1     -16.954   1.929  28.922  0.00  0.00    +0.158 C 
BRANCH  13  15
ATOM      5  N   UNL     1     -15.110   1.872  30.633  0.00  0.00    -0.336 N 
ATOM      6  N   UNL     1     -16.010  -0.085  30.094  0.00  0.00    -0.239 NA
ATOM     15  C   UNL     1     -16.037   1.211  29.876  0.00  0.00    +0.124 A 
ATOM     16  C   UNL     1     -14.451   0.939  31.382  0.00  0.00    +0.106 A 
ATOM     17  C   UNL     1     -14.862   3.295  30.651  0.00  0.00    +0.150 C 
ATOM     18  C   UNL     1     -15.023  -0.261  31.032  0.00  0.00    +0.130 A 
ENDBRANCH  13  15
ENDBRANCH   3  13
TORSDOF 2
ENDMDL
MODEL 4
REMARK VINA RESULT:      -5.2      4.387      6.514
REMARK  Name = 75537111
REMARK  4 active torsions:
REMARK  status: ('A' for Active; 'I' for Inactive)
REMARK    1  A    between atoms: N_3  and  C_13
REMARK    2  A    between atoms: N_4  and  C_14
REMARK    3  A    between atoms: N_5  and  C_17
REMARK    4  A    between atoms: C_13  and  C_15
REMARK                            x       y       z     vdW  Elec       q    Type
REMARK                         _______ _______ _______ _____ _____    ______ ____
ROOT
ATOM      1  O   UNL     1      12.043   6.266  19.353  0.00  0.00    -0.252 OA
ATOM      2  N   UNL     1      12.347   8.119  20.764  0.00  0.00    -0.278 N 
ATOM      3  N   UNL     1      11.692  10.222  22.513  0.00  0.00    -0.292 NA
ATOM      4  N   UNL     1      13.449   8.079  18.807  0.00  0.00    -0.287 N 
ATOM      7  C   UNL     1      13.196   9.292  20.801  0.00  0.00    +0.109 C 
ATOM      8  C   UNL     1      12.395  10.514  21.247  0.00  0.00    +0.109 C 
ATOM      9  C   UNL     1      13.759   9.376  19.383  0.00  0.00    +0.132 C 
ATOM     10  C   UNL     1      11.501   7.820  21.900  0.00  0.00    +0.125 C 
ATOM     11  C   UNL     1      10.764   9.085  22.350  0.00  0.00    +0.104 C 
ATOM     12  C   UNL     1      12.552   7.348  19.611  0.00  0.00    +0.305 C 
ATOM     14  C   UNL     1      13.910   7.694  17.491  0.00  0.00    +0.133 C 
ENDROOT
BRANCH   3  13
ATOM     13  C   UNL     1      10.971  11.405  22.980  0.00  0.00    +0.158 C 
BRANCH  13  15
ATOM      5  N   UNL     1      11.263  13.281  24.631  0.00  0.00    -0.336 N 
ATOM      6  N   UNL     1      12.772  11.654  24.716  0.00  0.00    -0.239 NA
ATOM     15  C   UNL     1      11.690  12.091  24.110  0.00  0.00    +0.124 A 
ATOM     16  C   UNL     1      12.127  13.625  25.632  0.00  0.00    +0.106 A 
ATOM     17  C   UNL     1      10.112  14.047  24.213  0.00  0.00    +0.150 C 
ATOM     18  C   UNL     1      13.049  12.606  25.665  0.00  0.00    +0.130 A 
ENDBRANCH  13  15
ENDBRANCH   3  13
TORSDOF 2
ENDMDL
MODEL 5
REMARK VINA RESULT:      -5.2     25.906     28.235
REMARK  Name = 75537111
REMARK  4 active torsions:
REMARK  status: ('A' for Active; 'I' for Inactive)
REMARK    1  A    between atoms: N_3  and  C_13
REMARK    2  A    between atoms: N_4  and  C_14
REMARK    3  A    between atoms: N_5  and  C_17
REMARK    4  A    between atoms: C_13  and  C_15
REMARK                            x       y       z     vdW  Elec       q    Type
REMARK                         _______ _______ _______ _____ _____    ______ ____
ROOT
ATOM      1  O   UNL     1      -9.797  -9.324  17.811  0.00  0.00    -0.252 OA
ATOM      2  N   UNL     1      -7.581 -10.102  17.817  0.00  0.00    -0.278 N 
ATOM      3  N   UNL     1      -5.122 -11.032  16.816  0.00  0.00    -0.292 NA
ATOM      4  N   UNL     1      -9.016 -10.962  19.316  0.00  0.00    -0.287 N 
ATOM      7  C   UNL     1      -6.765 -10.964  18.647  0.00  0.00    +0.109 C 
ATOM      8  C   UNL     1      -5.880 -11.857  17.779  0.00  0.00    +0.109 C 
ATOM      9  C   UNL     1      -7.785 -11.711  19.505  0.00  0.00    +0.132 C 
ATOM     10  C   UNL     1      -6.959  -9.358  16.742  0.00  0.00    +0.125 C 
ATOM     11  C   UNL     1      -6.036 -10.277  15.936  0.00  0.00    +0.104 C 
ATOM     12  C   UNL     1      -8.909 -10.035  18.260  0.00  0.00    +0.305 C 
ATOM     14  C   UNL     1     -10.223 -11.274  20.048  0.00  0.00    +0.133 C 
ENDROOT
BRANCH   3  13
ATOM     13  C   UNL     1      -4.227 -11.871  16.021  0.00  0.00    +0.158 C 
BRANCH  13  15
ATOM      5  N   UNL     1      -2.750 -10.698  14.356  0.00  0.00    -0.336 N 
ATOM      6  N   UNL     1      -1.969 -10.843  16.430  0.00  0.00    -0.239 NA
ATOM     15  C   UNL     1      -2.971 -11.139  15.631  0.00  0.00    +0.124 A 
ATOM     16  C   UNL     1      -1.531 -10.081  14.340  0.00  0.00    +0.106 A 
ATOM     17  C   UNL     1      -3.633 -10.847  13.222  0.00  0.00    +0.150 C 
ATOM     18  C   UNL     1      -1.069 -10.183  15.631  0.00  0.00    +0.130 A 
ENDBRANCH  13  15
ENDBRANCH   3  13
TORSDOF 2
ENDMDL
MODEL 6
REMARK VINA RESULT:      -5.0      3.918      5.987
REMARK  Name = 75537111
REMARK  4 active torsions:
REMARK  status: ('A' for Active; 'I' for Inactive)
REMARK    1  A    between atoms: N_3  and  C_13
REMARK    2  A    between atoms: N_4  and  C_14
REMARK    3  A    between atoms: N_5  and  C_17
REMARK    4  A    between atoms: C_13  and  C_15
REMARK                            x       y       z     vdW  Elec       q    Type
REMARK                         _______ _______ _______ _____ _____    ______ ____
ROOT
ATOM      1  O   UNL     1      16.230  12.929  17.100  0.00  0.00    -0.252 OA
ATOM      2  N   UNL     1      14.629  11.230  16.841  0.00  0.00    -0.278 N 
ATOM      3  N   UNL     1      13.006   9.029  17.500  0.00  0.00    -0.292 NA
ATOM      4  N   UNL     1      16.098  11.570  15.177  0.00  0.00    -0.287 N 
ATOM      7  C   UNL     1      14.197  10.335  15.787  0.00  0.00    +0.109 C 
ATOM      8  C   UNL     1      13.930   8.940  16.351  0.00  0.00    +0.109 C 
ATOM      9  C   UNL     1      15.330  10.408  14.764  0.00  0.00    +0.132 C 
ATOM     10  C   UNL     1      13.875  11.286  18.076  0.00  0.00    +0.125 C 
ATOM     11  C   UNL     1      13.579   9.868  18.572  0.00  0.00    +0.104 C 
ATOM     12  C   UNL     1      15.714  12.028  16.453  0.00  0.00    +0.305 C 
ATOM     14  C   UNL     1      17.214  12.066  14.402  0.00  0.00    +0.133 C 
ENDROOT
BRANCH   3  13
ATOM     13  C   UNL     1      12.697   7.693  18.009  0.00  0.00    +0.158 C 
BRANCH  13  15
ATOM      5  N   UNL     1      12.786   7.310  20.494  0.00  0.00    -0.336 N 
ATOM      6  N   UNL     1      10.906   8.189  19.703  0.00  0.00    -0.239 NA
ATOM     15  C   UNL     1      12.103   7.743  19.391  0.00  0.00    +0.124 A 
ATOM     16  C   UNL     1      11.973   7.492  21.577  0.00  0.00    +0.106 A 
ATOM     17  C   UNL     1      14.122   6.761  20.526  0.00  0.00    +0.150 C 
ATOM     18  C   UNL     1      10.820   8.035  21.064  0.00  0.00    +0.130 A 
ENDBRANCH  13  15
ENDBRANCH   3  13
TORSDOF 2
ENDMDL
MODEL 7
REMARK VINA RESULT:      -5.0     26.434     28.456
REMARK  Name = 75537111
REMARK  4 active torsions:
REMARK  status: ('A' for Active; 'I' for Inactive)
REMARK    1  A    between atoms: N_3  and  C_13
REMARK    2  A    between atoms: N_4  and  C_14
REMARK    3  A    between atoms: N_5  and  C_17
REMARK    4  A    between atoms: C_13  and  C_15
REMARK                            x       y       z     vdW  Elec       q    Type
REMARK                         _______ _______ _______ _____ _____    ______ ____
ROOT
ATOM      1  O   UNL     1      -1.463 -10.623  14.955  0.00  0.00    -0.252 OA
ATOM      2  N   UNL     1      -2.824 -10.587  13.041  0.00  0.00    -0.278 N 
ATOM      3  N   UNL     1      -3.755  -9.836  10.495  0.00  0.00    -0.292 NA
ATOM      4  N   UNL     1      -3.819 -10.628  15.054  0.00  0.00    -0.287 N 
ATOM      7  C   UNL     1      -4.236 -10.710  12.745  0.00  0.00    +0.109 C 
ATOM      8  C   UNL     1      -4.643  -9.705  11.669  0.00  0.00    +0.109 C 
ATOM      9  C   UNL     1      -4.909 -10.505  14.102  0.00  0.00    +0.132 C 
ATOM     10  C   UNL     1      -1.872 -10.555  11.951  0.00  0.00    +0.125 C 
ATOM     11  C   UNL     1      -2.349  -9.582  10.869  0.00  0.00    +0.104 C 
ATOM     12  C   UNL     1      -2.562 -10.618  14.418  0.00  0.00    +0.305 C 
ATOM     14  C   UNL     1      -4.043 -10.607  16.483  0.00  0.00    +0.133 C 
ENDROOT
BRANCH   3  13
ATOM     13  C   UNL     1      -4.174  -8.920   9.435  0.00  0.00    +0.158 C 
BRANCH  13  15
ATOM      5  N   UNL     1      -6.372  -9.199   8.243  0.00  0.00    -0.336 N 
ATOM      6  N   UNL     1      -4.752 -10.601   7.657  0.00  0.00    -0.239 NA
ATOM     15  C   UNL     1      -5.077  -9.594   8.437  0.00  0.00    +0.124 A 
ATOM     16  C   UNL     1      -6.906 -10.007   7.279  0.00  0.00    +0.106 A 
ATOM     17  C   UNL     1      -7.063  -8.129   8.924  0.00  0.00    +0.150 C 
ATOM     18  C   UNL     1      -5.888 -10.863   6.933  0.00  0.00    +0.130 A 
ENDBRANCH  13  15
ENDBRANCH   3  13
TORSDOF 2
ENDMDL
MODEL 8
REMARK VINA RESULT:      -5.0     27.193     28.078
REMARK  Name = 75537111
REMARK  4 active torsions:
REMARK  status: ('A' for Active; 'I' for Inactive)
REMARK    1  A    between atoms: N_3  and  C_13
REMARK    2  A    between atoms: N_4  and  C_14
REMARK    3  A    between atoms: N_5  and  C_17
REMARK    4  A    between atoms: C_13  and  C_15
REMARK                            x       y       z     vdW  Elec       q    Type
REMARK                         _______ _______ _______ _____ _____    ______ ____
ROOT
ATOM      1  O   UNL     1      -6.243 -10.591  19.060  0.00  0.00    -0.252 OA
ATOM      2  N   UNL     1      -5.465 -10.293  16.864  0.00  0.00    -0.278 N 
ATOM      3  N   UNL     1      -5.509 -10.207  14.052  0.00  0.00    -0.292 NA
ATOM      4  N   UNL     1      -4.158 -11.403  18.314  0.00  0.00    -0.287 N 
ATOM      7  C   UNL     1      -4.238 -10.534  16.134  0.00  0.00    +0.109 C 
ATOM      8  C   UNL     1      -4.545 -11.088  14.744  0.00  0.00    +0.109 C 
ATOM      9  C   UNL     1      -3.457 -11.481  17.044  0.00  0.00    +0.132 C 
ATOM     10  C   UNL     1      -6.539  -9.564  16.221  0.00  0.00    +0.125 C 
ATOM     11  C   UNL     1      -6.772 -10.112  14.811  0.00  0.00    +0.104 C 
ATOM     12  C   UNL     1      -5.395 -10.739  18.191  0.00  0.00    +0.305 C 
ATOM     14  C   UNL     1      -3.674 -12.075  19.500  0.00  0.00    +0.133 C 
ENDROOT
BRANCH   3  13
ATOM     13  C   UNL     1      -5.763 -10.695  12.698  0.00  0.00    +0.158 C 
BRANCH  13  15
ATOM      5  N   UNL     1      -3.984 -10.016  11.053  0.00  0.00    -0.336 N 
ATOM      6  N   UNL     1      -5.748  -8.674  11.202  0.00  0.00    -0.239 NA
ATOM     15  C   UNL     1      -5.189  -9.776  11.653  0.00  0.00    +0.124 A 
ATOM     16  C   UNL     1      -3.760  -9.003  10.164  0.00  0.00    +0.106 A 
ATOM     17  C   UNL     1      -3.099 -11.130  11.302  0.00  0.00    +0.150 C 
ATOM     18  C   UNL     1      -4.861  -8.188  10.274  0.00  0.00    +0.130 A 
ENDBRANCH  13  15
ENDBRANCH   3  13
TORSDOF 2
ENDMDL
MODEL 9
REMARK VINA RESULT:      -4.9     25.035     27.648
REMARK  Name = 75537111
REMARK  4 active torsions:
REMARK  status: ('A' for Active; 'I' for Inactive)
REMARK    1  A    between atoms: N_3  and  C_13
REMARK    2  A    between atoms: N_4  and  C_14
REMARK    3  A    between atoms: N_5  and  C_17
REMARK    4  A    between atoms: C_13  and  C_15
REMARK                            x       y       z     vdW  Elec       q    Type
REMARK                         _______ _______ _______ _____ _____    ______ ____
ROOT
ATOM      1  O   UNL     1      -6.528  -8.633   8.188  0.00  0.00    -0.252 OA
ATOM      2  N   UNL     1      -5.326  -9.028  10.167  0.00  0.00    -0.278 N 
ATOM      3  N   UNL     1      -3.414 -10.151  11.898  0.00  0.00    -0.292 NA
ATOM      4  N   UNL     1      -7.563  -8.878  10.293  0.00  0.00    -0.287 N 
ATOM      7  C   UNL     1      -5.615  -9.095  11.585  0.00  0.00    +0.109 C 
ATOM      8  C   UNL     1      -4.850 -10.251  12.229  0.00  0.00    +0.109 C 
ATOM      9  C   UNL     1      -7.137  -9.225  11.638  0.00  0.00    +0.132 C 
ATOM     10  C   UNL     1      -3.949  -9.073   9.722  0.00  0.00    +0.125 C 
ATOM     11  C   UNL     1      -3.206 -10.205  10.437  0.00  0.00    +0.104 C 
ATOM     12  C   UNL     1      -6.478  -8.818   9.396  0.00  0.00    +0.305 C 
ATOM     14  C   UNL     1      -8.961  -8.769   9.937  0.00  0.00    +0.133 C 
ENDROOT
BRANCH   3  13
ATOM     13  C   UNL     1      -2.663 -11.217  12.559  0.00  0.00    +0.158 C 
BRANCH  13  15
ATOM      5  N   UNL     1      -2.661 -11.373  15.071  0.00  0.00    -0.336 N 
ATOM      6  N   UNL     1      -1.281  -9.879  14.178  0.00  0.00    -0.239 NA
ATOM     15  C   UNL     1      -2.182 -10.802  13.924  0.00  0.00    +0.124 A 
ATOM     16  C   UNL     1      -2.024 -10.776  16.122  0.00  0.00    +0.106 A 
ATOM     17  C   UNL     1      -3.655 -12.416  15.171  0.00  0.00    +0.150 C 
ATOM     18  C   UNL     1      -1.178  -9.858  15.546  0.00  0.00    +0.130 A 
ENDBRANCH  13  15
ENDBRANCH   3  13
TORSDOF 2
ENDMDL
MODEL 10
REMARK VINA RESULT:      -4.9     14.116     17.497
REMARK  Name = 75537111
REMARK  4 active torsions:
REMARK  status: ('A' for Active; 'I' for Inactive)
REMARK    1  A    between atoms: N_3  and  C_13
REMARK    2  A    between atoms: N_4  and  C_14
REMARK    3  A    between atoms: N_5  and  C_17
REMARK    4  A    between atoms: C_13  and  C_15
REMARK                            x       y       z     vdW  Elec       q    Type
REMARK                         _______ _______ _______ _____ _____    ______ ____
ROOT
ATOM      1  O   UNL     1      14.698   6.327   1.566  0.00  0.00    -0.252 OA
ATOM      2  N   UNL     1      12.544   5.795   2.336  0.00  0.00    -0.278 N 
ATOM      3  N   UNL     1      10.418   5.422   4.140  0.00  0.00    -0.292 NA
ATOM      4  N   UNL     1      13.512   4.420   0.848  0.00  0.00    -0.287 N 
ATOM      7  C   UNL     1      11.519   4.821   2.022  0.00  0.00    +0.109 C 
ATOM      8  C   UNL     1      10.877   4.293   3.305  0.00  0.00    +0.109 C 
ATOM      9  C   UNL     1      12.259   3.770   1.196  0.00  0.00    +0.132 C 
ATOM     10  C   UNL     1      12.244   6.865   3.265  0.00  0.00    +0.125 C 
ATOM     11  C   UNL     1      11.549   6.299   4.506  0.00  0.00    +0.104 C 
ATOM     12  C   UNL     1      13.708   5.608   1.578  0.00  0.00    +0.305 C 
ATOM     14  C   UNL     1      14.475   3.801  -0.036  0.00  0.00    +0.133 C 
ENDROOT
BRANCH   3  13
ATOM     13  C   UNL     1       9.748   4.927   5.342  0.00  0.00    +0.158 C 
BRANCH  13  15
ATOM      5  N   UNL     1       9.415   6.094   7.545  0.00  0.00    -0.336 N 
ATOM      6  N   UNL     1       8.532   7.086   5.765  0.00  0.00    -0.239 NA
ATOM     15  C   UNL     1       9.219   6.050   6.193  0.00  0.00    +0.124 A 
ATOM     16  C   UNL     1       8.815   7.231   8.009  0.00  0.00    +0.106 A 
ATOM     17  C   UNL     1      10.123   5.127   8.351  0.00  0.00    +0.150 C 
ATOM     18  C   UNL     1       8.278   7.826   6.893  0.00  0.00    +0.130 A 
ENDBRANCH  13  15
ENDBRANCH   3  13
TORSDOF 2
ENDMDL
