MODEL 1
REMARK VINA RESULT:      -8.0      0.000      0.000
REMARK  Name = 11887632
REMARK  3 active torsions:
REMARK  status: ('A' for Active; 'I' for Inactive)
REMARK    1  A    between atoms: N_7  and  C_15
REMARK    2  A    between atoms: C_13  and  C_16
REMARK    3  A    between atoms: C_23  and  C_27
REMARK                            x       y       z     vdW  Elec       q    Type
REMARK                         _______ _______ _______ _____ _____    ______ ____
ROOT
ATOM      2  O   UNL     1      20.534   4.080  21.006  0.00  0.00    -0.273 OA
ATOM      3  O   UNL     1      18.421   5.095  18.927  0.00  0.00    -0.270 OA
ATOM      4  O   UNL     1      24.781   6.102  20.972  0.00  0.00    -0.252 OA
ATOM      5  N   UNL     1      19.408   6.487  20.510  0.00  0.00    -0.284 N 
ATOM      6  N   UNL     1      22.911   7.344  20.715  0.00  0.00    -0.293 N 
ATOM      7  N   UNL     1      22.700   4.999  21.020  0.00  0.00    -0.193 N 
ATOM      8  C   UNL     1      21.494   7.517  20.606  0.00  0.00    +0.105 C 
ATOM      9  C   UNL     1      20.793   6.280  20.089  0.00  0.00    +0.183 C 
ATOM     10  C   UNL     1      20.783   7.796  21.930  0.00  0.00    +0.043 C 
ATOM     11  C   UNL     1      19.331   7.471  21.596  0.00  0.00    +0.111 C 
ATOM     12  C   UNL     1      21.308   5.007  20.754  0.00  0.00    +0.250 C 
ATOM     13  C   UNL     1      18.337   5.918  19.836  0.00  0.00    +0.247 C 
ATOM     14  C   UNL     1      23.548   6.135  20.926  0.00  0.00    +0.313 C 
ATOM     33  H   UNL     1      23.495   8.173  20.651  0.00  0.00    +0.151 HD
ENDROOT
BRANCH   7  15
ATOM      1  F   UNL     1      25.007   0.185  22.596  0.00  0.00    -0.205 F 
ATOM     15  C   UNL     1      23.299   3.744  21.431  0.00  0.00    +0.046 A 
ATOM     19  C   UNL     1      23.339   3.413  22.778  0.00  0.00    +0.027 A 
ATOM     20  C   UNL     1      23.828   2.891  20.470  0.00  0.00    +0.027 A 
ATOM     24  C   UNL     1      23.918   2.207  23.173  0.00  0.00    +0.040 A 
ATOM     25  C   UNL     1      24.406   1.686  20.865  0.00  0.00    +0.040 A 
ATOM     26  C   UNL     1      24.451   1.343  22.216  0.00  0.00    +0.124 A 
ENDBRANCH   7  15
BRANCH  13  16
ATOM     16  C   UNL     1      16.988   6.344  20.235  0.00  0.00    +0.037 A 
ATOM     17  C   UNL     1      16.686   6.509  21.584  0.00  0.00    +0.013 A 
ATOM     18  C   UNL     1      16.021   6.579  19.262  0.00  0.00    +0.013 A 
ATOM     21  C   UNL     1      15.405   6.913  21.962  0.00  0.00    +0.009 A 
ATOM     22  C   UNL     1      14.741   6.982  19.640  0.00  0.00    +0.009 A 
ATOM     23  C   UNL     1      14.433   7.150  20.990  0.00  0.00    -0.018 A 
BRANCH  23  27
ATOM     27  C   UNL     1      13.106   7.570  21.383  0.00  0.00    -0.018 A 
ATOM     28  C   UNL     1      12.026   6.699  21.232  0.00  0.00    +0.008 A 
ATOM     29  C   UNL     1      12.905   8.844  21.913  0.00  0.00    +0.008 A 
ATOM     30  C   UNL     1      10.745   7.104  21.610  0.00  0.00    +0.001 A 
ATOM     31  C   UNL     1      11.625   9.249  22.292  0.00  0.00    +0.001 A 
ATOM     32  C   UNL     1      10.545   8.379  22.140  0.00  0.00    +0.000 A 
ENDBRANCH  23  27
ENDBRANCH  13  16
TORSDOF 3
ENDMDL
MODEL 2
REMARK VINA RESULT:      -7.9     27.826     31.479
REMARK  Name = 11887632
REMARK  3 active torsions:
REMARK  status: ('A' for Active; 'I' for Inactive)
REMARK    1  A    between atoms: N_7  and  C_15
REMARK    2  A    between atoms: C_13  and  C_16
REMARK    3  A    between atoms: C_23  and  C_27
REMARK                            x       y       z     vdW  Elec       q    Type
REMARK                         _______ _______ _______ _____ _____    ______ ____
ROOT
ATOM      2  O   UNL     1      -5.014 -10.227  15.300  0.00  0.00    -0.273 OA
ATOM      3  O   UNL     1      -5.910  -9.930  18.288  0.00  0.00    -0.270 OA
ATOM      4  O   UNL     1      -2.426 -13.986  14.157  0.00  0.00    -0.252 OA
ATOM      5  N   UNL     1      -6.473 -11.769  16.975  0.00  0.00    -0.284 N 
ATOM      6  N   UNL     1      -4.175 -14.179  15.575  0.00  0.00    -0.293 N 
ATOM      7  N   UNL     1      -3.671 -12.048  14.655  0.00  0.00    -0.193 N 
ATOM      8  C   UNL     1      -5.274 -13.658  16.330  0.00  0.00    +0.105 C 
ATOM      9  C   UNL     1      -5.107 -12.193  16.670  0.00  0.00    +0.183 C 
ATOM     10  C   UNL     1      -6.620 -13.698  15.607  0.00  0.00    +0.043 C 
ATOM     11  C   UNL     1      -7.451 -12.702  16.407  0.00  0.00    +0.111 C 
ATOM     12  C   UNL     1      -4.610 -11.379  15.479  0.00  0.00    +0.250 C 
ATOM     13  C   UNL     1      -6.744 -10.702  17.821  0.00  0.00    +0.247 C 
ATOM     14  C   UNL     1      -3.367 -13.435  14.735  0.00  0.00    +0.313 C 
ATOM     33  H   UNL     1      -3.983 -15.174  15.645  0.00  0.00    +0.151 HD
ENDROOT
BRANCH   7  15
ATOM      1  F   UNL     1      -1.025  -9.041  10.790  0.00  0.00    -0.205 F 
ATOM     15  C   UNL     1      -2.981 -11.266  13.648  0.00  0.00    +0.046 A 
ATOM     19  C   UNL     1      -1.935 -10.435  14.025  0.00  0.00    +0.027 A 
ATOM     20  C   UNL     1      -3.376 -11.358  12.320  0.00  0.00    +0.027 A 
ATOM     24  C   UNL     1      -1.273  -9.681  13.057  0.00  0.00    +0.040 A 
ATOM     25  C   UNL     1      -2.714 -10.604  11.351  0.00  0.00    +0.040 A 
ATOM     26  C   UNL     1      -1.662  -9.766  11.720  0.00  0.00    +0.124 A 
ENDBRANCH   7  15
BRANCH  13  16
ATOM     16  C   UNL     1      -8.148 -10.485  18.199  0.00  0.00    +0.037 A 
ATOM     17  C   UNL     1      -8.951  -9.652  17.424  0.00  0.00    +0.013 A 
ATOM     18  C   UNL     1      -8.665 -11.112  19.329  0.00  0.00    +0.013 A 
ATOM     21  C   UNL     1     -10.284  -9.445  17.784  0.00  0.00    +0.009 A 
ATOM     22  C   UNL     1      -9.996 -10.905  19.687  0.00  0.00    +0.009 A 
ATOM     23  C   UNL     1     -10.806 -10.072  18.915  0.00  0.00    -0.018 A 
BRANCH  23  27
ATOM     27  C   UNL     1     -12.187  -9.859  19.287  0.00  0.00    -0.018 A 
ATOM     28  C   UNL     1     -13.154  -9.670  18.299  0.00  0.00    +0.008 A 
ATOM     29  C   UNL     1     -12.554  -9.842  20.632  0.00  0.00    +0.008 A 
ATOM     30  C   UNL     1     -14.487  -9.464  18.656  0.00  0.00    +0.001 A 
ATOM     31  C   UNL     1     -13.886  -9.636  20.991  0.00  0.00    +0.001 A 
ATOM     32  C   UNL     1     -14.852  -9.448  20.003  0.00  0.00    +0.000 A 
ENDBRANCH  23  27
ENDBRANCH  13  16
TORSDOF 3
ENDMDL
MODEL 3
REMARK VINA RESULT:      -7.8     29.476     32.139
REMARK  Name = 11887632
REMARK  3 active torsions:
REMARK  status: ('A' for Active; 'I' for Inactive)
REMARK    1  A    between atoms: N_7  and  C_15
REMARK    2  A    between atoms: C_13  and  C_16
REMARK    3  A    between atoms: C_23  and  C_27
REMARK                            x       y       z     vdW  Elec       q    Type
REMARK                         _______ _______ _______ _____ _____    ______ ____
ROOT
ATOM      2  O   UNL     1      -4.721 -11.134  13.647  0.00  0.00    -0.273 OA
ATOM      3  O   UNL     1      -3.958  -9.267  11.249  0.00  0.00    -0.270 OA
ATOM      4  O   UNL     1      -8.164  -9.708  16.519  0.00  0.00    -0.252 OA
ATOM      5  N   UNL     1      -6.097 -10.140  11.542  0.00  0.00    -0.284 N 
ATOM      6  N   UNL     1      -8.338  -9.430  14.283  0.00  0.00    -0.293 N 
ATOM      7  N   UNL     1      -6.394 -10.470  15.163  0.00  0.00    -0.193 N 
ATOM      8  C   UNL     1      -7.858  -9.533  12.938  0.00  0.00    +0.105 C 
ATOM      9  C   UNL     1      -6.347  -9.557  12.859  0.00  0.00    +0.183 C 
ATOM     10  C   UNL     1      -8.267 -10.815  12.213  0.00  0.00    +0.043 C 
ATOM     11  C   UNL     1      -7.275 -10.867  11.057  0.00  0.00    +0.111 C 
ATOM     12  C   UNL     1      -5.729 -10.473  13.911  0.00  0.00    +0.250 C 
ATOM     13  C   UNL     1      -4.936  -9.879  10.826  0.00  0.00    +0.247 C 
ATOM     14  C   UNL     1      -7.664  -9.880  15.402  0.00  0.00    +0.313 C 
ATOM     33  H   UNL     1      -9.252  -9.010  14.427  0.00  0.00    +0.151 HD
ENDROOT
BRANCH   7  15
ATOM      1  F   UNL     1      -3.868 -12.997  19.430  0.00  0.00    -0.205 F 
ATOM     15  C   UNL     1      -5.737 -11.128  16.275  0.00  0.00    +0.046 A 
ATOM     19  C   UNL     1      -4.811 -10.426  17.035  0.00  0.00    +0.027 A 
ATOM     20  C   UNL     1      -6.042 -12.452  16.564  0.00  0.00    +0.027 A 
ATOM     24  C   UNL     1      -4.178 -11.060  18.104  0.00  0.00    +0.040 A 
ATOM     25  C   UNL     1      -5.408 -13.085  17.633  0.00  0.00    +0.040 A 
ATOM     26  C   UNL     1      -4.477 -12.389  18.403  0.00  0.00    +0.124 A 
ENDBRANCH   7  15
BRANCH  13  16
ATOM     16  C   UNL     1      -4.876 -10.369   9.442  0.00  0.00    +0.037 A 
ATOM     17  C   UNL     1      -5.320  -9.557   8.401  0.00  0.00    +0.013 A 
ATOM     18  C   UNL     1      -4.375 -11.641   9.179  0.00  0.00    +0.013 A 
ATOM     21  C   UNL     1      -5.263 -10.023   7.087  0.00  0.00    +0.009 A 
ATOM     22  C   UNL     1      -4.318 -12.105   7.866  0.00  0.00    +0.009 A 
ATOM     23  C   UNL     1      -4.762 -11.297   6.819  0.00  0.00    -0.018 A 
BRANCH  23  27
ATOM     27  C   UNL     1      -4.701 -11.778   5.457  0.00  0.00    -0.018 A 
ATOM     28  C   UNL     1      -3.495 -12.246   4.936  0.00  0.00    +0.008 A 
ATOM     29  C   UNL     1      -5.848 -11.774   4.664  0.00  0.00    +0.008 A 
ATOM     30  C   UNL     1      -3.436 -12.710   3.621  0.00  0.00    +0.001 A 
ATOM     31  C   UNL     1      -5.790 -12.238   3.350  0.00  0.00    +0.001 A 
ATOM     32  C   UNL     1      -4.584 -12.707   2.829  0.00  0.00    +0.000 A 
ENDBRANCH  23  27
ENDBRANCH  13  16
TORSDOF 3
ENDMDL
MODEL 4
REMARK VINA RESULT:      -7.8      1.461      2.082
REMARK  Name = 11887632
REMARK  3 active torsions:
REMARK  status: ('A' for Active; 'I' for Inactive)
REMARK    1  A    between atoms: N_7  and  C_15
REMARK    2  A    between atoms: C_13  and  C_16
REMARK    3  A    between atoms: C_23  and  C_27
REMARK                            x       y       z     vdW  Elec       q    Type
REMARK                         _______ _______ _______ _____ _____    ______ ____
ROOT
ATOM      2  O   UNL     1      21.070   4.733  22.223  0.00  0.00    -0.273 OA
ATOM      3  O   UNL     1      19.194   4.641  19.714  0.00  0.00    -0.270 OA
ATOM      4  O   UNL     1      25.229   6.883  21.767  0.00  0.00    -0.252 OA
ATOM      5  N   UNL     1      19.942   6.632  20.663  0.00  0.00    -0.284 N 
ATOM      6  N   UNL     1      23.368   7.763  20.835  0.00  0.00    -0.293 N 
ATOM      7  N   UNL     1      23.190   5.740  22.065  0.00  0.00    -0.193 N 
ATOM      8  C   UNL     1      21.970   7.767  20.525  0.00  0.00    +0.105 C 
ATOM      9  C   UNL     1      21.373   6.377  20.504  0.00  0.00    +0.183 C 
ATOM     10  C   UNL     1      21.096   8.508  21.537  0.00  0.00    +0.043 C 
ATOM     11  C   UNL     1      19.706   7.964  21.228  0.00  0.00    +0.111 C 
ATOM     12  C   UNL     1      21.841   5.531  21.685  0.00  0.00    +0.250 C 
ATOM     13  C   UNL     1      18.977   5.755  20.185  0.00  0.00    +0.247 C 
ATOM     14  C   UNL     1      24.009   6.800  21.591  0.00  0.00    +0.313 C 
ATOM     33  H   UNL     1      23.930   8.535  20.489  0.00  0.00    +0.151 HD
ENDROOT
BRANCH   7  15
ATOM      1  F   UNL     1      25.420   2.183  25.719  0.00  0.00    -0.205 F 
ATOM     15  C   UNL     1      23.772   4.814  23.017  0.00  0.00    +0.046 A 
ATOM     19  C   UNL     1      24.332   3.628  22.563  0.00  0.00    +0.027 A 
ATOM     20  C   UNL     1      23.760   5.126  24.370  0.00  0.00    +0.027 A 
ATOM     24  C   UNL     1      24.890   2.737  23.478  0.00  0.00    +0.040 A 
ATOM     25  C   UNL     1      24.318   4.234  25.286  0.00  0.00    +0.040 A 
ATOM     26  C   UNL     1      24.884   3.040  24.840  0.00  0.00    +0.124 A 
ENDBRANCH   7  15
BRANCH  13  16
ATOM     16  C   UNL     1      17.578   6.202  20.237  0.00  0.00    +0.037 A 
ATOM     17  C   UNL     1      16.832   6.277  19.064  0.00  0.00    +0.013 A 
ATOM     18  C   UNL     1      17.008   6.549  21.459  0.00  0.00    +0.013 A 
ATOM     21  C   UNL     1      15.503   6.702  19.115  0.00  0.00    +0.009 A 
ATOM     22  C   UNL     1      15.681   6.973  21.509  0.00  0.00    +0.009 A 
ATOM     23  C   UNL     1      14.928   7.049  20.337  0.00  0.00    -0.018 A 
BRANCH  23  27
ATOM     27  C   UNL     1      13.551   7.488  20.389  0.00  0.00    -0.018 A 
ATOM     28  C   UNL     1      12.827   7.375  21.576  0.00  0.00    +0.008 A 
ATOM     29  C   UNL     1      12.946   8.024  19.252  0.00  0.00    +0.008 A 
ATOM     30  C   UNL     1      11.499   7.797  21.626  0.00  0.00    +0.001 A 
ATOM     31  C   UNL     1      11.618   8.448  19.302  0.00  0.00    +0.001 A 
ATOM     32  C   UNL     1      10.894   8.334  20.489  0.00  0.00    +0.000 A 
ENDBRANCH  23  27
ENDBRANCH  13  16
TORSDOF 3
ENDMDL
MODEL 5
REMARK VINA RESULT:      -7.7     28.891     31.520
REMARK  Name = 11887632
REMARK  3 active torsions:
REMARK  status: ('A' for Active; 'I' for Inactive)
REMARK    1  A    between atoms: N_7  and  C_15
REMARK    2  A    between atoms: C_13  and  C_16
REMARK    3  A    between atoms: C_23  and  C_27
REMARK                            x       y       z     vdW  Elec       q    Type
REMARK                         _______ _______ _______ _____ _____    ______ ____
ROOT
ATOM      2  O   UNL     1      -5.827 -10.433  13.354  0.00  0.00    -0.273 OA
ATOM      3  O   UNL     1      -6.316  -9.308  16.238  0.00  0.00    -0.270 OA
ATOM      4  O   UNL     1      -1.373 -10.916  11.921  0.00  0.00    -0.252 OA
ATOM      5  N   UNL     1      -5.097 -11.249  15.826  0.00  0.00    -0.284 N 
ATOM      6  N   UNL     1      -1.972 -11.470  14.028  0.00  0.00    -0.293 N 
ATOM      7  N   UNL     1      -3.632 -10.654  12.539  0.00  0.00    -0.193 N 
ATOM      8  C   UNL     1      -2.913 -11.602  15.099  0.00  0.00    +0.105 C 
ATOM      9  C   UNL     1      -4.074 -10.639  14.978  0.00  0.00    +0.183 C 
ATOM     10  C   UNL     1      -3.598 -12.967  15.180  0.00  0.00    +0.043 C 
ATOM     11  C   UNL     1      -4.815 -12.671  16.049  0.00  0.00    +0.111 C 
ATOM     12  C   UNL     1      -4.617 -10.568  13.554  0.00  0.00    +0.250 C 
ATOM     13  C   UNL     1      -6.094 -10.501  16.437  0.00  0.00    +0.247 C 
ATOM     14  C   UNL     1      -2.275 -11.019  12.757  0.00  0.00    +0.313 C 
ATOM     33  H   UNL     1      -1.010 -11.744  14.208  0.00  0.00    +0.151 HD
ENDROOT
BRANCH   7  15
ATOM      1  F   UNL     1      -5.199  -9.527   7.319  0.00  0.00    -0.205 F 
ATOM     15  C   UNL     1      -4.038 -10.360  11.179  0.00  0.00    +0.046 A 
ATOM     19  C   UNL     1      -4.026  -9.047  10.729  0.00  0.00    +0.027 A 
ATOM     20  C   UNL     1      -4.436 -11.397  10.344  0.00  0.00    +0.027 A 
ATOM     24  C   UNL     1      -4.420  -8.765   9.421  0.00  0.00    +0.040 A 
ATOM     25  C   UNL     1      -4.829 -11.115   9.037  0.00  0.00    +0.040 A 
ATOM     26  C   UNL     1      -4.820  -9.799   8.575  0.00  0.00    +0.124 A 
ENDBRANCH   7  15
BRANCH  13  16
ATOM     16  C   UNL     1      -6.951 -11.191  17.411  0.00  0.00    +0.037 A 
ATOM     17  C   UNL     1      -6.509 -11.366  18.720  0.00  0.00    +0.013 A 
ATOM     18  C   UNL     1      -8.200 -11.665  17.019  0.00  0.00    +0.013 A 
ATOM     21  C   UNL     1      -7.324 -12.021  19.644  0.00  0.00    +0.009 A 
ATOM     22  C   UNL     1      -9.013 -12.320  17.943  0.00  0.00    +0.009 A 
ATOM     23  C   UNL     1      -8.576 -12.498  19.256  0.00  0.00    -0.018 A 
BRANCH  23  27
ATOM     27  C   UNL     1      -9.420 -13.176  20.214  0.00  0.00    -0.018 A 
ATOM     28  C   UNL     1     -10.721 -12.725  20.439  0.00  0.00    +0.008 A 
ATOM     29  C   UNL     1      -8.934 -14.280  20.914  0.00  0.00    +0.008 A 
ATOM     30  C   UNL     1     -11.536 -13.378  21.364  0.00  0.00    +0.001 A 
ATOM     31  C   UNL     1      -9.748 -14.934  21.839  0.00  0.00    +0.001 A 
ATOM     32  C   UNL     1     -11.049 -14.483  22.064  0.00  0.00    +0.000 A 
ENDBRANCH  23  27
ENDBRANCH  13  16
TORSDOF 3
ENDMDL
MODEL 6
REMARK VINA RESULT:      -7.7     29.979     32.604
REMARK  Name = 11887632
REMARK  3 active torsions:
REMARK  status: ('A' for Active; 'I' for Inactive)
REMARK    1  A    between atoms: N_7  and  C_15
REMARK    2  A    between atoms: C_13  and  C_16
REMARK    3  A    between atoms: C_23  and  C_27
REMARK                            x       y       z     vdW  Elec       q    Type
REMARK                         _______ _______ _______ _____ _____    ______ ____
ROOT
ATOM      2  O   UNL     1      -6.797  -9.147   8.491  0.00  0.00    -0.273 OA
ATOM      3  O   UNL     1      -4.517  -8.364  10.492  0.00  0.00    -0.270 OA
ATOM      4  O   UNL     1      -5.585 -11.528   4.618  0.00  0.00    -0.252 OA
ATOM      5  N   UNL     1      -4.983 -10.569   9.905  0.00  0.00    -0.284 N 
ATOM      6  N   UNL     1      -4.648 -12.020   6.614  0.00  0.00    -0.293 N 
ATOM      7  N   UNL     1      -6.270 -10.290   6.503  0.00  0.00    -0.193 N 
ATOM      8  C   UNL     1      -4.457 -11.832   8.021  0.00  0.00    +0.105 C 
ATOM      9  C   UNL     1      -4.764 -10.419   8.467  0.00  0.00    +0.183 C 
ATOM     10  C   UNL     1      -5.366 -12.683   8.907  0.00  0.00    +0.043 C 
ATOM     11  C   UNL     1      -5.285 -11.962  10.247  0.00  0.00    +0.111 C 
ATOM     12  C   UNL     1      -6.049  -9.884   7.842  0.00  0.00    +0.250 C 
ATOM     13  C   UNL     1      -4.770  -9.528  10.798  0.00  0.00    +0.247 C 
ATOM     14  C   UNL     1      -5.528 -11.299   5.830  0.00  0.00    +0.313 C 
ATOM     33  H   UNL     1      -4.110 -12.752   6.159  0.00  0.00    +0.151 HD
ENDROOT
BRANCH   7  15
ATOM      1  F   UNL     1     -10.370  -7.796   3.683  0.00  0.00    -0.205 F 
ATOM     15  C   UNL     1      -7.339  -9.640   5.769  0.00  0.00    +0.046 A 
ATOM     19  C   UNL     1      -8.602 -10.213   5.749  0.00  0.00    +0.027 A 
ATOM     20  C   UNL     1      -7.083  -8.452   5.096  0.00  0.00    +0.027 A 
ATOM     24  C   UNL     1      -9.629  -9.589   5.042  0.00  0.00    +0.040 A 
ATOM     25  C   UNL     1      -8.110  -7.827   4.389  0.00  0.00    +0.040 A 
ATOM     26  C   UNL     1      -9.383  -8.395   4.363  0.00  0.00    +0.124 A 
ENDBRANCH   7  15
BRANCH  13  16
ATOM     16  C   UNL     1      -4.843  -9.845  12.231  0.00  0.00    +0.037 A 
ATOM     17  C   UNL     1      -3.729 -10.371  12.881  0.00  0.00    +0.013 A 
ATOM     18  C   UNL     1      -6.026  -9.620  12.930  0.00  0.00    +0.013 A 
ATOM     21  C   UNL     1      -3.800 -10.672  14.241  0.00  0.00    +0.009 A 
ATOM     22  C   UNL     1      -6.096  -9.921  14.289  0.00  0.00    +0.009 A 
ATOM     23  C   UNL     1      -4.983 -10.447  14.945  0.00  0.00    -0.018 A 
BRANCH  23  27
ATOM     27  C   UNL     1      -5.055 -10.759  16.356  0.00  0.00    -0.018 A 
ATOM     28  C   UNL     1      -4.015 -11.456  16.970  0.00  0.00    +0.008 A 
ATOM     29  C   UNL     1      -6.165 -10.363  17.102  0.00  0.00    +0.008 A 
ATOM     30  C   UNL     1      -4.084 -11.758  18.330  0.00  0.00    +0.001 A 
ATOM     31  C   UNL     1      -6.234 -10.663  18.463  0.00  0.00    +0.001 A 
ATOM     32  C   UNL     1      -5.194 -11.361  19.077  0.00  0.00    +0.000 A 
ENDBRANCH  23  27
ENDBRANCH  13  16
TORSDOF 3
ENDMDL
MODEL 7
REMARK VINA RESULT:      -7.4     30.179     33.717
REMARK  Name = 11887632
REMARK  3 active torsions:
REMARK  status: ('A' for Active; 'I' for Inactive)
REMARK    1  A    between atoms: N_7  and  C_15
REMARK    2  A    between atoms: C_13  and  C_16
REMARK    3  A    between atoms: C_23  and  C_27
REMARK                            x       y       z     vdW  Elec       q    Type
REMARK                         _______ _______ _______ _____ _____    ______ ____
ROOT
ATOM      2  O   UNL     1      -7.864  -8.431   9.819  0.00  0.00    -0.273 OA
ATOM      3  O   UNL     1     -10.984  -8.719   9.838  0.00  0.00    -0.270 OA
ATOM      4  O   UNL     1      -5.494 -10.547   6.350  0.00  0.00    -0.252 OA
ATOM      5  N   UNL     1      -9.810  -7.778   8.060  0.00  0.00    -0.284 N 
ATOM      6  N   UNL     1      -7.436  -9.473   5.930  0.00  0.00    -0.293 N 
ATOM      7  N   UNL     1      -6.598  -9.504   8.151  0.00  0.00    -0.193 N 
ATOM      8  C   UNL     1      -8.593  -8.721   6.314  0.00  0.00    +0.105 C 
ATOM      9  C   UNL     1      -8.980  -8.943   7.760  0.00  0.00    +0.183 C 
ATOM     10  C   UNL     1      -8.423  -7.204   6.227  0.00  0.00    +0.043 C 
ATOM     11  C   UNL     1      -9.565  -6.697   7.100  0.00  0.00    +0.111 C 
ATOM     12  C   UNL     1      -7.771  -8.920   8.690  0.00  0.00    +0.250 C 
ATOM     13  C   UNL     1     -10.792  -7.802   9.041  0.00  0.00    +0.247 C 
ATOM     14  C   UNL     1      -6.430  -9.872   6.788  0.00  0.00    +0.313 C 
ATOM     33  H   UNL     1      -7.337  -9.718   4.949  0.00  0.00    +0.151 HD
ENDROOT
BRANCH   7  15
ATOM      1  F   UNL     1      -2.319 -10.375  11.602  0.00  0.00    -0.205 F 
ATOM     15  C   UNL     1      -5.484  -9.730   9.051  0.00  0.00    +0.046 A 
ATOM     19  C   UNL     1      -4.473  -8.784   9.140  0.00  0.00    +0.027 A 
ATOM     20  C   UNL     1      -5.443 -10.892   9.811  0.00  0.00    +0.027 A 
ATOM     24  C   UNL     1      -3.400  -9.002  10.003  0.00  0.00    +0.040 A 
ATOM     25  C   UNL     1      -4.370 -11.110  10.675  0.00  0.00    +0.040 A 
ATOM     26  C   UNL     1      -3.350 -10.165  10.772  0.00  0.00    +0.124 A 
ENDBRANCH   7  15
BRANCH  13  16
ATOM     16  C   UNL     1     -11.685  -6.638   9.128  0.00  0.00    +0.037 A 
ATOM     17  C   UNL     1     -12.967  -6.708   8.590  0.00  0.00    +0.013 A 
ATOM     18  C   UNL     1     -11.243  -5.473   9.749  0.00  0.00    +0.013 A 
ATOM     21  C   UNL     1     -13.813  -5.601   8.673  0.00  0.00    +0.009 A 
ATOM     22  C   UNL     1     -12.089  -4.368   9.831  0.00  0.00    +0.009 A 
ATOM     23  C   UNL     1     -13.375  -4.432   9.294  0.00  0.00    -0.018 A 
BRANCH  23  27
ATOM     27  C   UNL     1     -14.253  -3.286   9.381  0.00  0.00    -0.018 A 
ATOM     28  C   UNL     1     -15.054  -3.106  10.509  0.00  0.00    +0.008 A 
ATOM     29  C   UNL     1     -14.300  -2.362   8.338  0.00  0.00    +0.008 A 
ATOM     30  C   UNL     1     -15.902  -2.002  10.593  0.00  0.00    +0.001 A 
ATOM     31  C   UNL     1     -15.147  -1.257   8.421  0.00  0.00    +0.001 A 
ATOM     32  C   UNL     1     -15.948  -1.077   9.549  0.00  0.00    +0.000 A 
ENDBRANCH  23  27
ENDBRANCH  13  16
TORSDOF 3
ENDMDL
MODEL 8
REMARK VINA RESULT:      -7.3     30.780     34.147
REMARK  Name = 11887632
REMARK  3 active torsions:
REMARK  status: ('A' for Active; 'I' for Inactive)
REMARK    1  A    between atoms: N_7  and  C_15
REMARK    2  A    between atoms: C_13  and  C_16
REMARK    3  A    between atoms: C_23  and  C_27
REMARK                            x       y       z     vdW  Elec       q    Type
REMARK                         _______ _______ _______ _____ _____    ______ ____
ROOT
ATOM      2  O   UNL     1      -9.712  -7.769  15.578  0.00  0.00    -0.273 OA
ATOM      3  O   UNL     1     -12.113  -5.818  16.077  0.00  0.00    -0.270 OA
ATOM      4  O   UNL     1     -10.243 -12.263  16.863  0.00  0.00    -0.252 OA
ATOM      5  N   UNL     1     -12.286  -7.725  14.751  0.00  0.00    -0.284 N 
ATOM      6  N   UNL     1     -11.932 -11.143  15.866  0.00  0.00    -0.293 N 
ATOM      7  N   UNL     1      -9.874 -10.021  16.242  0.00  0.00    -0.193 N 
ATOM      8  C   UNL     1     -12.526  -9.981  15.276  0.00  0.00    +0.105 C 
ATOM      9  C   UNL     1     -11.916  -8.692  15.783  0.00  0.00    +0.183 C 
ATOM     10  C   UNL     1     -12.354  -9.877  13.761  0.00  0.00    +0.043 C 
ATOM     11  C   UNL     1     -12.640  -8.403  13.500  0.00  0.00    +0.111 C 
ATOM     12  C   UNL     1     -10.393  -8.762  15.846  0.00  0.00    +0.250 C 
ATOM     13  C   UNL     1     -12.415  -6.369  15.020  0.00  0.00    +0.247 C 
ATOM     14  C   UNL     1     -10.638 -11.215  16.345  0.00  0.00    +0.313 C 
ATOM     33  H   UNL     1     -12.497 -11.985  15.922  0.00  0.00    +0.151 HD
ENDROOT
BRANCH   7  15
ATOM      1  F   UNL     1      -4.443 -10.314  17.425  0.00  0.00    -0.205 F 
ATOM     15  C   UNL     1      -8.459 -10.098  16.550  0.00  0.00    +0.046 A 
ATOM     19  C   UNL     1      -8.035  -9.937  17.862  0.00  0.00    +0.027 A 
ATOM     20  C   UNL     1      -7.548 -10.332  15.529  0.00  0.00    +0.027 A 
ATOM     24  C   UNL     1      -6.674 -10.010  18.158  0.00  0.00    +0.040 A 
ATOM     25  C   UNL     1      -6.187 -10.405  15.825  0.00  0.00    +0.040 A 
ATOM     26  C   UNL     1      -5.750 -10.244  17.139  0.00  0.00    +0.124 A 
ENDBRANCH   7  15
BRANCH  13  16
ATOM     16  C   UNL     1     -12.969  -5.522  13.955  0.00  0.00    +0.037 A 
ATOM     17  C   UNL     1     -14.349  -5.438  13.786  0.00  0.00    +0.013 A 
ATOM     18  C   UNL     1     -12.112  -4.810  13.121  0.00  0.00    +0.013 A 
ATOM     21  C   UNL     1     -14.874  -4.634  12.773  0.00  0.00    +0.009 A 
ATOM     22  C   UNL     1     -12.638  -4.006  12.110  0.00  0.00    +0.009 A 
ATOM     23  C   UNL     1     -14.019  -3.918  11.936  0.00  0.00    -0.018 A 
BRANCH  23  27
ATOM     27  C   UNL     1     -14.564  -3.083  10.889  0.00  0.00    -0.018 A 
ATOM     28  C   UNL     1     -14.026  -3.138   9.603  0.00  0.00    +0.008 A 
ATOM     29  C   UNL     1     -15.628  -2.225  11.163  0.00  0.00    +0.008 A 
ATOM     30  C   UNL     1     -14.551  -2.332   8.592  0.00  0.00    +0.001 A 
ATOM     31  C   UNL     1     -16.154  -1.420  10.152  0.00  0.00    +0.001 A 
ATOM     32  C   UNL     1     -15.616  -1.474   8.867  0.00  0.00    +0.000 A 
ENDBRANCH  23  27
ENDBRANCH  13  16
TORSDOF 3
ENDMDL
MODEL 9
REMARK VINA RESULT:      -7.3     17.764     20.195
REMARK  Name = 11887632
REMARK  3 active torsions:
REMARK  status: ('A' for Active; 'I' for Inactive)
REMARK    1  A    between atoms: N_7  and  C_15
REMARK    2  A    between atoms: C_13  and  C_16
REMARK    3  A    between atoms: C_23  and  C_27
REMARK                            x       y       z     vdW  Elec       q    Type
REMARK                         _______ _______ _______ _____ _____    ______ ____
ROOT
ATOM      2  O   UNL     1      10.460  -8.124  32.106  0.00  0.00    -0.273 OA
ATOM      3  O   UNL     1      13.137  -7.645  33.664  0.00  0.00    -0.270 OA
ATOM      4  O   UNL     1       6.457  -8.099  34.578  0.00  0.00    -0.252 OA
ATOM      5  N   UNL     1      11.393  -6.102  33.640  0.00  0.00    -0.284 N 
ATOM      6  N   UNL     1       8.086  -6.593  35.006  0.00  0.00    -0.293 N 
ATOM      7  N   UNL     1       8.419  -8.182  33.274  0.00  0.00    -0.193 N 
ATOM      8  C   UNL     1       9.374  -6.004  34.794  0.00  0.00    +0.105 C 
ATOM      9  C   UNL     1      10.373  -6.979  34.212  0.00  0.00    +0.183 C 
ATOM     10  C   UNL     1       9.388  -4.848  33.793  0.00  0.00    +0.043 C 
ATOM     11  C   UNL     1      10.865  -4.750  33.429  0.00  0.00    +0.111 C 
ATOM     12  C   UNL     1       9.773  -7.812  33.082  0.00  0.00    +0.250 C 
ATOM     13  C   UNL     1      12.712  -6.507  33.482  0.00  0.00    +0.247 C 
ATOM     14  C   UNL     1       7.571  -7.652  34.284  0.00  0.00    +0.313 C 
ATOM     33  H   UNL     1       7.496  -6.191  35.730  0.00  0.00    +0.151 HD
ENDROOT
BRANCH   7  15
ATOM      1  F   UNL     1       6.254 -11.943  29.789  0.00  0.00    -0.205 F 
ATOM     15  C   UNL     1       7.853  -9.162  32.367  0.00  0.00    +0.046 A 
ATOM     19  C   UNL     1       7.947 -10.512  32.673  0.00  0.00    +0.027 A 
ATOM     20  C   UNL     1       7.227  -8.736  31.203  0.00  0.00    +0.027 A 
ATOM     24  C   UNL     1       7.406 -11.455  31.799  0.00  0.00    +0.040 A 
ATOM     25  C   UNL     1       6.685  -9.678  30.329  0.00  0.00    +0.040 A 
ATOM     26  C   UNL     1       6.774 -11.037  30.628  0.00  0.00    +0.124 A 
ENDBRANCH   7  15
BRANCH  13  16
ATOM     16  C   UNL     1      13.684  -5.484  33.071  0.00  0.00    +0.037 A 
ATOM     17  C   UNL     1      13.802  -5.142  31.726  0.00  0.00    +0.013 A 
ATOM     18  C   UNL     1      14.481  -4.864  34.029  0.00  0.00    +0.013 A 
ATOM     21  C   UNL     1      14.726  -4.171  31.338  0.00  0.00    +0.009 A 
ATOM     22  C   UNL     1      15.404  -3.894  33.640  0.00  0.00    +0.009 A 
ATOM     23  C   UNL     1      15.526  -3.547  32.294  0.00  0.00    -0.018 A 
BRANCH  23  27
ATOM     27  C   UNL     1      16.483  -2.540  31.890  0.00  0.00    -0.018 A 
ATOM     28  C   UNL     1      16.837  -1.521  32.775  0.00  0.00    +0.008 A 
ATOM     29  C   UNL     1      17.051  -2.587  30.618  0.00  0.00    +0.008 A 
ATOM     30  C   UNL     1      17.759  -0.548  32.386  0.00  0.00    +0.001 A 
ATOM     31  C   UNL     1      17.973  -1.616  30.228  0.00  0.00    +0.001 A 
ATOM     32  C   UNL     1      18.327  -0.597  31.113  0.00  0.00    +0.000 A 
ENDBRANCH  23  27
ENDBRANCH  13  16
TORSDOF 3
ENDMDL
MODEL 10
REMARK VINA RESULT:      -7.3     19.579     22.378
REMARK  Name = 11887632
REMARK  3 active torsions:
REMARK  status: ('A' for Active; 'I' for Inactive)
REMARK    1  A    between atoms: N_7  and  C_15
REMARK    2  A    between atoms: C_13  and  C_16
REMARK    3  A    between atoms: C_23  and  C_27
REMARK                            x       y       z     vdW  Elec       q    Type
REMARK                         _______ _______ _______ _____ _____    ______ ____
ROOT
ATOM      2  O   UNL     1      11.288   5.250   3.612  0.00  0.00    -0.273 OA
ATOM      3  O   UNL     1      13.352   3.759   1.786  0.00  0.00    -0.270 OA
ATOM      4  O   UNL     1      12.708   9.194   5.748  0.00  0.00    -0.252 OA
ATOM      5  N   UNL     1      12.693   5.961   1.414  0.00  0.00    -0.284 N 
ATOM      6  N   UNL     1      13.290   8.769   3.607  0.00  0.00    -0.293 N 
ATOM      7  N   UNL     1      11.934   7.199   4.761  0.00  0.00    -0.193 N 
ATOM      8  C   UNL     1      13.308   7.970   2.419  0.00  0.00    +0.105 C 
ATOM      9  C   UNL     1      13.126   6.495   2.705  0.00  0.00    +0.183 C 
ATOM     10  C   UNL     1      12.184   8.275   1.429  0.00  0.00    +0.043 C 
ATOM     11  C   UNL     1      12.171   7.027   0.553  0.00  0.00    +0.111 C 
ATOM     12  C   UNL     1      12.018   6.238   3.722  0.00  0.00    +0.250 C 
ATOM     13  C   UNL     1      12.912   4.640   1.050  0.00  0.00    +0.247 C 
ATOM     14  C   UNL     1      12.626   8.440   4.773  0.00  0.00    +0.313 C 
ATOM     33  H   UNL     1      13.788   9.655   3.587  0.00  0.00    +0.151 HD
ENDROOT
BRANCH   7  15
ATOM      1  F   UNL     1       8.611   6.048   9.075  0.00  0.00    -0.205 F 
ATOM     15  C   UNL     1      11.068   6.901   5.885  0.00  0.00    +0.046 A 
ATOM     19  C   UNL     1      11.589   6.250   6.996  0.00  0.00    +0.027 A 
ATOM     20  C   UNL     1       9.730   7.269   5.836  0.00  0.00    +0.027 A 
ATOM     24  C   UNL     1      10.756   5.961   8.076  0.00  0.00    +0.040 A 
ATOM     25  C   UNL     1       8.897   6.980   6.916  0.00  0.00    +0.040 A 
ATOM     26  C   UNL     1       9.410   6.327   8.037  0.00  0.00    +0.124 A 
ENDBRANCH   7  15
BRANCH  13  16
ATOM     16  C   UNL     1      12.602   4.264  -0.337  0.00  0.00    +0.037 A 
ATOM     17  C   UNL     1      11.295   3.937  -0.689  0.00  0.00    +0.013 A 
ATOM     18  C   UNL     1      13.617   4.238  -1.289  0.00  0.00    +0.013 A 
ATOM     21  C   UNL     1      11.002   3.581  -2.006  0.00  0.00    +0.009 A 
ATOM     22  C   UNL     1      13.323   3.882  -2.605  0.00  0.00    +0.009 A 
ATOM     23  C   UNL     1      12.015   3.554  -2.964  0.00  0.00    -0.018 A 
BRANCH  23  27
ATOM     27  C   UNL     1      11.710   3.185  -4.329  0.00  0.00    -0.018 A 
ATOM     28  C   UNL     1      10.382   3.062  -4.737  0.00  0.00    +0.008 A 
ATOM     29  C   UNL     1      12.743   2.954  -5.237  0.00  0.00    +0.008 A 
ATOM     30  C   UNL     1      10.087   2.707  -6.053  0.00  0.00    +0.001 A 
ATOM     31  C   UNL     1      12.449   2.598  -6.553  0.00  0.00    +0.001 A 
ATOM     32  C   UNL     1      11.121   2.475  -6.961  0.00  0.00    +0.000 A 
ENDBRANCH  23  27
ENDBRANCH  13  16
TORSDOF 3
ENDMDL
