REMARK  Name = 71694373
REMARK  10 active torsions:
REMARK  status: ('A' for Active; 'I' for Inactive)
REMARK    1  A    between atoms: O_2  and  C_22
REMARK    2  A    between atoms: O_2  and  C_28
REMARK    3  A    between atoms: N_8  and  C_33
REMARK    4  A    between atoms: N_8  and  C_35
REMARK    5  A    between atoms: N_8  and  C_36
REMARK    6  A    between atoms: C_10  and  C_13
REMARK    7  A    between atoms: C_13  and  C_19
REMARK    8  A    between atoms: C_16  and  C_22
REMARK    9  A    between atoms: C_35  and  C_37
REMARK   10  A    between atoms: C_37  and  C_38
REMARK                            x       y       z     vdW  Elec       q    Type
REMARK                         _______ _______ _______ _____ _____    ______ ____
ROOT
ATOM      3  O   UNL     1      -0.096   2.482   2.344  0.00  0.00    -0.274 OA
ATOM      4  O   UNL     1      -0.442  -2.311   0.094  0.00  0.00    -0.488 OA
ATOM      6  N   UNL     1       1.583   0.891   2.244  0.00  0.00    -0.300 N 
ATOM      7  N   UNL     1      -1.206  -0.631   2.343  0.00  0.00    -0.304 NA
ATOM     10  C   UNL     1       3.185  -0.116   0.028  0.00  0.00    +0.008 C 
ATOM     11  C   UNL     1       2.175  -0.995   0.824  0.00  0.00    +0.032 C 
ATOM     12  C   UNL     1       2.763   1.368   0.140  0.00  0.00    +0.023 C 
ATOM     14  C   UNL     1       2.046  -0.500   2.277  0.00  0.00    +0.115 C 
ATOM     15  C   UNL     1       2.521   1.805   1.587  0.00  0.00    +0.108 C 
ATOM     21  C   UNL     1       2.468  -2.471   0.772  0.00  0.00    -0.023 C 
ATOM     23  C   UNL     1       0.299   1.331   2.565  0.00  0.00    +0.229 C 
ATOM     24  C   UNL     1       1.695  -3.468   0.309  0.00  0.00    +0.010 C 
ATOM     25  C   UNL     1      -0.651   0.367   3.252  0.00  0.00    +0.178 C 
ATOM     26  C   UNL     1       0.296  -3.477  -0.253  0.00  0.00    +0.256 C 
ATOM     27  C   UNL     1      -1.845  -0.091   1.145  0.00  0.00    +0.120 C 
ATOM     29  C   UNL     1      -2.507  -1.180   0.318  0.00  0.00    +0.010 A 
ATOM     30  C   UNL     1      -1.781  -2.273  -0.207  0.00  0.00    +0.125 A 
ATOM     31  C   UNL     1      -3.882  -1.082   0.047  0.00  0.00    +0.031 A 
ATOM     32  C   UNL     1      -2.438  -3.232  -0.988  0.00  0.00    +0.048 A 
ATOM     33  C   UNL     1      -4.527  -2.046  -0.726  0.00  0.00    +0.030 A 
ATOM     34  C   UNL     1      -3.806  -3.117  -1.243  0.00  0.00    +0.027 A 
ATOM     43  H   UNL     1      -1.878  -1.199   2.859  0.00  0.00    +0.123 HD
ENDROOT
BRANCH  33   8
ATOM      8  N   UNL     1      -5.908  -1.932  -0.987  0.00  0.00    -0.333 N 
ATOM     36  C   UNL     1      -6.586  -2.927  -1.794  0.00  0.00    +0.129 C 
BRANCH   8  35
ATOM     35  C   UNL     1      -6.669  -0.824  -0.446  0.00  0.00    +0.111 C 
BRANCH  35  37
ATOM     37  C   UNL     1      -6.529   0.417  -1.328  0.00  0.00    +0.074 C 
BRANCH  37  38
ATOM      9  N   UNL     1      -8.605   1.692  -1.301  0.00  0.00    -0.260 NA
ATOM     38  C   UNL     1      -7.341   1.589  -0.833  0.00  0.00    +0.043 A 
ATOM     39  C   UNL     1      -6.768   2.484   0.057  0.00  0.00    +0.023 A 
ATOM     40  C   UNL     1      -7.542   3.553   0.494  0.00  0.00    +0.003 A 
ATOM     41  C   UNL     1      -9.327   2.744  -0.853  0.00  0.00    +0.111 A 
ATOM     42  C   UNL     1      -8.847   3.692   0.035  0.00  0.00    +0.020 A 
ENDBRANCH  37  38
ENDBRANCH  35  37
ENDBRANCH   8  35
ENDBRANCH  33   8
BRANCH  10  13
ATOM     13  C   UNL     1       4.651  -0.293   0.442  0.00  0.00    +0.100 C 
BRANCH  13  19
ATOM      1  O   UNL     1       5.080   0.630  -1.711  0.00  0.00    -0.276 OA
ATOM      5  N   UNL     1       6.915   0.086  -0.410  0.00  0.00    -0.296 N 
ATOM     16  C   UNL     1       7.932   0.414  -1.411  0.00  0.00    +0.102 C 
ATOM     17  C   UNL     1       9.203  -0.245  -0.869  0.00  0.00    +0.026 C 
ATOM     18  C   UNL     1       7.524  -0.434   0.812  0.00  0.00    +0.108 C 
ATOM     19  C   UNL     1       5.557   0.185  -0.665  0.00  0.00    +0.216 C 
ATOM     20  C   UNL     1       9.014  -0.183   0.642  0.00  0.00    +0.021 C 
BRANCH  16  22
ATOM     22  C   UNL     1       8.090   1.925  -1.573  0.00  0.00    +0.181 C 
BRANCH  22   2
ATOM      2  O   UNL     1       7.111   2.383  -2.486  0.00  0.00    -0.381 OA
ATOM     28  C   UNL     1       7.196   3.790  -2.689  0.00  0.00    +0.194 C 
ENDBRANCH  22   2
ENDBRANCH  16  22
ENDBRANCH  13  19
ENDBRANCH  10  13
TORSDOF 8
