MODEL 1
REMARK VINA RESULT:      -6.5      0.000      0.000
REMARK  Name = 38028091
REMARK  11 active torsions:
REMARK  status: ('A' for Active; 'I' for Inactive)
REMARK    1  A    between atoms: S_1  and  N_6
REMARK    2  A    between atoms: S_1  and  C_23
REMARK    3  A    between atoms: N_6  and  C_15
REMARK    4  A    between atoms: C_8  and  C_12
REMARK    5  A    between atoms: C_9  and  C_15
REMARK    6  A    between atoms: C_11  and  C_16
REMARK    7  A    between atoms: C_12  and  C_17
REMARK    8  A    between atoms: C_12  and  C_18
REMARK    9  A    between atoms: C_13  and  C_19
REMARK   10  A    between atoms: C_16  and  C_20
REMARK   11  A    between atoms: C_23  and  C_26
REMARK                            x       y       z     vdW  Elec       q    Type
REMARK                         _______ _______ _______ _____ _____    ______ ____
ROOT
ATOM      8  C   UNL     1     -13.374   7.667  20.978  0.00  0.00    +0.000 C 
ATOM      9  C   UNL     1     -13.145   8.959  21.802  0.00  0.00    +0.030 C 
ATOM     10  C   UNL     1     -12.087   7.269  20.239  0.00  0.00    +0.012 C 
ATOM     11  C   UNL     1     -11.595   8.375  19.287  0.00  0.00    +0.023 C 
ATOM     13  C   UNL     1     -11.597   9.735  19.956  0.00  0.00    -0.073 C 
ATOM     14  C   UNL     1     -12.286   9.974  21.086  0.00  0.00    -0.023 C 
ATOM     19  C   UNL     1     -10.754  10.804  19.318  0.00  0.00    +0.039 C 
ENDROOT
BRANCH   8  12
ATOM     12  C   UNL     1     -13.847   6.507  21.858  0.00  0.00    -0.013 C 
ATOM     17  C   UNL     1     -15.139   5.913  21.305  0.00  0.00    +0.007 C 
ATOM     18  C   UNL     1     -12.762   5.440  21.963  0.00  0.00    +0.007 C 
ENDBRANCH   8  12
BRANCH   9  15
ATOM     15  C   UNL     1     -14.478   9.606  22.197  0.00  0.00    +0.113 C 
BRANCH  15   6
ATOM      6  N   UNL     1     -14.235  11.003  22.591  0.00  0.00    -0.194 NA
ATOM     32  H   UNL     1     -13.573  11.497  21.978  0.00  0.00    +0.148 HD
BRANCH   6   1
ATOM      1  S   UNL     1     -14.140  11.399  24.250  0.00  0.00    +0.033 S 
ATOM      4  O   UNL     1     -14.299  10.201  25.051  0.00  0.00    -0.158 OA
ATOM      5  O   UNL     1     -14.963  12.568  24.494  0.00  0.00    -0.158 OA
BRANCH   1  23
ATOM     23  C   UNL     1     -12.441  11.912  24.364  0.00  0.00    +0.220 C 
BRANCH  23  26
ATOM     26  C   UNL     1     -11.956  11.582  25.743  0.00  0.00    -0.025 A 
ATOM     27  C   UNL     1     -11.114  10.489  25.943  0.00  0.00    +0.005 A 
ATOM     28  C   UNL     1     -12.348  12.369  26.826  0.00  0.00    +0.005 A 
ATOM     29  C   UNL     1     -10.664  10.181  27.227  0.00  0.00    +0.000 A 
ATOM     30  C   UNL     1     -11.897  12.062  28.110  0.00  0.00    +0.000 A 
ATOM     31  C   UNL     1     -11.055  10.968  28.310  0.00  0.00    +0.000 A 
ENDBRANCH  23  26
ENDBRANCH   1  23
ENDBRANCH   6   1
ENDBRANCH  15   6
ENDBRANCH   9  15
BRANCH  11  16
ATOM     16  C   UNL     1     -12.418   8.398  17.994  0.00  0.00    +0.103 C 
BRANCH  16  20
ATOM      2  O   UNL     1     -10.279   8.268  16.978  0.00  0.00    -0.276 OA
ATOM      3  O   UNL     1     -13.249   7.772  13.053  0.00  0.00    -0.377 OA
ATOM      7  N   UNL     1     -12.102   8.412  15.546  0.00  0.00    -0.297 N 
ATOM     20  C   UNL     1     -11.497   8.355  16.800  0.00  0.00    +0.216 C 
ATOM     21  C   UNL     1     -13.530   8.642  15.301  0.00  0.00    +0.136 C 
ATOM     22  C   UNL     1     -11.284   8.370  14.335  0.00  0.00    +0.136 C 
ATOM     24  C   UNL     1     -14.044   7.678  14.239  0.00  0.00    +0.179 C 
ATOM     25  C   UNL     1     -11.890   7.414  13.318  0.00  0.00    +0.179 C 
ENDBRANCH  16  20
ENDBRANCH  11  16
TORSDOF 8
ENDMDL
MODEL 2
REMARK VINA RESULT:      -6.5     11.111     13.271
REMARK  Name = 38028091
REMARK  11 active torsions:
REMARK  status: ('A' for Active; 'I' for Inactive)
REMARK    1  A    between atoms: S_1  and  N_6
REMARK    2  A    between atoms: S_1  and  C_23
REMARK    3  A    between atoms: N_6  and  C_15
REMARK    4  A    between atoms: C_8  and  C_12
REMARK    5  A    between atoms: C_9  and  C_15
REMARK    6  A    between atoms: C_11  and  C_16
REMARK    7  A    between atoms: C_12  and  C_17
REMARK    8  A    between atoms: C_12  and  C_18
REMARK    9  A    between atoms: C_13  and  C_19
REMARK   10  A    between atoms: C_16  and  C_20
REMARK   11  A    between atoms: C_23  and  C_26
REMARK                            x       y       z     vdW  Elec       q    Type
REMARK                         _______ _______ _______ _____ _____    ______ ____
ROOT
ATOM      8  C   UNL     1     -16.002   5.477  31.680  0.00  0.00    +0.000 C 
ATOM      9  C   UNL     1     -15.795   6.727  32.570  0.00  0.00    +0.030 C 
ATOM     10  C   UNL     1     -16.383   4.263  32.541  0.00  0.00    +0.012 C 
ATOM     11  C   UNL     1     -15.310   3.938  33.597  0.00  0.00    +0.023 C 
ATOM     13  C   UNL     1     -14.857   5.179  34.340  0.00  0.00    -0.073 C 
ATOM     14  C   UNL     1     -15.093   6.417  33.871  0.00  0.00    -0.023 C 
ATOM     19  C   UNL     1     -14.163   4.965  35.656  0.00  0.00    +0.039 C 
ENDROOT
BRANCH   8  12
ATOM     12  C   UNL     1     -17.075   5.711  30.611  0.00  0.00    -0.013 C 
ATOM     17  C   UNL     1     -16.581   5.232  29.249  0.00  0.00    +0.007 C 
ATOM     18  C   UNL     1     -18.372   5.008  30.994  0.00  0.00    +0.007 C 
ENDBRANCH   8  12
BRANCH   9  15
ATOM     15  C   UNL     1     -15.021   7.818  31.820  0.00  0.00    +0.113 C 
BRANCH  15   6
ATOM      6  N   UNL     1     -13.595   7.720  32.168  0.00  0.00    -0.194 NA
ATOM     32  H   UNL     1     -13.410   7.153  33.006  0.00  0.00    +0.148 HD
BRANCH   6   1
ATOM      1  S   UNL     1     -12.591   9.089  31.970  0.00  0.00    +0.033 S 
ATOM      4  O   UNL     1     -13.035   9.862  30.827  0.00  0.00    -0.158 OA
ATOM      5  O   UNL     1     -11.208   8.668  32.089  0.00  0.00    -0.158 OA
BRANCH   1  23
ATOM     23  C   UNL     1     -12.995  10.004  33.441  0.00  0.00    +0.220 C 
BRANCH  23  26
ATOM     26  C   UNL     1     -12.163   9.458  34.561  0.00  0.00    -0.025 A 
ATOM     27  C   UNL     1     -12.654   8.420  35.352  0.00  0.00    +0.005 A 
ATOM     28  C   UNL     1     -10.898   9.989  34.811  0.00  0.00    +0.005 A 
ATOM     29  C   UNL     1     -11.879   7.912  36.396  0.00  0.00    +0.000 A 
ATOM     30  C   UNL     1     -10.123   9.481  35.854  0.00  0.00    +0.000 A 
ATOM     31  C   UNL     1     -10.614   8.443  36.647  0.00  0.00    +0.000 A 
ENDBRANCH  23  26
ENDBRANCH   1  23
ENDBRANCH   6   1
ENDBRANCH  15   6
ENDBRANCH   9  15
BRANCH  11  16
ATOM     16  C   UNL     1     -14.118   3.209  32.967  0.00  0.00    +0.103 C 
BRANCH  16  20
ATOM      2  O   UNL     1     -14.573   1.069  33.880  0.00  0.00    -0.276 OA
ATOM      3  O   UNL     1     -15.444   0.277  29.076  0.00  0.00    -0.377 OA
ATOM      7  N   UNL     1     -14.513   1.218  31.564  0.00  0.00    -0.297 N 
ATOM     20  C   UNL     1     -14.420   1.736  32.854  0.00  0.00    +0.216 C 
ATOM     21  C   UNL     1     -14.213   1.951  30.329  0.00  0.00    +0.136 C 
ATOM     22  C   UNL     1     -14.808  -0.200  31.363  0.00  0.00    +0.136 C 
ATOM     24  C   UNL     1     -15.288   1.684  29.283  0.00  0.00    +0.179 C 
ATOM     25  C   UNL     1     -15.861  -0.375  30.279  0.00  0.00    +0.179 C 
ENDBRANCH  16  20
ENDBRANCH  11  16
TORSDOF 8
ENDMDL
MODEL 3
REMARK VINA RESULT:      -6.3     20.901     23.503
REMARK  Name = 38028091
REMARK  11 active torsions:
REMARK  status: ('A' for Active; 'I' for Inactive)
REMARK    1  A    between atoms: S_1  and  N_6
REMARK    2  A    between atoms: S_1  and  C_23
REMARK    3  A    between atoms: N_6  and  C_15
REMARK    4  A    between atoms: C_8  and  C_12
REMARK    5  A    between atoms: C_9  and  C_15
REMARK    6  A    between atoms: C_11  and  C_16
REMARK    7  A    between atoms: C_12  and  C_17
REMARK    8  A    between atoms: C_12  and  C_18
REMARK    9  A    between atoms: C_13  and  C_19
REMARK   10  A    between atoms: C_16  and  C_20
REMARK   11  A    between atoms: C_23  and  C_26
REMARK                            x       y       z     vdW  Elec       q    Type
REMARK                         _______ _______ _______ _____ _____    ______ ____
ROOT
ATOM      8  C   UNL     1      -3.894 -10.270  11.314  0.00  0.00    +0.000 C 
ATOM      9  C   UNL     1      -4.993  -9.547  12.131  0.00  0.00    +0.030 C 
ATOM     10  C   UNL     1      -3.693  -9.579   9.956  0.00  0.00    +0.012 C 
ATOM     11  C   UNL     1      -4.985  -9.551   9.120  0.00  0.00    +0.023 C 
ATOM     13  C   UNL     1      -6.177  -9.099   9.939  0.00  0.00    -0.073 C 
ATOM     14  C   UNL     1      -6.157  -9.092  11.284  0.00  0.00    -0.023 C 
ATOM     19  C   UNL     1      -7.378  -8.613   9.176  0.00  0.00    +0.039 C 
ENDROOT
BRANCH   8  12
ATOM     12  C   UNL     1      -2.563 -10.323  12.071  0.00  0.00    -0.013 C 
ATOM     17  C   UNL     1      -2.152 -11.770  12.323  0.00  0.00    +0.007 C 
ATOM     18  C   UNL     1      -1.480  -9.580  11.297  0.00  0.00    +0.007 C 
ENDBRANCH   8  12
BRANCH   9  15
ATOM     15  C   UNL     1      -5.507 -10.432  13.272  0.00  0.00    +0.113 C 
BRANCH  15   6
ATOM      6  N   UNL     1      -6.719  -9.825  13.843  0.00  0.00    -0.194 NA
ATOM     32  H   UNL     1      -6.883  -8.858  13.534  0.00  0.00    +0.148 HD
BRANCH   6   1
ATOM      1  S   UNL     1      -7.137 -10.160  15.466  0.00  0.00    +0.033 S 
ATOM      4  O   UNL     1      -7.144 -11.593  15.685  0.00  0.00    -0.158 OA
ATOM      5  O   UNL     1      -8.286  -9.350  15.823  0.00  0.00    -0.158 OA
BRANCH   1  23
ATOM     23  C   UNL     1      -5.727  -9.484  16.311  0.00  0.00    +0.220 C 
BRANCH  23  26
ATOM     26  C   UNL     1      -5.474 -10.327  17.523  0.00  0.00    -0.025 A 
ATOM     27  C   UNL     1      -4.354 -11.156  17.575  0.00  0.00    +0.005 A 
ATOM     28  C   UNL     1      -6.360 -10.282  18.600  0.00  0.00    +0.005 A 
ATOM     29  C   UNL     1      -4.119 -11.941  18.705  0.00  0.00    +0.000 A 
ATOM     30  C   UNL     1      -6.125 -11.067  19.729  0.00  0.00    +0.000 A 
ATOM     31  C   UNL     1      -5.004 -11.897  19.781  0.00  0.00    +0.000 A 
ENDBRANCH  23  26
ENDBRANCH   1  23
ENDBRANCH   6   1
ENDBRANCH  15   6
ENDBRANCH   9  15
BRANCH  11  16
ATOM     16  C   UNL     1      -5.251 -10.913   8.469  0.00  0.00    +0.103 C 
BRANCH  16  20
ATOM      2  O   UNL     1      -5.624  -9.721   6.454  0.00  0.00    -0.276 OA
ATOM      3  O   UNL     1      -3.198 -13.697   4.791  0.00  0.00    -0.377 OA
ATOM      7  N   UNL     1      -4.779 -11.874   6.245  0.00  0.00    -0.297 N 
ATOM     20  C   UNL     1      -5.240 -10.774   6.967  0.00  0.00    +0.216 C 
ATOM     21  C   UNL     1      -4.435 -13.181   6.813  0.00  0.00    +0.136 C 
ATOM     22  C   UNL     1      -4.730 -11.822   4.785  0.00  0.00    +0.136 C 
ATOM     24  C   UNL     1      -3.126 -13.687   6.220  0.00  0.00    +0.179 C 
ATOM     25  C   UNL     1      -3.407 -12.379   4.278  0.00  0.00    +0.179 C 
ENDBRANCH  16  20
ENDBRANCH  11  16
TORSDOF 8
ENDMDL
MODEL 4
REMARK VINA RESULT:      -6.3     21.125     23.574
REMARK  Name = 38028091
REMARK  11 active torsions:
REMARK  status: ('A' for Active; 'I' for Inactive)
REMARK    1  A    between atoms: S_1  and  N_6
REMARK    2  A    between atoms: S_1  and  C_23
REMARK    3  A    between atoms: N_6  and  C_15
REMARK    4  A    between atoms: C_8  and  C_12
REMARK    5  A    between atoms: C_9  and  C_15
REMARK    6  A    between atoms: C_11  and  C_16
REMARK    7  A    between atoms: C_12  and  C_17
REMARK    8  A    between atoms: C_12  and  C_18
REMARK    9  A    between atoms: C_13  and  C_19
REMARK   10  A    between atoms: C_16  and  C_20
REMARK   11  A    between atoms: C_23  and  C_26
REMARK                            x       y       z     vdW  Elec       q    Type
REMARK                         _______ _______ _______ _____ _____    ______ ____
ROOT
ATOM      8  C   UNL     1      -3.914 -13.100  11.816  0.00  0.00    +0.000 C 
ATOM      9  C   UNL     1      -2.563 -13.090  12.574  0.00  0.00    +0.030 C 
ATOM     10  C   UNL     1      -3.784 -12.356  10.478  0.00  0.00    +0.012 C 
ATOM     11  C   UNL     1      -3.340 -10.894  10.665  0.00  0.00    +0.023 C 
ATOM     13  C   UNL     1      -2.168 -10.778  11.620  0.00  0.00    -0.073 C 
ATOM     14  C   UNL     1      -1.829 -11.775  12.457  0.00  0.00    -0.023 C 
ATOM     19  C   UNL     1      -1.369  -9.507  11.561  0.00  0.00    +0.039 C 
ENDROOT
BRANCH   8  12
ATOM     12  C   UNL     1      -4.418 -14.525  11.569  0.00  0.00    -0.013 C 
ATOM     17  C   UNL     1      -5.707 -14.500  10.753  0.00  0.00    +0.007 C 
ATOM     18  C   UNL     1      -3.349 -15.355  10.866  0.00  0.00    +0.007 C 
ENDBRANCH   8  12
BRANCH   9  15
ATOM     15  C   UNL     1      -2.757 -13.437  14.054  0.00  0.00    +0.113 C 
BRANCH  15   6
ATOM      6  N   UNL     1      -2.264 -12.321  14.877  0.00  0.00    -0.194 NA
ATOM     32  H   UNL     1      -1.437 -12.555  15.441  0.00  0.00    +0.148 HD
BRANCH   6   1
ATOM      1  S   UNL     1      -3.389 -11.271  15.621  0.00  0.00    +0.033 S 
ATOM      4  O   UNL     1      -4.113 -10.530  14.607  0.00  0.00    -0.158 OA
ATOM      5  O   UNL     1      -2.725 -10.581  16.711  0.00  0.00    -0.158 OA
BRANCH   1  23
ATOM     23  C   UNL     1      -4.507 -12.450  16.341  0.00  0.00    +0.220 C 
BRANCH  23  26
ATOM     26  C   UNL     1      -5.208 -11.777  17.481  0.00  0.00    -0.025 A 
ATOM     27  C   UNL     1      -6.212 -10.843  17.228  0.00  0.00    +0.005 A 
ATOM     28  C   UNL     1      -4.856 -12.085  18.795  0.00  0.00    +0.005 A 
ATOM     29  C   UNL     1      -6.864 -10.215  18.290  0.00  0.00    +0.000 A 
ATOM     30  C   UNL     1      -5.508 -11.458  19.857  0.00  0.00    +0.000 A 
ATOM     31  C   UNL     1      -6.512 -10.522  19.604  0.00  0.00    +0.000 A 
ENDBRANCH  23  26
ENDBRANCH   1  23
ENDBRANCH   6   1
ENDBRANCH  15   6
ENDBRANCH   9  15
BRANCH  11  16
ATOM     16  C   UNL     1      -4.509 -10.015  11.123  0.00  0.00    +0.103 C 
BRANCH  16  20
ATOM      2  O   UNL     1      -4.218  -8.854   9.076  0.00  0.00    -0.276 OA
ATOM      3  O   UNL     1      -9.137  -8.720   9.575  0.00  0.00    -0.377 OA
ATOM      7  N   UNL     1      -6.352  -8.827   9.991  0.00  0.00    -0.297 N 
ATOM     20  C   UNL     1      -5.004  -9.179   9.969  0.00  0.00    +0.216 C 
ATOM     21  C   UNL     1      -7.282  -9.088  11.094  0.00  0.00    +0.136 C 
ATOM     22  C   UNL     1      -6.916  -8.022   8.908  0.00  0.00    +0.136 C 
ATOM     24  C   UNL     1      -8.606  -9.615  10.556  0.00  0.00    +0.179 C 
ATOM     25  C   UNL     1      -8.251  -8.598   8.459  0.00  0.00    +0.179 C 
ENDBRANCH  16  20
ENDBRANCH  11  16
TORSDOF 8
ENDMDL
MODEL 5
REMARK VINA RESULT:      -6.3     33.580     35.292
REMARK  Name = 38028091
REMARK  11 active torsions:
REMARK  status: ('A' for Active; 'I' for Inactive)
REMARK    1  A    between atoms: S_1  and  N_6
REMARK    2  A    between atoms: S_1  and  C_23
REMARK    3  A    between atoms: N_6  and  C_15
REMARK    4  A    between atoms: C_8  and  C_12
REMARK    5  A    between atoms: C_9  and  C_15
REMARK    6  A    between atoms: C_11  and  C_16
REMARK    7  A    between atoms: C_12  and  C_17
REMARK    8  A    between atoms: C_12  and  C_18
REMARK    9  A    between atoms: C_13  and  C_19
REMARK   10  A    between atoms: C_16  and  C_20
REMARK   11  A    between atoms: C_23  and  C_26
REMARK                            x       y       z     vdW  Elec       q    Type
REMARK                         _______ _______ _______ _____ _____    ______ ____
ROOT
ATOM      8  C   UNL     1      18.925  -6.150  24.698  0.00  0.00    +0.000 C 
ATOM      9  C   UNL     1      18.329  -5.001  25.548  0.00  0.00    +0.030 C 
ATOM     10  C   UNL     1      17.803  -7.008  24.095  0.00  0.00    +0.012 C 
ATOM     11  C   UNL     1      16.893  -7.621  25.176  0.00  0.00    +0.023 C 
ATOM     13  C   UNL     1      16.478  -6.595  26.211  0.00  0.00    -0.073 C 
ATOM     14  C   UNL     1      17.124  -5.424  26.354  0.00  0.00    -0.023 C 
ATOM     19  C   UNL     1      15.275  -6.928  27.049  0.00  0.00    +0.039 C 
ENDROOT
BRANCH   8  12
ATOM     12  C   UNL     1      19.831  -5.621  23.582  0.00  0.00    -0.013 C 
ATOM     17  C   UNL     1      21.282  -6.012  23.844  0.00  0.00    +0.007 C 
ATOM     18  C   UNL     1      19.366  -6.143  22.226  0.00  0.00    +0.007 C 
ENDBRANCH   8  12
BRANCH   9  15
ATOM     15  C   UNL     1      19.384  -4.400  26.485  0.00  0.00    +0.113 C 
BRANCH  15   6
ATOM      6  N   UNL     1      19.077  -2.979  26.707  0.00  0.00    -0.194 NA
ATOM     32  H   UNL     1      18.071  -2.764  26.686  0.00  0.00    +0.148 HD
BRANCH   6   1
ATOM      1  S   UNL     1      20.098  -1.788  26.030  0.00  0.00    +0.033 S 
ATOM      4  O   UNL     1      20.922  -2.379  24.993  0.00  0.00    -0.158 OA
ATOM      5  O   UNL     1      20.697  -1.026  27.109  0.00  0.00    -0.158 OA
BRANCH   1  23
ATOM     23  C   UNL     1      18.897  -0.739  25.243  0.00  0.00    +0.220 C 
BRANCH  23  26
ATOM     26  C   UNL     1      17.971  -1.616  24.457  0.00  0.00    -0.025 A 
ATOM     27  C   UNL     1      16.684  -1.871  24.929  0.00  0.00    +0.005 A 
ATOM     28  C   UNL     1      18.398  -2.177  23.253  0.00  0.00    +0.005 A 
ATOM     29  C   UNL     1      15.822  -2.689  24.197  0.00  0.00    +0.000 A 
ATOM     30  C   UNL     1      17.536  -2.994  22.521  0.00  0.00    +0.000 A 
ATOM     31  C   UNL     1      16.248  -3.250  22.993  0.00  0.00    +0.000 A 
ENDBRANCH  23  26
ENDBRANCH   1  23
ENDBRANCH   6   1
ENDBRANCH  15   6
ENDBRANCH   9  15
BRANCH  11  16
ATOM     16  C   UNL     1      17.561  -8.831  25.839  0.00  0.00    +0.103 C 
BRANCH  16  20
ATOM      2  O   UNL     1      15.617  -9.996  25.143  0.00  0.00    -0.276 OA
ATOM      3  O   UNL     1      18.966 -13.635  25.176  0.00  0.00    -0.377 OA
ATOM      7  N   UNL     1      17.477 -11.290  25.649  0.00  0.00    -0.297 N 
ATOM     20  C   UNL     1      16.790 -10.085  25.513  0.00  0.00    +0.216 C 
ATOM     21  C   UNL     1      18.825 -11.442  26.204  0.00  0.00    +0.136 C 
ATOM     22  C   UNL     1      16.806 -12.554  25.348  0.00  0.00    +0.136 C 
ATOM     24  C   UNL     1      19.648 -12.389  25.339  0.00  0.00    +0.179 C 
ATOM     25  C   UNL     1      17.711 -13.450  24.515  0.00  0.00    +0.179 C 
ENDBRANCH  16  20
ENDBRANCH  11  16
TORSDOF 8
ENDMDL
MODEL 6
REMARK VINA RESULT:      -6.2     21.650     23.761
REMARK  Name = 38028091
REMARK  11 active torsions:
REMARK  status: ('A' for Active; 'I' for Inactive)
REMARK    1  A    between atoms: S_1  and  N_6
REMARK    2  A    between atoms: S_1  and  C_23
REMARK    3  A    between atoms: N_6  and  C_15
REMARK    4  A    between atoms: C_8  and  C_12
REMARK    5  A    between atoms: C_9  and  C_15
REMARK    6  A    between atoms: C_11  and  C_16
REMARK    7  A    between atoms: C_12  and  C_17
REMARK    8  A    between atoms: C_12  and  C_18
REMARK    9  A    between atoms: C_13  and  C_19
REMARK   10  A    between atoms: C_16  and  C_20
REMARK   11  A    between atoms: C_23  and  C_26
REMARK                            x       y       z     vdW  Elec       q    Type
REMARK                         _______ _______ _______ _____ _____    ______ ____
ROOT
ATOM      8  C   UNL     1      -2.893 -12.941  13.222  0.00  0.00    +0.000 C 
ATOM      9  C   UNL     1      -1.913 -11.782  13.528  0.00  0.00    +0.030 C 
ATOM     10  C   UNL     1      -2.992 -13.173  11.706  0.00  0.00    +0.012 C 
ATOM     11  C   UNL     1      -3.470 -11.917  10.954  0.00  0.00    +0.023 C 
ATOM     13  C   UNL     1      -2.725 -10.675  11.401  0.00  0.00    -0.073 C 
ATOM     14  C   UNL     1      -2.024 -10.637  12.549  0.00  0.00    -0.023 C 
ATOM     19  C   UNL     1      -2.769  -9.490  10.477  0.00  0.00    +0.039 C 
ENDROOT
BRANCH   8  12
ATOM     12  C   UNL     1      -2.475 -14.239  13.918  0.00  0.00    -0.013 C 
ATOM     17  C   UNL     1      -3.702 -14.983  14.437  0.00  0.00    +0.007 C 
ATOM     18  C   UNL     1      -1.670 -15.119  12.969  0.00  0.00    +0.007 C 
ENDBRANCH   8  12
BRANCH   9  15
ATOM     15  C   UNL     1      -2.109 -11.254  14.954  0.00  0.00    +0.113 C 
BRANCH  15   6
ATOM      6  N   UNL     1      -3.195 -10.261  14.954  0.00  0.00    -0.194 NA
ATOM     32  H   UNL     1      -2.882  -9.304  15.167  0.00  0.00    +0.148 HD
BRANCH   6   1
ATOM      1  S   UNL     1      -4.723 -10.694  15.584  0.00  0.00    +0.033 S 
ATOM      4  O   UNL     1      -5.522 -11.319  14.549  0.00  0.00    -0.158 OA
ATOM      5  O   UNL     1      -5.241  -9.575  16.348  0.00  0.00    -0.158 OA
BRANCH   1  23
ATOM     23  C   UNL     1      -4.249 -11.954  16.746  0.00  0.00    +0.220 C 
BRANCH  23  26
ATOM     26  C   UNL     1      -5.299 -12.009  17.813  0.00  0.00    -0.025 A 
ATOM     27  C   UNL     1      -5.098 -11.343  19.022  0.00  0.00    +0.005 A 
ATOM     28  C   UNL     1      -6.476 -12.725  17.597  0.00  0.00    +0.005 A 
ATOM     29  C   UNL     1      -6.076 -11.395  20.017  0.00  0.00    +0.000 A 
ATOM     30  C   UNL     1      -7.454 -12.776  18.591  0.00  0.00    +0.000 A 
ATOM     31  C   UNL     1      -7.253 -12.111  19.802  0.00  0.00    +0.000 A 
ENDBRANCH  23  26
ENDBRANCH   1  23
ENDBRANCH   6   1
ENDBRANCH  15   6
ENDBRANCH   9  15
BRANCH  11  16
ATOM     16  C   UNL     1      -4.984 -11.730  11.098  0.00  0.00    +0.103 C 
BRANCH  16  20
ATOM      2  O   UNL     1      -5.509 -12.852   9.076  0.00  0.00    -0.276 OA
ATOM      3  O   UNL     1      -8.452  -8.888   8.775  0.00  0.00    -0.377 OA
ATOM      7  N   UNL     1      -6.381 -10.715   9.334  0.00  0.00    -0.297 N 
ATOM     20  C   UNL     1      -5.643 -11.824   9.744  0.00  0.00    +0.216 C 
ATOM     21  C   UNL     1      -6.457  -9.434  10.043  0.00  0.00    +0.136 C 
ATOM     22  C   UNL     1      -7.057 -10.725   8.037  0.00  0.00    +0.136 C 
ATOM     24  C   UNL     1      -7.898  -8.943  10.093  0.00  0.00    +0.179 C 
ATOM     25  C   UNL     1      -8.473 -10.185   8.173  0.00  0.00    +0.179 C 
ENDBRANCH  16  20
ENDBRANCH  11  16
TORSDOF 8
ENDMDL
MODEL 7
REMARK VINA RESULT:      -6.2     26.954     31.359
REMARK  Name = 38028091
REMARK  11 active torsions:
REMARK  status: ('A' for Active; 'I' for Inactive)
REMARK    1  A    between atoms: S_1  and  N_6
REMARK    2  A    between atoms: S_1  and  C_23
REMARK    3  A    between atoms: N_6  and  C_15
REMARK    4  A    between atoms: C_8  and  C_12
REMARK    5  A    between atoms: C_9  and  C_15
REMARK    6  A    between atoms: C_11  and  C_16
REMARK    7  A    between atoms: C_12  and  C_17
REMARK    8  A    between atoms: C_12  and  C_18
REMARK    9  A    between atoms: C_13  and  C_19
REMARK   10  A    between atoms: C_16  and  C_20
REMARK   11  A    between atoms: C_23  and  C_26
REMARK                            x       y       z     vdW  Elec       q    Type
REMARK                         _______ _______ _______ _____ _____    ______ ____
ROOT
ATOM      8  C   UNL     1      11.048   7.052   2.944  0.00  0.00    +0.000 C 
ATOM      9  C   UNL     1      10.881   5.597   2.442  0.00  0.00    +0.030 C 
ATOM     10  C   UNL     1      11.645   7.066   4.360  0.00  0.00    +0.012 C 
ATOM     11  C   UNL     1      10.769   6.299   5.368  0.00  0.00    +0.023 C 
ATOM     13  C   UNL     1      10.338   4.950   4.829  0.00  0.00    -0.073 C 
ATOM     14  C   UNL     1      10.407   4.650   3.519  0.00  0.00    -0.023 C 
ATOM     19  C   UNL     1       9.866   3.938   5.835  0.00  0.00    +0.039 C 
ENDROOT
BRANCH   8  12
ATOM     12  C   UNL     1      11.929   7.881   2.003  0.00  0.00    -0.013 C 
ATOM     17  C   UNL     1      12.287   9.216   2.648  0.00  0.00    +0.007 C 
ATOM     18  C   UNL     1      13.187   7.105   1.629  0.00  0.00    +0.007 C 
ENDBRANCH   8  12
BRANCH   9  15
ATOM     15  C   UNL     1       9.922   5.530   1.247  0.00  0.00    +0.113 C 
BRANCH  15   6
ATOM      6  N   UNL     1      10.270   4.367   0.416  0.00  0.00    -0.194 NA
ATOM     32  H   UNL     1      10.744   3.615   0.933  0.00  0.00    +0.148 HD
BRANCH   6   1
ATOM      1  S   UNL     1      10.813   4.615  -1.185  0.00  0.00    +0.033 S 
ATOM      4  O   UNL     1      11.617   5.820  -1.249  0.00  0.00    -0.158 OA
ATOM      5  O   UNL     1       9.695   4.421  -2.087  0.00  0.00    -0.158 OA
BRANCH   1  23
ATOM     23  C   UNL     1      11.900   3.222  -1.379  0.00  0.00    +0.220 C 
BRANCH  23  26
ATOM     26  C   UNL     1      13.123   3.479  -0.553  0.00  0.00    -0.025 A 
ATOM     27  C   UNL     1      14.271   4.001  -1.149  0.00  0.00    +0.005 A 
ATOM     28  C   UNL     1      13.114   3.195   0.813  0.00  0.00    +0.005 A 
ATOM     29  C   UNL     1      15.410   4.240  -0.380  0.00  0.00    +0.000 A 
ATOM     30  C   UNL     1      14.253   3.434   1.582  0.00  0.00    +0.000 A 
ATOM     31  C   UNL     1      15.401   3.956   0.985  0.00  0.00    +0.000 A 
ENDBRANCH  23  26
ENDBRANCH   1  23
ENDBRANCH   6   1
ENDBRANCH  15   6
ENDBRANCH   9  15
BRANCH  11  16
ATOM     16  C   UNL     1       9.556   7.134   5.792  0.00  0.00    +0.103 C 
BRANCH  16  20
ATOM      2  O   UNL     1       9.897   7.191   8.138  0.00  0.00    -0.276 OA
ATOM      3  O   UNL     1      11.211  11.784   6.857  0.00  0.00    -0.377 OA
ATOM      7  N   UNL     1      10.059   9.218   7.016  0.00  0.00    -0.297 N 
ATOM     20  C   UNL     1       9.850   7.842   7.092  0.00  0.00    +0.216 C 
ATOM     21  C   UNL     1       9.887  10.039   5.814  0.00  0.00    +0.136 C 
ATOM     22  C   UNL     1      10.355   9.981   8.228  0.00  0.00    +0.136 C 
ATOM     24  C   UNL     1      11.053  11.008   5.666  0.00  0.00    +0.179 C 
ATOM     25  C   UNL     1      11.504  10.947   7.979  0.00  0.00    +0.179 C 
ENDBRANCH  16  20
ENDBRANCH  11  16
TORSDOF 8
ENDMDL
MODEL 8
REMARK VINA RESULT:      -6.1     20.824     22.578
REMARK  Name = 38028091
REMARK  11 active torsions:
REMARK  status: ('A' for Active; 'I' for Inactive)
REMARK    1  A    between atoms: S_1  and  N_6
REMARK    2  A    between atoms: S_1  and  C_23
REMARK    3  A    between atoms: N_6  and  C_15
REMARK    4  A    between atoms: C_8  and  C_12
REMARK    5  A    between atoms: C_9  and  C_15
REMARK    6  A    between atoms: C_11  and  C_16
REMARK    7  A    between atoms: C_12  and  C_17
REMARK    8  A    between atoms: C_12  and  C_18
REMARK    9  A    between atoms: C_13  and  C_19
REMARK   10  A    between atoms: C_16  and  C_20
REMARK   11  A    between atoms: C_23  and  C_26
REMARK                            x       y       z     vdW  Elec       q    Type
REMARK                         _______ _______ _______ _____ _____    ______ ____
ROOT
ATOM      8  C   UNL     1      -4.890 -12.323  15.679  0.00  0.00    +0.000 C 
ATOM      9  C   UNL     1      -4.025 -11.813  16.859  0.00  0.00    +0.030 C 
ATOM     10  C   UNL     1      -4.003 -12.665  14.472  0.00  0.00    +0.012 C 
ATOM     11  C   UNL     1      -3.185 -11.454  13.989  0.00  0.00    +0.023 C 
ATOM     13  C   UNL     1      -2.512 -10.733  15.140  0.00  0.00    -0.073 C 
ATOM     14  C   UNL     1      -2.893 -10.916  16.417  0.00  0.00    -0.023 C 
ATOM     19  C   UNL     1      -1.362  -9.829  14.793  0.00  0.00    +0.039 C 
ENDROOT
BRANCH   8  12
ATOM     12  C   UNL     1      -5.724 -13.547  16.073  0.00  0.00    -0.013 C 
ATOM     17  C   UNL     1      -6.627 -13.969  14.918  0.00  0.00    +0.007 C 
ATOM     18  C   UNL     1      -4.816 -14.696  16.499  0.00  0.00    +0.007 C 
ENDBRANCH   8  12
BRANCH   9  15
ATOM     15  C   UNL     1      -4.882 -11.080  17.897  0.00  0.00    +0.113 C 
BRANCH  15   6
ATOM      6  N   UNL     1      -5.831 -10.198  17.201  0.00  0.00    -0.194 NA
ATOM     32  H   UNL     1      -5.456  -9.263  16.997  0.00  0.00    +0.148 HD
BRANCH   6   1
ATOM      1  S   UNL     1      -7.486 -10.251  17.625  0.00  0.00    +0.033 S 
ATOM      4  O   UNL     1      -8.124 -11.378  16.974  0.00  0.00    -0.158 OA
ATOM      5  O   UNL     1      -8.036  -8.915  17.503  0.00  0.00    -0.158 OA
BRANCH   1  23
ATOM     23  C   UNL     1      -7.364 -10.618  19.360  0.00  0.00    +0.220 C 
BRANCH  23  26
ATOM     26  C   UNL     1      -8.454 -11.589  19.699  0.00  0.00    -0.025 A 
ATOM     27  C   UNL     1      -9.762 -11.137  19.869  0.00  0.00    +0.005 A 
ATOM     28  C   UNL     1      -8.159 -12.945  19.845  0.00  0.00    +0.005 A 
ATOM     29  C   UNL     1     -10.777 -12.041  20.185  0.00  0.00    +0.000 A 
ATOM     30  C   UNL     1      -9.174 -13.848  20.160  0.00  0.00    +0.000 A 
ATOM     31  C   UNL     1     -10.483 -13.396  20.330  0.00  0.00    +0.000 A 
ENDBRANCH  23  26
ENDBRANCH   1  23
ENDBRANCH   6   1
ENDBRANCH  15   6
ENDBRANCH   9  15
BRANCH  11  16
ATOM     16  C   UNL     1      -4.053 -10.491  13.171  0.00  0.00    +0.103 C 
BRANCH  16  20
ATOM      2  O   UNL     1      -2.383 -10.843  11.525  0.00  0.00    -0.276 OA
ATOM      3  O   UNL     1      -5.948  -8.703   8.846  0.00  0.00    -0.377 OA
ATOM      7  N   UNL     1      -4.209  -9.555  10.893  0.00  0.00    -0.297 N 
ATOM     20  C   UNL     1      -3.466 -10.316  11.793  0.00  0.00    +0.216 C 
ATOM     21  C   UNL     1      -5.432  -8.812  11.214  0.00  0.00    +0.136 C 
ATOM     22  C   UNL     1      -3.715  -9.339   9.534  0.00  0.00    +0.136 C 
ATOM     24  C   UNL     1      -6.482  -9.031  10.132  0.00  0.00    +0.179 C 
ATOM     25  C   UNL     1      -4.835  -9.542   8.524  0.00  0.00    +0.179 C 
ENDBRANCH  16  20
ENDBRANCH  11  16
TORSDOF 8
ENDMDL
MODEL 9
REMARK VINA RESULT:      -6.1     19.800     22.100
REMARK  Name = 38028091
REMARK  11 active torsions:
REMARK  status: ('A' for Active; 'I' for Inactive)
REMARK    1  A    between atoms: S_1  and  N_6
REMARK    2  A    between atoms: S_1  and  C_23
REMARK    3  A    between atoms: N_6  and  C_15
REMARK    4  A    between atoms: C_8  and  C_12
REMARK    5  A    between atoms: C_9  and  C_15
REMARK    6  A    between atoms: C_11  and  C_16
REMARK    7  A    between atoms: C_12  and  C_17
REMARK    8  A    between atoms: C_12  and  C_18
REMARK    9  A    between atoms: C_13  and  C_19
REMARK   10  A    between atoms: C_16  and  C_20
REMARK   11  A    between atoms: C_23  and  C_26
REMARK                            x       y       z     vdW  Elec       q    Type
REMARK                         _______ _______ _______ _____ _____    ______ ____
ROOT
ATOM      8  C   UNL     1      -7.028 -11.667  16.929  0.00  0.00    +0.000 C 
ATOM      9  C   UNL     1      -7.207 -12.030  18.424  0.00  0.00    +0.030 C 
ATOM     10  C   UNL     1      -5.793 -12.376  16.350  0.00  0.00    +0.012 C 
ATOM     11  C   UNL     1      -4.502 -12.003  17.101  0.00  0.00    +0.023 C 
ATOM     13  C   UNL     1      -4.683 -12.079  18.604  0.00  0.00    -0.073 C 
ATOM     14  C   UNL     1      -5.900 -12.103  19.176  0.00  0.00    -0.023 C 
ATOM     19  C   UNL     1      -3.432 -12.171  19.433  0.00  0.00    +0.039 C 
ENDROOT
BRANCH   8  12
ATOM     12  C   UNL     1      -8.266 -12.027  16.103  0.00  0.00    -0.013 C 
ATOM     17  C   UNL     1      -8.102 -11.553  14.662  0.00  0.00    +0.007 C 
ATOM     18  C   UNL     1      -8.522 -13.530  16.152  0.00  0.00    +0.007 C 
ENDBRANCH   8  12
BRANCH   9  15
ATOM     15  C   UNL     1      -8.145 -11.040  19.125  0.00  0.00    +0.113 C 
BRANCH  15   6
ATOM      6  N   UNL     1      -8.975 -11.769  20.096  0.00  0.00    -0.194 NA
ATOM     32  H   UNL     1      -8.532 -12.622  20.462  0.00  0.00    +0.148 HD
BRANCH   6   1
ATOM      1  S   UNL     1     -10.663 -11.864  19.848  0.00  0.00    +0.033 S 
ATOM      4  O   UNL     1     -11.267 -12.678  20.884  0.00  0.00    -0.158 OA
ATOM      5  O   UNL     1     -10.908 -12.144  18.447  0.00  0.00    -0.158 OA
BRANCH   1  23
ATOM     23  C   UNL     1     -11.129 -10.173  20.140  0.00  0.00    +0.220 C 
BRANCH  23  26
ATOM     26  C   UNL     1     -11.738  -9.643  18.878  0.00  0.00    -0.025 A 
ATOM     27  C   UNL     1     -13.111  -9.754  18.666  0.00  0.00    +0.005 A 
ATOM     28  C   UNL     1     -10.929  -9.039  17.915  0.00  0.00    +0.005 A 
ATOM     29  C   UNL     1     -13.678  -9.261  17.490  0.00  0.00    +0.000 A 
ATOM     30  C   UNL     1     -11.495  -8.545  16.740  0.00  0.00    +0.000 A 
ATOM     31  C   UNL     1     -12.870  -8.657  16.527  0.00  0.00    +0.000 A 
ENDBRANCH  23  26
ENDBRANCH   1  23
ENDBRANCH   6   1
ENDBRANCH  15   6
ENDBRANCH   9  15
BRANCH  11  16
ATOM     16  C   UNL     1      -3.996 -10.619  16.679  0.00  0.00    +0.103 C 
BRANCH  16  20
ATOM      2  O   UNL     1      -1.678 -10.900  16.269  0.00  0.00    -0.276 OA
ATOM      3  O   UNL     1      -3.539 -11.458  11.721  0.00  0.00    -0.377 OA
ATOM      7  N   UNL     1      -3.050 -10.745  14.403  0.00  0.00    -0.297 N 
ATOM     20  C   UNL     1      -2.799 -10.766  15.773  0.00  0.00    +0.216 C 
ATOM     21  C   UNL     1      -4.348 -10.462  13.780  0.00  0.00    +0.136 C 
ATOM     22  C   UNL     1      -1.947 -10.886  13.454  0.00  0.00    +0.136 C 
ATOM     24  C   UNL     1      -4.621 -11.454  12.656  0.00  0.00    +0.179 C 
ATOM     25  C   UNL     1      -2.319 -11.863  12.349  0.00  0.00    +0.179 C 
ENDBRANCH  16  20
ENDBRANCH  11  16
TORSDOF 8
ENDMDL
MODEL 10
REMARK VINA RESULT:      -6.0     20.904     22.648
REMARK  Name = 38028091
REMARK  11 active torsions:
REMARK  status: ('A' for Active; 'I' for Inactive)
REMARK    1  A    between atoms: S_1  and  N_6
REMARK    2  A    between atoms: S_1  and  C_23
REMARK    3  A    between atoms: N_6  and  C_15
REMARK    4  A    between atoms: C_8  and  C_12
REMARK    5  A    between atoms: C_9  and  C_15
REMARK    6  A    between atoms: C_11  and  C_16
REMARK    7  A    between atoms: C_12  and  C_17
REMARK    8  A    between atoms: C_12  and  C_18
REMARK    9  A    between atoms: C_13  and  C_19
REMARK   10  A    between atoms: C_16  and  C_20
REMARK   11  A    between atoms: C_23  and  C_26
REMARK                            x       y       z     vdW  Elec       q    Type
REMARK                         _______ _______ _______ _____ _____    ______ ____
ROOT
ATOM      8  C   UNL     1      -4.929 -12.450  15.877  0.00  0.00    +0.000 C 
ATOM      9  C   UNL     1      -4.130 -11.939  17.102  0.00  0.00    +0.030 C 
ATOM     10  C   UNL     1      -3.980 -12.762  14.710  0.00  0.00    +0.012 C 
ATOM     11  C   UNL     1      -3.162 -11.530  14.279  0.00  0.00    +0.023 C 
ATOM     13  C   UNL     1      -2.558 -10.811  15.469  0.00  0.00    -0.073 C 
ATOM     14  C   UNL     1      -2.995 -11.016  16.724  0.00  0.00    -0.023 C 
ATOM     19  C   UNL     1      -1.410  -9.883  15.187  0.00  0.00    +0.039 C 
ENDROOT
BRANCH   8  12
ATOM     12  C   UNL     1      -5.757 -13.693  16.218  0.00  0.00    -0.013 C 
ATOM     17  C   UNL     1      -6.537 -14.163  14.994  0.00  0.00    +0.007 C 
ATOM     18  C   UNL     1      -4.857 -14.805  16.746  0.00  0.00    +0.007 C 
ENDBRANCH   8  12
BRANCH   9  15
ATOM     15  C   UNL     1      -5.048 -11.234  18.107  0.00  0.00    +0.113 C 
BRANCH  15   6
ATOM      6  N   UNL     1      -5.945 -10.322  17.380  0.00  0.00    -0.194 NA
ATOM     32  H   UNL     1      -5.491  -9.453  17.069  0.00  0.00    +0.148 HD
BRANCH   6   1
ATOM      1  S   UNL     1      -7.567 -10.161  17.893  0.00  0.00    +0.033 S 
ATOM      4  O   UNL     1      -8.098  -8.887  17.451  0.00  0.00    -0.158 OA
ATOM      5  O   UNL     1      -7.653 -10.558  19.285  0.00  0.00    -0.158 OA
BRANCH   1  23
ATOM     23  C   UNL     1      -8.340 -11.440  16.928  0.00  0.00    +0.220 C 
BRANCH  23  26
ATOM     26  C   UNL     1      -8.781 -10.830  15.633  0.00  0.00    -0.025 A 
ATOM     27  C   UNL     1      -7.868 -10.667  14.592  0.00  0.00    +0.005 A 
ATOM     28  C   UNL     1     -10.106 -10.426  15.469  0.00  0.00    +0.005 A 
ATOM     29  C   UNL     1      -8.279 -10.099  13.385  0.00  0.00    +0.000 A 
ATOM     30  C   UNL     1     -10.518  -9.858  14.263  0.00  0.00    +0.000 A 
ATOM     31  C   UNL     1      -9.603  -9.694  13.221  0.00  0.00    +0.000 A 
ENDBRANCH  23  26
ENDBRANCH   1  23
ENDBRANCH   6   1
ENDBRANCH  15   6
ENDBRANCH   9  15
BRANCH  11  16
ATOM     16  C   UNL     1      -4.009 -10.574  13.432  0.00  0.00    +0.103 C 
BRANCH  16  20
ATOM      2  O   UNL     1      -2.238 -10.841  11.878  0.00  0.00    -0.276 OA
ATOM      3  O   UNL     1      -5.746  -8.854   9.014  0.00  0.00    -0.377 OA
ATOM      7  N   UNL     1      -4.083  -9.635  11.151  0.00  0.00    -0.297 N 
ATOM     20  C   UNL     1      -3.356 -10.365  12.088  0.00  0.00    +0.216 C 
ATOM     21  C   UNL     1      -5.354  -8.950  11.407  0.00  0.00    +0.136 C 
ATOM     22  C   UNL     1      -3.527  -9.391   9.821  0.00  0.00    +0.136 C 
ATOM     24  C   UNL     1      -6.333  -9.212  10.269  0.00  0.00    +0.179 C 
ATOM     25  C   UNL     1      -4.580  -9.639   8.751  0.00  0.00    +0.179 C 
ENDBRANCH  16  20
ENDBRANCH  11  16
TORSDOF 8
ENDMDL
