REMARK  Name = 51136659
REMARK  10 active torsions:
REMARK  status: ('A' for Active; 'I' for Inactive)
REMARK    1  A    between atoms: O_2  and  C_16
REMARK    2  A    between atoms: O_4  and  C_26
REMARK    3  A    between atoms: O_4  and  C_33
REMARK    4  A    between atoms: C_7  and  C_12
REMARK    5  A    between atoms: C_8  and  C_13
REMARK    6  A    between atoms: C_12  and  C_14
REMARK    7  A    between atoms: C_13  and  C_16
REMARK    8  A    between atoms: C_15  and  C_18
REMARK    9  A    between atoms: C_18  and  C_22
REMARK   10  A    between atoms: C_22  and  C_27
REMARK                            x       y       z     vdW  Elec       q    Type
REMARK                         _______ _______ _______ _____ _____    ______ ____
ROOT
ATOM      1  O   UNL     1      -0.615   3.414  -1.649  0.00  0.00    -0.276 OA
ATOM      5  N   UNL     1      -1.846   2.195  -0.101  0.00  0.00    -0.301 N 
ATOM      7  C   UNL     1      -2.726   0.048   0.786  0.00  0.00    +0.016 C 
ATOM      8  C   UNL     1      -4.107   0.406   0.180  0.00  0.00    +0.006 C 
ATOM      9  C   UNL     1      -3.967   1.348  -1.028  0.00  0.00    +0.023 C 
ATOM     10  C   UNL     1      -1.937   1.335   1.085  0.00  0.00    +0.112 C 
ATOM     11  C   UNL     1      -3.135   2.578  -0.679  0.00  0.00    +0.108 C 
ATOM     15  C   UNL     1      -0.663   2.670  -0.666  0.00  0.00    +0.216 C 
ENDROOT
BRANCH   7  12
ATOM     12  C   UNL     1      -1.890  -0.899  -0.085  0.00  0.00    +0.061 C 
BRANCH  12  14
ATOM      6  N   UNL     1      -1.110  -1.779   2.010  0.00  0.00    -0.287 NA
ATOM     14  C   UNL     1      -0.843  -1.582   0.761  0.00  0.00    +0.044 C 
ATOM     17  C   UNL     1       0.438  -1.986   0.125  0.00  0.00    -0.001 A 
ATOM     19  C   UNL     1       1.512  -2.250   0.984  0.00  0.00    -0.033 A 
ATOM     20  C   UNL     1       1.309  -2.097   2.462  0.00  0.00    +0.059 C 
ATOM     21  C   UNL     1      -0.118  -2.496   2.817  0.00  0.00    +0.146 C 
ATOM     23  C   UNL     1       0.594  -2.091  -1.258  0.00  0.00    +0.013 A 
ATOM     24  C   UNL     1       2.756  -2.596   0.447  0.00  0.00    +0.050 A 
ATOM     25  C   UNL     1       1.835  -2.451  -1.784  0.00  0.00    +0.046 A 
ATOM     26  C   UNL     1       2.914  -2.701  -0.935  0.00  0.00    +0.120 A 
BRANCH  26   4
ATOM      4  O   UNL     1       4.123  -3.045  -1.457  0.00  0.00    -0.495 OA
ATOM     33  C   UNL     1       4.216  -3.131  -2.878  0.00  0.00    +0.277 C 
ENDBRANCH  26   4
ENDBRANCH  12  14
ENDBRANCH   7  12
BRANCH   8  13
ATOM     13  C   UNL     1      -4.939  -0.823  -0.188  0.00  0.00    +0.124 C 
BRANCH  13  16
ATOM      3  O   UNL     1      -6.922   0.586  -0.041  0.00  0.00    -0.251 OA
ATOM     16  C   UNL     1      -6.407  -0.502  -0.247  0.00  0.00    +0.305 C 
BRANCH  16   2
ATOM      2  O   UNL     1      -7.107  -1.620  -0.571  0.00  0.00    -0.481 OA
ATOM     34  H   UNL     1      -8.071  -1.446  -0.618  0.00  0.00    +0.295 HD
ENDBRANCH  16   2
ENDBRANCH  13  16
ENDBRANCH   8  13
BRANCH  15  18
ATOM     18  C   UNL     1       0.623   2.227  -0.015  0.00  0.00    +0.100 C 
BRANCH  18  22
ATOM     22  C   UNL     1       1.821   2.823  -0.738  0.00  0.00    +0.044 C 
BRANCH  22  27
ATOM     27  C   UNL     1       3.143   2.432  -0.124  0.00  0.00    -0.047 A 
ATOM     28  C   UNL     1       3.707   3.220   0.879  0.00  0.00    +0.003 A 
ATOM     29  C   UNL     1       3.801   1.281  -0.559  0.00  0.00    +0.003 A 
ATOM     30  C   UNL     1       4.929   2.859   1.447  0.00  0.00    +0.000 A 
ATOM     31  C   UNL     1       5.023   0.920   0.009  0.00  0.00    +0.000 A 
ATOM     32  C   UNL     1       5.587   1.708   1.012  0.00  0.00    +0.000 A 
ENDBRANCH  22  27
ENDBRANCH  18  22
ENDBRANCH  15  18
TORSDOF 9
