MODEL 1
REMARK VINA RESULT:      -6.5      0.000      0.000
REMARK  Name = 75537079
REMARK  5 active torsions:
REMARK  status: ('A' for Active; 'I' for Inactive)
REMARK    1  A    between atoms: N_3  and  C_14
REMARK    2  A    between atoms: N_4  and  C_15
REMARK    3  A    between atoms: N_5  and  C_22
REMARK    4  A    between atoms: C_14  and  C_16
REMARK    5  A    between atoms: C_15  and  C_17
REMARK                            x       y       z     vdW  Elec       q    Type
REMARK                         _______ _______ _______ _____ _____    ______ ____
ROOT
ATOM      1  O   UNL     1      15.632   9.675  20.326  0.00  0.00    -0.252 OA
ATOM      2  N   UNL     1      17.130   7.934  20.815  0.00  0.00    -0.278 N 
ATOM      3  N   UNL     1      19.583   6.605  21.176  0.00  0.00    -0.295 NA
ATOM      4  N   UNL     1      15.345   7.472  19.533  0.00  0.00    -0.278 N 
ATOM      8  C   UNL     1      17.190   6.501  20.612  0.00  0.00    +0.109 C 
ATOM      9  C   UNL     1      18.602   6.079  20.206  0.00  0.00    +0.109 C 
ATOM     10  C   UNL     1      16.114   6.240  19.559  0.00  0.00    +0.133 C 
ATOM     11  C   UNL     1      18.138   8.576  21.633  0.00  0.00    +0.125 C 
ATOM     12  C   UNL     1      19.530   8.081  21.233  0.00  0.00    +0.104 C 
ATOM     13  C   UNL     1      15.989   8.508  20.240  0.00  0.00    +0.306 C 
ENDROOT
BRANCH   3  14
ATOM     14  C   UNL     1      20.932   6.157  20.830  0.00  0.00    +0.122 C 
BRANCH  14  16
ATOM      5  N   UNL     1      22.420   3.704  23.099  0.00  0.00    -0.274 N 
ATOM      7  N   UNL     1      22.384   4.731  23.965  0.00  0.00    -0.180 NA
ATOM     16  C   UNL     1      21.543   5.324  21.925  0.00  0.00    +0.004 A 
ATOM     18  C   UNL     1      21.928   4.007  21.863  0.00  0.00    +0.112 A 
ATOM     19  C   UNL     1      21.847   5.718  23.242  0.00  0.00    +0.139 A 
ATOM     22  C   UNL     1      22.949   2.429  23.521  0.00  0.00    +0.172 C 
ENDBRANCH  14  16
ENDBRANCH   3  14
BRANCH   4  15
ATOM     15  C   UNL     1      14.148   7.610  18.734  0.00  0.00    +0.164 C 
BRANCH  15  17
ATOM      6  N   UNL     1      12.678   6.617  20.399  0.00  0.00    -0.258 NA
ATOM     17  C   UNL     1      12.908   7.673  19.588  0.00  0.00    +0.059 A 
ATOM     20  C   UNL     1      12.082   8.783  19.505  0.00  0.00    +0.025 A 
ATOM     21  C   UNL     1      10.947   8.810  20.306  0.00  0.00    +0.003 A 
ATOM     23  C   UNL     1      11.565   6.679  21.164  0.00  0.00    +0.111 A 
ATOM     24  C   UNL     1      10.675   7.741  21.155  0.00  0.00    +0.020 A 
ENDBRANCH  15  17
ENDBRANCH   4  15
TORSDOF 4
ENDMDL
MODEL 2
REMARK VINA RESULT:      -6.3      4.918      9.885
REMARK  Name = 75537079
REMARK  5 active torsions:
REMARK  status: ('A' for Active; 'I' for Inactive)
REMARK    1  A    between atoms: N_3  and  C_14
REMARK    2  A    between atoms: N_4  and  C_15
REMARK    3  A    between atoms: N_5  and  C_22
REMARK    4  A    between atoms: C_14  and  C_16
REMARK    5  A    between atoms: C_15  and  C_17
REMARK                            x       y       z     vdW  Elec       q    Type
REMARK                         _______ _______ _______ _____ _____    ______ ____
ROOT
ATOM      1  O   UNL     1      12.169   6.794  18.588  0.00  0.00    -0.252 OA
ATOM      2  N   UNL     1      12.915   8.859  17.754  0.00  0.00    -0.278 N 
ATOM      3  N   UNL     1      13.637  10.826  15.877  0.00  0.00    -0.295 NA
ATOM      4  N   UNL     1      14.029   7.942  19.475  0.00  0.00    -0.278 N 
ATOM      8  C   UNL     1      13.895   9.858  18.125  0.00  0.00    +0.109 C 
ATOM      9  C   UNL     1      14.620  10.379  16.885  0.00  0.00    +0.109 C 
ATOM     10  C   UNL     1      14.786   9.134  19.132  0.00  0.00    +0.133 C 
ATOM     11  C   UNL     1      11.994   9.138  16.672  0.00  0.00    +0.125 C 
ATOM     12  C   UNL     1      12.753   9.713  15.473  0.00  0.00    +0.104 C 
ATOM     13  C   UNL     1      12.937   7.746  18.605  0.00  0.00    +0.306 C 
ENDROOT
BRANCH   3  14
ATOM     14  C   UNL     1      14.320  11.382  14.710  0.00  0.00    +0.122 C 
BRANCH  14  16
ATOM      5  N   UNL     1      12.272  13.800  12.882  0.00  0.00    -0.274 N 
ATOM      7  N   UNL     1      12.775  14.658  13.787  0.00  0.00    -0.180 NA
ATOM     16  C   UNL     1      13.561  12.538  14.114  0.00  0.00    +0.004 A 
ATOM     18  C   UNL     1      12.711  12.518  13.035  0.00  0.00    +0.112 A 
ATOM     19  C   UNL     1      13.562  13.881  14.536  0.00  0.00    +0.139 A 
ATOM     22  C   UNL     1      11.356  14.277  11.874  0.00  0.00    +0.172 C 
ENDBRANCH  14  16
ENDBRANCH   3  14
BRANCH   4  15
ATOM     15  C   UNL     1      14.474   7.019  20.495  0.00  0.00    +0.164 C 
BRANCH  15  17
ATOM      6  N   UNL     1      16.221   6.010  19.135  0.00  0.00    -0.258 NA
ATOM     17  C   UNL     1      15.913   6.620  20.302  0.00  0.00    +0.059 A 
ATOM     20  C   UNL     1      16.833   6.889  21.303  0.00  0.00    +0.025 A 
ATOM     21  C   UNL     1      18.153   6.509  21.093  0.00  0.00    +0.003 A 
ATOM     23  C   UNL     1      17.514   5.655  18.967  0.00  0.00    +0.111 A 
ATOM     24  C   UNL     1      18.509   5.879  19.905  0.00  0.00    +0.020 A 
ENDBRANCH  15  17
ENDBRANCH   4  15
TORSDOF 4
ENDMDL
MODEL 3
REMARK VINA RESULT:      -5.9     31.448     33.839
REMARK  Name = 75537079
REMARK  5 active torsions:
REMARK  status: ('A' for Active; 'I' for Inactive)
REMARK    1  A    between atoms: N_3  and  C_14
REMARK    2  A    between atoms: N_4  and  C_15
REMARK    3  A    between atoms: N_5  and  C_22
REMARK    4  A    between atoms: C_14  and  C_16
REMARK    5  A    between atoms: C_15  and  C_17
REMARK                            x       y       z     vdW  Elec       q    Type
REMARK                         _______ _______ _______ _____ _____    ______ ____
ROOT
ATOM      1  O   UNL     1     -17.207   1.968  22.576  0.00  0.00    -0.252 OA
ATOM      2  N   UNL     1     -16.508   2.296  24.794  0.00  0.00    -0.278 N 
ATOM      3  N   UNL     1     -16.518   2.128  27.602  0.00  0.00    -0.295 NA
ATOM      4  N   UNL     1     -16.463   4.052  23.394  0.00  0.00    -0.278 N 
ATOM      8  C   UNL     1     -15.896   3.360  25.564  0.00  0.00    +0.109 C 
ATOM      9  C   UNL     1     -16.538   3.452  26.948  0.00  0.00    +0.109 C 
ATOM     10  C   UNL     1     -16.083   4.596  24.686  0.00  0.00    +0.133 C 
ATOM     11  C   UNL     1     -16.674   0.991  25.398  0.00  0.00    +0.125 C 
ATOM     12  C   UNL     1     -17.263   1.134  26.803  0.00  0.00    +0.104 C 
ATOM     13  C   UNL     1     -16.777   2.679  23.473  0.00  0.00    +0.306 C 
ENDROOT
BRANCH   3  14
ATOM     14  C   UNL     1     -17.076   2.218  28.951  0.00  0.00    +0.122 C 
BRANCH  14  16
ATOM      5  N   UNL     1     -14.674   1.718  31.664  0.00  0.00    -0.274 N 
ATOM      7  N   UNL     1     -14.691   0.450  31.221  0.00  0.00    -0.180 NA
ATOM     16  C   UNL     1     -16.084   1.784  29.997  0.00  0.00    +0.004 A 
ATOM     18  C   UNL     1     -15.491   2.557  30.966  0.00  0.00    +0.112 A 
ATOM     19  C   UNL     1     -15.553   0.496  30.202  0.00  0.00    +0.139 A 
ATOM     22  C   UNL     1     -13.838   2.075  32.785  0.00  0.00    +0.172 C 
ENDBRANCH  14  16
ENDBRANCH   3  14
BRANCH   4  15
ATOM     15  C   UNL     1     -16.634   4.892  22.229  0.00  0.00    +0.164 C 
BRANCH  15  17
ATOM      6  N   UNL     1     -15.582   7.042  21.792  0.00  0.00    -0.258 NA
ATOM     17  C   UNL     1     -15.402   5.710  21.944  0.00  0.00    +0.059 A 
ATOM     20  C   UNL     1     -14.173   5.078  21.851  0.00  0.00    +0.025 A 
ATOM     21  C   UNL     1     -13.056   5.863  21.587  0.00  0.00    +0.003 A 
ATOM     23  C   UNL     1     -14.474   7.772  21.537  0.00  0.00    +0.111 A 
ATOM     24  C   UNL     1     -13.201   7.237  21.425  0.00  0.00    +0.020 A 
ENDBRANCH  15  17
ENDBRANCH   4  15
TORSDOF 4
ENDMDL
MODEL 4
REMARK VINA RESULT:      -5.7     27.657     30.039
REMARK  Name = 75537079
REMARK  5 active torsions:
REMARK  status: ('A' for Active; 'I' for Inactive)
REMARK    1  A    between atoms: N_3  and  C_14
REMARK    2  A    between atoms: N_4  and  C_15
REMARK    3  A    between atoms: N_5  and  C_22
REMARK    4  A    between atoms: C_14  and  C_16
REMARK    5  A    between atoms: C_15  and  C_17
REMARK                            x       y       z     vdW  Elec       q    Type
REMARK                         _______ _______ _______ _____ _____    ______ ____
ROOT
ATOM      1  O   UNL     1      -1.634 -10.321  13.567  0.00  0.00    -0.252 OA
ATOM      2  N   UNL     1      -3.521 -10.942  14.820  0.00  0.00    -0.278 N 
ATOM      3  N   UNL     1      -5.035 -11.856  17.008  0.00  0.00    -0.295 NA
ATOM      4  N   UNL     1      -3.377 -11.647  12.693  0.00  0.00    -0.278 N 
ATOM      8  C   UNL     1      -4.783 -11.608  14.573  0.00  0.00    +0.109 C 
ATOM      9  C   UNL     1      -5.113 -12.567  15.716  0.00  0.00    +0.109 C 
ATOM     10  C   UNL     1      -4.579 -12.276  13.214  0.00  0.00    +0.133 C 
ATOM     11  C   UNL     1      -3.282 -10.338  16.114  0.00  0.00    +0.125 C 
ATOM     12  C   UNL     1      -3.681 -11.308  17.228  0.00  0.00    +0.104 C 
ATOM     13  C   UNL     1      -2.709 -10.893  13.679  0.00  0.00    +0.306 C 
ENDROOT
BRANCH   3  14
ATOM     14  C   UNL     1      -5.407 -12.749  18.105  0.00  0.00    +0.122 C 
BRANCH  14  16
ATOM      5  N   UNL     1      -8.773 -12.231  19.441  0.00  0.00    -0.274 N 
ATOM      7  N   UNL     1      -8.221 -11.112  19.942  0.00  0.00    -0.180 NA
ATOM     16  C   UNL     1      -6.704 -12.334  18.749  0.00  0.00    +0.004 A 
ATOM     18  C   UNL     1      -7.906 -12.998  18.719  0.00  0.00    +0.112 A 
ATOM     19  C   UNL     1      -6.957 -11.181  19.515  0.00  0.00    +0.139 A 
ATOM     22  C   UNL     1     -10.164 -12.519  19.694  0.00  0.00    +0.172 C 
ENDBRANCH  14  16
ENDBRANCH   3  14
BRANCH   4  15
ATOM     15  C   UNL     1      -2.887 -11.920  11.360  0.00  0.00    +0.164 C 
BRANCH  15  17
ATOM      6  N   UNL     1      -4.342 -11.728   9.419  0.00  0.00    -0.258 NA
ATOM     17  C   UNL     1      -3.579 -11.074  10.324  0.00  0.00    +0.059 A 
ATOM     20  C   UNL     1      -3.407  -9.699  10.344  0.00  0.00    +0.025 A 
ATOM     21  C   UNL     1      -4.060  -8.947   9.374  0.00  0.00    +0.003 A 
ATOM     23  C   UNL     1      -4.961 -10.964   8.492  0.00  0.00    +0.111 A 
ATOM     24  C   UNL     1      -4.854  -9.584   8.426  0.00  0.00    +0.020 A 
ENDBRANCH  15  17
ENDBRANCH   4  15
TORSDOF 4
ENDMDL
MODEL 5
REMARK VINA RESULT:      -5.7      1.808      8.784
REMARK  Name = 75537079
REMARK  5 active torsions:
REMARK  status: ('A' for Active; 'I' for Inactive)
REMARK    1  A    between atoms: N_3  and  C_14
REMARK    2  A    between atoms: N_4  and  C_15
REMARK    3  A    between atoms: N_5  and  C_22
REMARK    4  A    between atoms: C_14  and  C_16
REMARK    5  A    between atoms: C_15  and  C_17
REMARK                            x       y       z     vdW  Elec       q    Type
REMARK                         _______ _______ _______ _____ _____    ______ ____
ROOT
ATOM      1  O   UNL     1      19.276   5.003  19.712  0.00  0.00    -0.252 OA
ATOM      2  N   UNL     1      17.641   6.511  20.466  0.00  0.00    -0.278 N 
ATOM      3  N   UNL     1      15.337   8.124  20.422  0.00  0.00    -0.295 NA
ATOM      4  N   UNL     1      19.797   6.981  20.886  0.00  0.00    -0.278 N 
ATOM      8  C   UNL     1      17.600   7.700  21.293  0.00  0.00    +0.109 C 
ATOM      9  C   UNL     1      16.655   8.737  20.687  0.00  0.00    +0.109 C 
ATOM     10  C   UNL     1      19.062   8.135  21.375  0.00  0.00    +0.133 C 
ATOM     11  C   UNL     1      16.399   5.913  20.024  0.00  0.00    +0.125 C 
ATOM     12  C   UNL     1      15.461   6.992  19.481  0.00  0.00    +0.104 C 
ATOM     13  C   UNL     1      18.945   6.032  20.285  0.00  0.00    +0.306 C 
ENDROOT
BRANCH   3  14
ATOM     14  C   UNL     1      14.407   9.123  19.898  0.00  0.00    +0.122 C 
BRANCH  14  16
ATOM      5  N   UNL     1      11.117   8.066  21.097  0.00  0.00    -0.274 N 
ATOM      7  N   UNL     1      10.731   8.445  19.866  0.00  0.00    -0.180 NA
ATOM     16  C   UNL     1      12.974   8.754  20.175  0.00  0.00    +0.004 A 
ATOM     18  C   UNL     1      12.450   8.230  21.332  0.00  0.00    +0.112 A 
ATOM     19  C   UNL     1      11.870   8.864  19.308  0.00  0.00    +0.139 A 
ATOM     22  C   UNL     1      10.142   7.543  22.024  0.00  0.00    +0.172 C 
ENDBRANCH  14  16
ENDBRANCH   3  14
BRANCH   4  15
ATOM     15  C   UNL     1      21.242   6.932  20.900  0.00  0.00    +0.164 C 
BRANCH  15  17
ATOM      6  N   UNL     1      21.918   6.666  23.222  0.00  0.00    -0.258 NA
ATOM     17  C   UNL     1      21.764   6.069  22.018  0.00  0.00    +0.059 A 
ATOM     20  C   UNL     1      22.054   4.737  21.769  0.00  0.00    +0.025 A 
ATOM     21  C   UNL     1      22.532   3.967  22.824  0.00  0.00    +0.003 A 
ATOM     23  C   UNL     1      22.386   5.886  24.222  0.00  0.00    +0.111 A 
ATOM     24  C   UNL     1      22.705   4.545  24.077  0.00  0.00    +0.020 A 
ENDBRANCH  15  17
ENDBRANCH   4  15
TORSDOF 4
ENDMDL
MODEL 6
REMARK VINA RESULT:      -5.7     28.792     31.592
REMARK  Name = 75537079
REMARK  5 active torsions:
REMARK  status: ('A' for Active; 'I' for Inactive)
REMARK    1  A    between atoms: N_3  and  C_14
REMARK    2  A    between atoms: N_4  and  C_15
REMARK    3  A    between atoms: N_5  and  C_22
REMARK    4  A    between atoms: C_14  and  C_16
REMARK    5  A    between atoms: C_15  and  C_17
REMARK                            x       y       z     vdW  Elec       q    Type
REMARK                         _______ _______ _______ _____ _____    ______ ____
ROOT
ATOM      1  O   UNL     1     -12.652  -8.121  13.179  0.00  0.00    -0.252 OA
ATOM      2  N   UNL     1     -10.834  -8.065  14.664  0.00  0.00    -0.278 N 
ATOM      3  N   UNL     1      -8.963  -8.971  16.560  0.00  0.00    -0.295 NA
ATOM      4  N   UNL     1     -12.272  -6.340  14.678  0.00  0.00    -0.278 N 
ATOM      8  C   UNL     1     -10.250  -7.113  15.587  0.00  0.00    +0.109 C 
ATOM      9  C   UNL     1      -9.824  -7.814  16.877  0.00  0.00    +0.109 C 
ATOM     10  C   UNL     1     -11.344  -6.060  15.760  0.00  0.00    +0.133 C 
ATOM     11  C   UNL     1     -10.140  -9.307  14.396  0.00  0.00    +0.125 C 
ATOM     12  C   UNL     1      -9.679  -9.944  15.709  0.00  0.00    +0.104 C 
ATOM     13  C   UNL     1     -11.999  -7.577  14.059  0.00  0.00    +0.306 C 
ENDROOT
BRANCH   3  14
ATOM     14  C   UNL     1      -8.501  -9.614  17.790  0.00  0.00    +0.122 C 
BRANCH  14  16
ATOM      5  N   UNL     1      -5.101 -10.939  18.042  0.00  0.00    -0.274 N 
ATOM      7  N   UNL     1      -4.922 -10.237  16.910  0.00  0.00    -0.180 NA
ATOM     16  C   UNL     1      -7.060 -10.038  17.691  0.00  0.00    +0.004 A 
ATOM     18  C   UNL     1      -6.363 -10.854  18.551  0.00  0.00    +0.112 A 
ATOM     19  C   UNL     1      -6.122  -9.689  16.702  0.00  0.00    +0.139 A 
ATOM     22  C   UNL     1      -4.002 -11.689  18.602  0.00  0.00    +0.172 C 
ENDBRANCH  14  16
ENDBRANCH   3  14
BRANCH   4  15
ATOM     15  C   UNL     1     -13.414  -5.494  14.410  0.00  0.00    +0.164 C 
BRANCH  15  17
ATOM      6  N   UNL     1     -14.306  -5.127  12.177  0.00  0.00    -0.258 NA
ATOM     17  C   UNL     1     -13.322  -4.838  13.058  0.00  0.00    +0.059 A 
ATOM     20  C   UNL     1     -12.260  -3.990  12.785  0.00  0.00    +0.025 A 
ATOM     21  C   UNL     1     -12.205  -3.401  11.528  0.00  0.00    +0.003 A 
ATOM     23  C   UNL     1     -14.218  -4.535  10.965  0.00  0.00    +0.111 A 
ATOM     24  C   UNL     1     -13.199  -3.673  10.593  0.00  0.00    +0.020 A 
ENDBRANCH  15  17
ENDBRANCH   4  15
TORSDOF 4
ENDMDL
MODEL 7
REMARK VINA RESULT:      -5.5     27.665     30.872
REMARK  Name = 75537079
REMARK  5 active torsions:
REMARK  status: ('A' for Active; 'I' for Inactive)
REMARK    1  A    between atoms: N_3  and  C_14
REMARK    2  A    between atoms: N_4  and  C_15
REMARK    3  A    between atoms: N_5  and  C_22
REMARK    4  A    between atoms: C_14  and  C_16
REMARK    5  A    between atoms: C_15  and  C_17
REMARK                            x       y       z     vdW  Elec       q    Type
REMARK                         _______ _______ _______ _____ _____    ______ ____
ROOT
ATOM      1  O   UNL     1      -4.842 -12.319  18.395  0.00  0.00    -0.252 OA
ATOM      2  N   UNL     1      -6.498 -10.786  17.746  0.00  0.00    -0.278 N 
ATOM      3  N   UNL     1      -9.024  -9.821  16.971  0.00  0.00    -0.295 NA
ATOM      4  N   UNL     1      -4.473 -10.634  16.787  0.00  0.00    -0.278 N 
ATOM      8  C   UNL     1      -6.574  -9.597  16.922  0.00  0.00    +0.109 C 
ATOM      9  C   UNL     1      -7.857  -9.605  16.092  0.00  0.00    +0.109 C 
ATOM     10  C   UNL     1      -5.283  -9.637  16.108  0.00  0.00    +0.133 C 
ATOM     11  C   UNL     1      -7.647 -11.174  18.537  0.00  0.00    +0.125 C 
ATOM     12  C   UNL     1      -8.916 -11.111  17.684  0.00  0.00    +0.104 C 
ATOM     13  C   UNL     1      -5.222 -11.365  17.731  0.00  0.00    +0.306 C 
ENDROOT
BRANCH   3  14
ATOM     14  C   UNL     1     -10.263  -9.772  16.195  0.00  0.00    +0.122 C 
BRANCH  14  16
ATOM      5  N   UNL     1     -11.517  -6.510  15.113  0.00  0.00    -0.274 N 
ATOM      7  N   UNL     1     -11.202  -6.158  16.372  0.00  0.00    -0.180 NA
ATOM     16  C   UNL     1     -10.727  -8.357  15.972  0.00  0.00    +0.004 A 
ATOM     18  C   UNL     1     -11.253  -7.816  14.823  0.00  0.00    +0.112 A 
ATOM     19  C   UNL     1     -10.720  -7.290  16.891  0.00  0.00    +0.139 A 
ATOM     22  C   UNL     1     -12.081  -5.531  14.215  0.00  0.00    +0.172 C 
ENDBRANCH  14  16
ENDBRANCH   3  14
BRANCH   4  15
ATOM     15  C   UNL     1      -3.108 -10.907  16.396  0.00  0.00    +0.164 C 
BRANCH  15  17
ATOM      6  N   UNL     1      -2.383 -10.473  14.114  0.00  0.00    -0.258 NA
ATOM     17  C   UNL     1      -3.011 -11.327  14.953  0.00  0.00    +0.059 A 
ATOM     20  C   UNL     1      -3.556 -12.540  14.561  0.00  0.00    +0.025 A 
ATOM     21  C   UNL     1      -3.449 -12.898  13.222  0.00  0.00    +0.003 A 
ATOM     23  C   UNL     1      -2.298 -10.856  12.821  0.00  0.00    +0.111 A 
ATOM     24  C   UNL     1      -2.810 -12.045  12.328  0.00  0.00    +0.020 A 
ENDBRANCH  15  17
ENDBRANCH   4  15
TORSDOF 4
ENDMDL
MODEL 8
REMARK VINA RESULT:      -5.5     17.055     20.114
REMARK  Name = 75537079
REMARK  5 active torsions:
REMARK  status: ('A' for Active; 'I' for Inactive)
REMARK    1  A    between atoms: N_3  and  C_14
REMARK    2  A    between atoms: N_4  and  C_15
REMARK    3  A    between atoms: N_5  and  C_22
REMARK    4  A    between atoms: C_14  and  C_16
REMARK    5  A    between atoms: C_15  and  C_17
REMARK                            x       y       z     vdW  Elec       q    Type
REMARK                         _______ _______ _______ _____ _____    ______ ____
ROOT
ATOM      1  O   UNL     1      10.799   5.694  -0.668  0.00  0.00    -0.252 OA
ATOM      2  N   UNL     1      10.425   5.768   1.650  0.00  0.00    -0.278 N 
ATOM      3  N   UNL     1      10.240   6.833   4.247  0.00  0.00    -0.295 NA
ATOM      4  N   UNL     1      11.586   4.036   0.815  0.00  0.00    -0.278 N 
ATOM      8  C   UNL     1      10.641   4.895   2.785  0.00  0.00    +0.109 C 
ATOM      9  C   UNL     1      11.145   5.696   3.985  0.00  0.00    +0.109 C 
ATOM     10  C   UNL     1      11.620   3.848   2.255  0.00  0.00    +0.133 C 
ATOM     11  C   UNL     1       9.673   6.992   1.832  0.00  0.00    +0.125 C 
ATOM     12  C   UNL     1      10.170   7.732   3.076  0.00  0.00    +0.104 C 
ATOM     13  C   UNL     1      10.917   5.224   0.456  0.00  0.00    +0.306 C 
ENDROOT
BRANCH   3  14
ATOM     14  C   UNL     1      10.679   7.572   5.430  0.00  0.00    +0.122 C 
BRANCH  14  16
ATOM      5  N   UNL     1       9.961   5.510   8.364  0.00  0.00    -0.274 N 
ATOM      7  N   UNL     1      11.295   5.557   8.516  0.00  0.00    -0.180 NA
ATOM     16  C   UNL     1      10.620   6.725   6.673  0.00  0.00    +0.004 A 
ATOM     18  C   UNL     1       9.506   6.193   7.275  0.00  0.00    +0.112 A 
ATOM     19  C   UNL     1      11.692   6.301   7.481  0.00  0.00    +0.139 A 
ATOM     22  C   UNL     1       9.156   4.778   9.313  0.00  0.00    +0.172 C 
ENDBRANCH  14  16
ENDBRANCH   3  14
BRANCH   4  15
ATOM     15  C   UNL     1      12.301   3.162  -0.089  0.00  0.00    +0.164 C 
BRANCH  15  17
ATOM      6  N   UNL     1      14.574   3.663   0.618  0.00  0.00    -0.258 NA
ATOM     17  C   UNL     1      13.681   3.680  -0.397  0.00  0.00    +0.059 A 
ATOM     20  C   UNL     1      13.965   4.139  -1.673  0.00  0.00    +0.025 A 
ATOM     21  C   UNL     1      15.248   4.610  -1.924  0.00  0.00    +0.003 A 
ATOM     23  C   UNL     1      15.812   4.128   0.336  0.00  0.00    +0.111 A 
ATOM     24  C   UNL     1      16.196   4.608  -0.906  0.00  0.00    +0.020 A 
ENDBRANCH  15  17
ENDBRANCH   4  15
TORSDOF 4
ENDMDL
MODEL 9
REMARK VINA RESULT:      -5.5      4.623      8.197
REMARK  Name = 75537079
REMARK  5 active torsions:
REMARK  status: ('A' for Active; 'I' for Inactive)
REMARK    1  A    between atoms: N_3  and  C_14
REMARK    2  A    between atoms: N_4  and  C_15
REMARK    3  A    between atoms: N_5  and  C_22
REMARK    4  A    between atoms: C_14  and  C_16
REMARK    5  A    between atoms: C_15  and  C_17
REMARK                            x       y       z     vdW  Elec       q    Type
REMARK                         _______ _______ _______ _____ _____    ______ ____
ROOT
ATOM      1  O   UNL     1      13.623   7.294  16.862  0.00  0.00    -0.252 OA
ATOM      2  N   UNL     1      13.872   9.620  17.076  0.00  0.00    -0.278 N 
ATOM      3  N   UNL     1      14.666  12.244  16.448  0.00  0.00    -0.295 NA
ATOM      4  N   UNL     1      14.209   8.341  18.892  0.00  0.00    -0.278 N 
ATOM      8  C   UNL     1      14.086  10.566  18.152  0.00  0.00    +0.109 C 
ATOM      9  C   UNL     1      15.089  11.638  17.727  0.00  0.00    +0.109 C 
ATOM     10  C   UNL     1      14.539   9.690  19.319  0.00  0.00    +0.133 C 
ATOM     11  C   UNL     1      13.597  10.113  15.743  0.00  0.00    +0.125 C 
ATOM     12  C   UNL     1      14.586  11.224  15.382  0.00  0.00    +0.104 C 
ATOM     13  C   UNL     1      13.866   8.292  17.526  0.00  0.00    +0.306 C 
ENDROOT
BRANCH   3  14
ATOM     14  C   UNL     1      15.587  13.313  16.062  0.00  0.00    +0.122 C 
BRANCH  14  16
ATOM      5  N   UNL     1      18.549  11.915  14.432  0.00  0.00    -0.274 N 
ATOM      7  N   UNL     1      17.913  12.306  13.315  0.00  0.00    -0.180 NA
ATOM     16  C   UNL     1      16.701  12.803  15.186  0.00  0.00    +0.004 A 
ATOM     18  C   UNL     1      17.865  12.189  15.580  0.00  0.00    +0.112 A 
ATOM     19  C   UNL     1      16.785  12.847  13.782  0.00  0.00    +0.139 A 
ATOM     22  C   UNL     1      19.836  11.270  14.336  0.00  0.00    +0.172 C 
ENDBRANCH  14  16
ENDBRANCH   3  14
BRANCH   4  15
ATOM     15  C   UNL     1      14.379   7.200  19.763  0.00  0.00    +0.164 C 
BRANCH  15  17
ATOM      6  N   UNL     1      16.427   7.268  21.075  0.00  0.00    -0.258 NA
ATOM     17  C   UNL     1      15.830   6.839  19.940  0.00  0.00    +0.059 A 
ATOM     20  C   UNL     1      16.472   6.103  18.956  0.00  0.00    +0.025 A 
ATOM     21  C   UNL     1      17.811   5.786  19.150  0.00  0.00    +0.003 A 
ATOM     23  C   UNL     1      17.729   6.940  21.229  0.00  0.00    +0.111 A 
ATOM     24  C   UNL     1      18.460   6.210  20.306  0.00  0.00    +0.020 A 
ENDBRANCH  15  17
ENDBRANCH   4  15
TORSDOF 4
ENDMDL
MODEL 10
REMARK VINA RESULT:      -5.4     28.619     30.001
REMARK  Name = 75537079
REMARK  5 active torsions:
REMARK  status: ('A' for Active; 'I' for Inactive)
REMARK    1  A    between atoms: N_3  and  C_14
REMARK    2  A    between atoms: N_4  and  C_15
REMARK    3  A    between atoms: N_5  and  C_22
REMARK    4  A    between atoms: C_14  and  C_16
REMARK    5  A    between atoms: C_15  and  C_17
REMARK                            x       y       z     vdW  Elec       q    Type
REMARK                         _______ _______ _______ _____ _____    ______ ____
ROOT
ATOM      1  O   UNL     1      -4.566 -13.161  17.499  0.00  0.00    -0.252 OA
ATOM      2  N   UNL     1      -4.520 -12.336  15.300  0.00  0.00    -0.278 N 
ATOM      3  N   UNL     1      -3.539 -11.791  12.721  0.00  0.00    -0.295 NA
ATOM      4  N   UNL     1      -5.307 -10.997  16.922  0.00  0.00    -0.278 N 
ATOM      8  C   UNL     1      -4.995 -11.160  14.601  0.00  0.00    +0.109 C 
ATOM      9  C   UNL     1      -3.947 -10.676  13.599  0.00  0.00    +0.109 C 
ATOM     10  C   UNL     1      -5.310 -10.174  15.725  0.00  0.00    +0.133 C 
ATOM     11  C   UNL     1      -3.958 -13.433  14.540  0.00  0.00    +0.125 C 
ATOM     12  C   UNL     1      -2.961 -12.899  13.509  0.00  0.00    +0.104 C 
ATOM     13  C   UNL     1      -4.775 -12.279  16.677  0.00  0.00    +0.306 C 
ENDROOT
BRANCH   3  14
ATOM     14  C   UNL     1      -2.580 -11.326  11.719  0.00  0.00    +0.122 C 
BRANCH  14  16
ATOM      5  N   UNL     1      -4.441 -10.057   8.836  0.00  0.00    -0.274 N 
ATOM      7  N   UNL     1      -3.922  -8.881   9.230  0.00  0.00    -0.180 NA
ATOM     16  C   UNL     1      -3.259 -10.589  10.595  0.00  0.00    +0.004 A 
ATOM     18  C   UNL     1      -4.075 -11.111   9.620  0.00  0.00    +0.112 A 
ATOM     19  C   UNL     1      -3.201  -9.213  10.304  0.00  0.00    +0.139 A 
ATOM     22  C   UNL     1      -5.299 -10.109   7.677  0.00  0.00    +0.172 C 
ENDBRANCH  14  16
ENDBRANCH   3  14
BRANCH   4  15
ATOM     15  C   UNL     1      -5.673 -10.467  18.217  0.00  0.00    +0.164 C 
BRANCH  15  17
ATOM      6  N   UNL     1      -8.011  -9.893  17.866  0.00  0.00    -0.258 NA
ATOM     17  C   UNL     1      -7.132 -10.685  18.521  0.00  0.00    +0.059 A 
ATOM     20  C   UNL     1      -7.498 -11.661  19.434  0.00  0.00    +0.025 A 
ATOM     21  C   UNL     1      -8.852 -11.837  19.691  0.00  0.00    +0.003 A 
ATOM     23  C   UNL     1      -9.319 -10.093  18.142  0.00  0.00    +0.111 A 
ATOM     24  C   UNL     1      -9.788 -11.041  19.037  0.00  0.00    +0.020 A 
ENDBRANCH  15  17
ENDBRANCH   4  15
TORSDOF 4
ENDMDL
