REMARK  Name = 56775426
REMARK  9 active torsions:
REMARK  status: ('A' for Active; 'I' for Inactive)
REMARK    1  A    between atoms: N_4  and  C_8
REMARK    2  A    between atoms: N_4  and  C_9
REMARK    3  A    between atoms: N_7  and  C_22
REMARK    4  A    between atoms: N_7  and  C_23
REMARK    5  A    between atoms: N_7  and  C_24
REMARK    6  A    between atoms: C_8  and  C_12
REMARK    7  A    between atoms: C_12  and  C_17
REMARK    8  A    between atoms: C_18  and  C_21
REMARK    9  A    between atoms: C_20  and  C_22
REMARK                            x       y       z     vdW  Elec       q    Type
REMARK                         _______ _______ _______ _____ _____    ______ ____
ROOT
ATOM      1  O   UNL     1       1.018  -1.362   2.338  0.00  0.00    -0.376 OA
ATOM      8  C   UNL     1       0.010  -1.315   0.457  0.00  0.00    +0.072 C 
ATOM     10  C   UNL     1       0.920  -2.272   1.219  0.00  0.00    +0.184 C 
ATOM     11  C   UNL     1       0.238  -0.370   1.631  0.00  0.00    +0.184 C 
ENDROOT
BRANCH   8   4
ATOM      4  N   UNL     1      -1.365  -1.821   0.518  0.00  0.00    -0.304 NA
ATOM     25  H   UNL     1      -1.733  -1.963   1.459  0.00  0.00    +0.123 HD
BRANCH   4   9
ATOM      3  O   UNL     1      -5.663   2.575   0.569  0.00  0.00    -0.276 OA
ATOM      5  N   UNL     1      -4.587   0.756  -0.396  0.00  0.00    -0.302 N 
ATOM      9  C   UNL     1      -2.240  -0.933  -0.241  0.00  0.00    +0.057 C 
ATOM     13  C   UNL     1      -2.277   0.455   0.412  0.00  0.00    +0.037 C 
ATOM     14  C   UNL     1      -3.653  -1.526  -0.320  0.00  0.00    +0.037 C 
ATOM     15  C   UNL     1      -3.261   1.372  -0.312  0.00  0.00    +0.109 C 
ATOM     16  C   UNL     1      -4.611  -0.568  -1.029  0.00  0.00    +0.109 C 
ATOM     18  C   UNL     1      -5.704   1.447   0.072  0.00  0.00    +0.212 C 
ATOM     21  C   UNL     1      -7.032   0.743  -0.047  0.00  0.00    +0.109 C 
ENDBRANCH   4   9
ENDBRANCH   8   4
BRANCH   8  12
ATOM     12  C   UNL     1       0.409  -0.876  -0.919  0.00  0.00    +0.085 C 
BRANCH  12  17
ATOM      2  O   UNL     1       3.999  -1.024  -1.290  0.00  0.00    -0.358 OA
ATOM      6  N   UNL     1       2.735  -1.599  -1.319  0.00  0.00    -0.083 NA
ATOM     17  C   UNL     1       1.898  -0.611  -0.988  0.00  0.00    +0.086 A 
ATOM     19  C   UNL     1       2.572   0.598  -0.742  0.00  0.00    +0.072 A 
ATOM     20  C   UNL     1       3.889   0.284  -0.946  0.00  0.00    +0.151 A 
BRANCH  20  22
ATOM     22  C   UNL     1       5.140   1.049  -0.868  0.00  0.00    +0.161 C 
BRANCH  22   7
ATOM      7  N   UNL     1       5.376   1.642   0.460  0.00  0.00    -0.301 NA
ATOM     23  C   UNL     1       6.333   2.738   0.355  0.00  0.00    +0.105 C 
ATOM     24  C   UNL     1       5.854   0.622   1.386  0.00  0.00    +0.105 C 
ENDBRANCH  22   7
ENDBRANCH  20  22
ENDBRANCH  12  17
ENDBRANCH   8  12
TORSDOF 6
