REMARK  Name = 26744096
REMARK  6 active torsions:
REMARK  status: ('A' for Active; 'I' for Inactive)
REMARK    1  A    between atoms: O_1  and  C_9
REMARK    2  A    between atoms: N_3  and  C_11
REMARK    3  A    between atoms: C_7  and  C_12
REMARK    4  A    between atoms: C_11  and  C_13
REMARK    5  A    between atoms: C_14  and  C_17
REMARK    6  A    between atoms: C_17  and  C_19
REMARK                            x       y       z     vdW  Elec       q    Type
REMARK                         _______ _______ _______ _____ _____    ______ ____
ROOT
ATOM      3  N   UNL     1       2.658   0.534   0.606  0.00  0.00    -0.285 NA
ATOM      7  C   UNL     1       2.686  -0.347  -0.578  0.00  0.00    +0.149 C 
ATOM      8  C   UNL     1       3.640  -1.493  -0.194  0.00  0.00    +0.061 C 
ATOM      9  C   UNL     1       4.134  -1.143   1.204  0.00  0.00    +0.130 C 
ATOM     10  C   UNL     1       3.942   0.359   1.283  0.00  0.00    +0.116 C 
ENDROOT
BRANCH   7  12
ATOM      2  O   UNL     1       0.901  -0.555  -2.235  0.00  0.00    -0.336 OA
ATOM      4  N   UNL     1       0.433  -1.508  -0.263  0.00  0.00    -0.194 NA
ATOM      5  N   UNL     1      -0.383  -1.102  -2.361  0.00  0.00    -0.061 NA
ATOM     12  C   UNL     1       1.308  -0.840  -0.971  0.00  0.00    +0.245 A 
ATOM     14  C   UNL     1      -0.587  -1.646  -1.158  0.00  0.00    +0.176 A 
BRANCH  14  17
ATOM     17  C   UNL     1      -1.833  -2.345  -0.823  0.00  0.00    +0.114 C 
BRANCH  17  19
ATOM     19  C   UNL     1      -2.812  -1.537   0.024  0.00  0.00    -0.040 A 
ATOM     21  C   UNL     1      -2.620  -1.433   1.401  0.00  0.00    +0.004 A 
ATOM     22  C   UNL     1      -3.898  -0.903  -0.580  0.00  0.00    +0.004 A 
ATOM     23  C   UNL     1      -3.515  -0.694   2.175  0.00  0.00    +0.000 A 
ATOM     24  C   UNL     1      -4.793  -0.165   0.194  0.00  0.00    +0.000 A 
ATOM     25  C   UNL     1      -4.601  -0.060   1.572  0.00  0.00    +0.000 A 
ENDBRANCH  17  19
ENDBRANCH  14  17
ENDBRANCH   7  12
BRANCH   9   1
ATOM      1  O   UNL     1       5.491  -1.508   1.363  0.00  0.00    -0.390 OA
ATOM     26  H   UNL     1       5.553  -2.469   1.227  0.00  0.00    +0.210 HD
ENDBRANCH   9   1
BRANCH   3  11
ATOM     11  C   UNL     1       2.397   1.930   0.278  0.00  0.00    +0.122 C 
BRANCH  11  13
ATOM      6  N   UNL     1      -1.337   2.122   0.869  0.00  0.00    -0.263 NA
ATOM     13  C   UNL     1       0.932   2.185   0.039  0.00  0.00    -0.015 A 
ATOM     15  C   UNL     1       0.482   2.695  -1.174  0.00  0.00    +0.008 A 
ATOM     16  C   UNL     1      -0.009   1.918   1.019  0.00  0.00    +0.115 A 
ATOM     18  C   UNL     1      -0.877   2.918  -1.366  0.00  0.00    +0.020 A 
ATOM     20  C   UNL     1      -1.738   2.618  -0.323  0.00  0.00    +0.111 A 
ENDBRANCH  11  13
ENDBRANCH   3  11
TORSDOF 6
