REMARK  Name = 26742472
REMARK  13 active torsions:
REMARK  status: ('A' for Active; 'I' for Inactive)
REMARK    1  A    between atoms: N_3  and  C_14
REMARK    2  A    between atoms: N_6  and  C_31
REMARK    3  A    between atoms: N_6  and  C_32
REMARK    4  A    between atoms: N_6  and  C_33
REMARK    5  A    between atoms: C_8  and  C_15
REMARK    6  A    between atoms: C_9  and  C_14
REMARK    7  A    between atoms: C_17  and  C_20
REMARK    8  A    between atoms: C_18  and  C_21
REMARK    9  A    between atoms: C_19  and  C_24
REMARK   10  A    between atoms: C_20  and  C_22
REMARK   11  A    between atoms: C_20  and  C_23
REMARK   12  A    between atoms: C_22  and  C_25
REMARK   13  A    between atoms: C_23  and  C_26
REMARK                            x       y       z     vdW  Elec       q    Type
REMARK                         _______ _______ _______ _____ _____    ______ ____
ROOT
ATOM      2  N   UNL     1      -2.165  -1.554   2.143  0.00  0.00    -0.297 NA
ATOM      7  C   UNL     1      -1.771  -2.623  -0.199  0.00  0.00    +0.002 C 
ATOM      8  C   UNL     1      -0.421  -2.179   0.430  0.00  0.00    +0.055 C 
ATOM      9  C   UNL     1      -3.077  -0.939   1.144  0.00  0.00    +0.074 C 
ATOM     10  C   UNL     1      -2.719  -1.408  -0.283  0.00  0.00    +0.024 C 
ATOM     11  C   UNL     1      -2.410  -3.630   0.782  0.00  0.00    +0.019 C 
ATOM     12  C   UNL     1      -0.753  -1.376   1.720  0.00  0.00    +0.094 C 
ATOM     13  C   UNL     1      -2.454  -3.008   2.188  0.00  0.00    +0.085 C 
ENDROOT
BRANCH   8  15
ATOM      4  N   UNL     1       0.214  -1.242  -1.738  0.00  0.00    -0.237 NA
ATOM      5  N   UNL     1       2.341  -0.168  -2.099  0.00  0.00    -0.232 NA
ATOM     15  C   UNL     1       0.582  -1.456  -0.458  0.00  0.00    +0.050 A 
ATOM     16  C   UNL     1       1.795  -1.062   0.068  0.00  0.00    +0.052 A 
ATOM     18  C   UNL     1       2.644  -0.415  -0.807  0.00  0.00    +0.075 A 
ATOM     19  C   UNL     1       1.129  -0.602  -2.492  0.00  0.00    +0.127 A 
ATOM     24  C   UNL     1       0.759  -0.348  -3.914  0.00  0.00    +0.088 C 
BRANCH  18  21
ATOM     21  C   UNL     1       3.943   0.047  -0.382  0.00  0.00    +0.001 A 
ATOM     27  C   UNL     1       4.049   0.975   0.654  0.00  0.00    +0.012 A 
ATOM     28  C   UNL     1       5.094  -0.436  -1.005  0.00  0.00    +0.012 A 
ATOM     29  C   UNL     1       5.304   1.421   1.066  0.00  0.00    +0.024 A 
ATOM     30  C   UNL     1       6.349   0.010  -0.594  0.00  0.00    +0.024 A 
ATOM     31  C   UNL     1       6.455   0.939   0.442  0.00  0.00    +0.029 A 
BRANCH  31   6
ATOM      6  N   UNL     1       7.725   1.390   0.857  0.00  0.00    -0.336 N 
ATOM     32  C   UNL     1       7.845   2.355   1.932  0.00  0.00    +0.129 C 
ATOM     33  C   UNL     1       8.927   0.889   0.220  0.00  0.00    +0.129 C 
ENDBRANCH  31   6
ENDBRANCH  18  21
ENDBRANCH   8  15
BRANCH   9  14
ATOM     14  C   UNL     1      -3.114   0.587   1.250  0.00  0.00    +0.123 C 
BRANCH  14   3
ATOM      1  O   UNL     1      -5.884   1.096   1.822  0.00  0.00    -0.276 OA
ATOM      3  N   UNL     1      -4.086   1.138   0.356  0.00  0.00    -0.314 N 
ATOM     17  C   UNL     1      -5.416   1.354   0.715  0.00  0.00    +0.216 C 
ATOM     34  H   UNL     1      -3.776   1.375  -0.581  0.00  0.00    +0.149 HD
BRANCH  17  20
ATOM     20  C   UNL     1      -6.256   1.937  -0.427  0.00  0.00    +0.074 C 
BRANCH  20  22
ATOM     22  C   UNL     1      -6.308   1.001  -1.647  0.00  0.00    +0.009 C 
ATOM     25  C   UNL     1      -6.869  -0.374  -1.302  0.00  0.00    +0.004 C 
ENDBRANCH  20  22
BRANCH  20  23
ATOM     23  C   UNL     1      -5.743   3.343  -0.799  0.00  0.00    +0.009 C 
ATOM     26  C   UNL     1      -5.710   4.336   0.356  0.00  0.00    +0.004 C 
ENDBRANCH  20  23
ENDBRANCH  17  20
ENDBRANCH  14   3
ENDBRANCH   9  14
TORSDOF 8
