MODEL 1
REMARK VINA RESULT:      -7.7      0.000      0.000
REMARK  Name = 45783832
REMARK  4 active torsions:
REMARK  status: ('A' for Active; 'I' for Inactive)
REMARK    1  A    between atoms: N_3  and  C_9
REMARK    2  A    between atoms: C_10  and  C_18
REMARK    3  A    between atoms: C_19  and  C_25
REMARK    4  A    between atoms: C_20  and  C_26
REMARK                            x       y       z     vdW  Elec       q    Type
REMARK                         _______ _______ _______ _____ _____    ______ ____
ROOT
ATOM      1  O   UNL     1      15.413   6.335  18.976  0.00  0.00    -0.336 OA
ATOM      5  N   UNL     1      15.715   7.558  20.827  0.00  0.00    -0.190 NA
ATOM      7  N   UNL     1      16.777   6.246  19.283  0.00  0.00    -0.056 NA
ATOM     18  C   UNL     1      14.862   7.125  19.934  0.00  0.00    +0.245 A 
ATOM     20  C   UNL     1      16.876   6.993  20.387  0.00  0.00    +0.202 A 
ENDROOT
BRANCH  20  26
ATOM      6  N   UNL     1      21.240   5.460  21.699  0.00  0.00    -0.315 N 
ATOM      8  N   UNL     1      20.546   7.589  22.404  0.00  0.00    -0.240 NA
ATOM     21  C   UNL     1      22.487   3.589  21.010  0.00  0.00    +0.020 C 
ATOM     22  C   UNL     1      23.089   4.134  22.293  0.00  0.00    +0.020 C 
ATOM     23  C   UNL     1      21.080   4.183  21.006  0.00  0.00    +0.106 C 
ATOM     24  C   UNL     1      22.540   5.557  22.357  0.00  0.00    +0.106 C 
ATOM     26  C   UNL     1      18.120   7.195  21.072  0.00  0.00    +0.027 A 
ATOM     27  C   UNL     1      20.281   6.450  21.727  0.00  0.00    +0.122 A 
ATOM     28  C   UNL     1      19.096   6.206  21.051  0.00  0.00    +0.055 A 
ATOM     29  C   UNL     1      18.354   8.382  21.758  0.00  0.00    +0.031 A 
ATOM     30  C   UNL     1      19.573   8.528  22.402  0.00  0.00    +0.113 A 
ENDBRANCH  20  26
BRANCH  18  10
ATOM      3  N   UNL     1      13.025   8.803  20.003  0.00  0.00    -0.288 NA
ATOM     10  C   UNL     1      13.373   7.379  19.825  0.00  0.00    +0.146 C 
ATOM     11  C   UNL     1      11.811   9.032  19.222  0.00  0.00    +0.085 C 
ATOM     12  C   UNL     1      12.806   7.008  18.442  0.00  0.00    +0.030 C 
ATOM     15  C   UNL     1      12.107   8.267  17.948  0.00  0.00    +0.017 C 
BRANCH   3   9
ATOM      2  O   UNL     1      10.108  12.264  24.165  0.00  0.00    -0.276 OA
ATOM      4  N   UNL     1      11.949  11.068  23.405  0.00  0.00    -0.302 N 
ATOM      9  C   UNL     1      12.859   9.184  21.403  0.00  0.00    +0.060 C 
ATOM     13  C   UNL     1      13.623  10.483  21.689  0.00  0.00    +0.038 C 
ATOM     14  C   UNL     1      11.370   9.355  21.729  0.00  0.00    +0.038 C 
ATOM     16  C   UNL     1      13.387  10.954  23.125  0.00  0.00    +0.109 C 
ATOM     17  C   UNL     1      11.178   9.847  23.163  0.00  0.00    +0.109 C 
ATOM     19  C   UNL     1      11.313  12.204  23.903  0.00  0.00    +0.212 C 
ATOM     25  C   UNL     1      12.175  13.421  24.123  0.00  0.00    +0.109 C 
ENDBRANCH   3   9
ENDBRANCH  18  10
TORSDOF 3
ENDMDL
MODEL 2
REMARK VINA RESULT:      -7.5     26.932     29.882
REMARK  Name = 45783832
REMARK  4 active torsions:
REMARK  status: ('A' for Active; 'I' for Inactive)
REMARK    1  A    between atoms: N_3  and  C_9
REMARK    2  A    between atoms: C_10  and  C_18
REMARK    3  A    between atoms: C_19  and  C_25
REMARK    4  A    between atoms: C_20  and  C_26
REMARK                            x       y       z     vdW  Elec       q    Type
REMARK                         _______ _______ _______ _____ _____    ______ ____
ROOT
ATOM      1  O   UNL     1      -5.486 -11.479  19.104  0.00  0.00    -0.336 OA
ATOM      5  N   UNL     1      -5.882 -10.687  17.047  0.00  0.00    -0.190 NA
ATOM      7  N   UNL     1      -4.253 -11.491  18.438  0.00  0.00    -0.056 NA
ATOM     18  C   UNL     1      -6.390 -10.993  18.214  0.00  0.00    +0.245 A 
ATOM     20  C   UNL     1      -4.570 -11.010  17.232  0.00  0.00    +0.202 A 
ENDROOT
BRANCH  20  26
ATOM      6  N   UNL     1      -3.456 -10.328  12.605  0.00  0.00    -0.315 N 
ATOM      8  N   UNL     1      -1.706 -10.511  14.159  0.00  0.00    -0.240 NA
ATOM     21  C   UNL     1      -4.808  -9.784  10.759  0.00  0.00    +0.020 C 
ATOM     22  C   UNL     1      -3.472 -10.299  10.253  0.00  0.00    +0.020 C 
ATOM     23  C   UNL     1      -4.859 -10.300  12.195  0.00  0.00    +0.106 C 
ATOM     24  C   UNL     1      -2.558 -10.145  11.467  0.00  0.00    +0.106 C 
ATOM     26  C   UNL     1      -3.598 -10.842  16.190  0.00  0.00    +0.027 A 
ATOM     27  C   UNL     1      -3.033 -10.503  13.905  0.00  0.00    +0.122 A 
ATOM     28  C   UNL     1      -4.010 -10.662  14.875  0.00  0.00    +0.055 A 
ATOM     29  C   UNL     1      -2.241 -10.856  16.493  0.00  0.00    +0.031 A 
ATOM     30  C   UNL     1      -1.343 -10.688  15.450  0.00  0.00    +0.113 A 
ENDBRANCH  20  26
BRANCH  18  10
ATOM      3  N   UNL     1      -8.801 -10.957  17.599  0.00  0.00    -0.288 NA
ATOM     10  C   UNL     1      -7.820 -10.878  18.700  0.00  0.00    +0.146 C 
ATOM     11  C   UNL     1     -10.018 -11.532  18.170  0.00  0.00    +0.085 C 
ATOM     12  C   UNL     1      -8.216 -12.017  19.658  0.00  0.00    +0.030 C 
ATOM     15  C   UNL     1      -9.463 -12.638  19.044  0.00  0.00    +0.017 C 
BRANCH   3   9
ATOM      2  O   UNL     1     -12.857  -6.642  15.943  0.00  0.00    -0.276 OA
ATOM      4  N   UNL     1     -10.861  -7.803  15.682  0.00  0.00    -0.302 N 
ATOM      9  C   UNL     1      -9.050  -9.669  16.956  0.00  0.00    +0.060 C 
ATOM     13  C   UNL     1      -9.545  -9.884  15.520  0.00  0.00    +0.038 C 
ATOM     14  C   UNL     1     -10.080  -8.868  17.764  0.00  0.00    +0.038 C 
ATOM     16  C   UNL     1      -9.903  -8.553  14.859  0.00  0.00    +0.109 C 
ATOM     17  C   UNL     1     -10.426  -7.558  17.059  0.00  0.00    +0.109 C 
ATOM     19  C   UNL     1     -12.084  -7.301  15.240  0.00  0.00    +0.212 C 
ATOM     25  C   UNL     1     -12.461  -7.598  13.811  0.00  0.00    +0.109 C 
ENDBRANCH   3   9
ENDBRANCH  18  10
TORSDOF 3
ENDMDL
MODEL 3
REMARK VINA RESULT:      -7.4     27.375     30.316
REMARK  Name = 45783832
REMARK  4 active torsions:
REMARK  status: ('A' for Active; 'I' for Inactive)
REMARK    1  A    between atoms: N_3  and  C_9
REMARK    2  A    between atoms: C_10  and  C_18
REMARK    3  A    between atoms: C_19  and  C_25
REMARK    4  A    between atoms: C_20  and  C_26
REMARK                            x       y       z     vdW  Elec       q    Type
REMARK                         _______ _______ _______ _____ _____    ______ ____
ROOT
ATOM      1  O   UNL     1      -2.604 -10.934  14.600  0.00  0.00    -0.336 OA
ATOM      5  N   UNL     1      -4.771 -10.467  14.277  0.00  0.00    -0.190 NA
ATOM      7  N   UNL     1      -3.179 -10.853  15.875  0.00  0.00    -0.056 NA
ATOM     18  C   UNL     1      -3.609 -10.693  13.718  0.00  0.00    +0.245 A 
ATOM     20  C   UNL     1      -4.458 -10.574  15.601  0.00  0.00    +0.202 A 
ENDROOT
BRANCH  20  26
ATOM      6  N   UNL     1      -8.860  -9.241  16.999  0.00  0.00    -0.315 N 
ATOM      8  N   UNL     1      -7.371 -10.054  18.623  0.00  0.00    -0.240 NA
ATOM     21  C   UNL     1     -10.768  -8.672  15.747  0.00  0.00    +0.020 C 
ATOM     22  C   UNL     1     -10.959  -8.194  17.176  0.00  0.00    +0.020 C 
ATOM     23  C   UNL     1      -9.256  -8.864  15.644  0.00  0.00    +0.106 C 
ATOM     24  C   UNL     1      -9.940  -9.022  17.957  0.00  0.00    +0.106 C 
ATOM     26  C   UNL     1      -5.445 -10.397  16.626  0.00  0.00    +0.027 A 
ATOM     27  C   UNL     1      -7.620  -9.742  17.331  0.00  0.00    +0.122 A 
ATOM     28  C   UNL     1      -6.701  -9.894  16.306  0.00  0.00    +0.055 A 
ATOM     29  C   UNL     1      -5.150 -10.729  17.944  0.00  0.00    +0.031 A 
ATOM     30  C   UNL     1      -6.140 -10.540  18.896  0.00  0.00    +0.113 A 
ENDBRANCH  20  26
BRANCH  18  10
ATOM      3  N   UNL     1      -3.902  -9.657  11.474  0.00  0.00    -0.288 NA
ATOM     10  C   UNL     1      -3.240 -10.725  12.249  0.00  0.00    +0.146 C 
ATOM     11  C   UNL     1      -3.007  -9.338  10.363  0.00  0.00    +0.085 C 
ATOM     12  C   UNL     1      -1.735 -10.507  12.009  0.00  0.00    +0.030 C 
ATOM     15  C   UNL     1      -1.652  -9.335  11.041  0.00  0.00    +0.017 C 
BRANCH   3   9
ATOM      2  O   UNL     1      -8.305  -9.082   7.221  0.00  0.00    -0.276 OA
ATOM      4  N   UNL     1      -7.574  -9.485   9.390  0.00  0.00    -0.302 N 
ATOM      9  C   UNL     1      -5.240 -10.022  11.015  0.00  0.00    +0.060 C 
ATOM     13  C   UNL     1      -6.243  -8.924  11.389  0.00  0.00    +0.038 C 
ATOM     14  C   UNL     1      -5.233 -10.248   9.498  0.00  0.00    +0.038 C 
ATOM     16  C   UNL     1      -7.633  -9.239  10.836  0.00  0.00    +0.109 C 
ATOM     17  C   UNL     1      -6.642 -10.538   8.983  0.00  0.00    +0.109 C 
ATOM     19  C   UNL     1      -8.347  -8.833   8.429  0.00  0.00    +0.212 C 
ATOM     25  C   UNL     1      -9.282  -7.759   8.927  0.00  0.00    +0.109 C 
ENDBRANCH   3   9
ENDBRANCH  18  10
TORSDOF 3
ENDMDL
MODEL 4
REMARK VINA RESULT:      -7.4      3.270     10.714
REMARK  Name = 45783832
REMARK  4 active torsions:
REMARK  status: ('A' for Active; 'I' for Inactive)
REMARK    1  A    between atoms: N_3  and  C_9
REMARK    2  A    between atoms: C_10  and  C_18
REMARK    3  A    between atoms: C_19  and  C_25
REMARK    4  A    between atoms: C_20  and  C_26
REMARK                            x       y       z     vdW  Elec       q    Type
REMARK                         _______ _______ _______ _____ _____    ______ ____
ROOT
ATOM      1  O   UNL     1      20.217   8.216  23.038  0.00  0.00    -0.336 OA
ATOM      5  N   UNL     1      19.974   6.276  21.947  0.00  0.00    -0.190 NA
ATOM      7  N   UNL     1      19.019   8.321  22.319  0.00  0.00    -0.056 NA
ATOM     18  C   UNL     1      20.714   6.983  22.763  0.00  0.00    +0.245 A 
ATOM     20  C   UNL     1      18.946   7.138  21.701  0.00  0.00    +0.202 A 
ENDROOT
BRANCH  20  26
ATOM      6  N   UNL     1      14.252   7.097  20.661  0.00  0.00    -0.315 N 
ATOM      8  N   UNL     1      15.742   6.108  19.139  0.00  0.00    -0.240 NA
ATOM     21  C   UNL     1      12.439   8.198  21.677  0.00  0.00    +0.020 C 
ATOM     22  C   UNL     1      11.904   7.084  20.795  0.00  0.00    +0.020 C 
ATOM     23  C   UNL     1      13.898   7.801  21.892  0.00  0.00    +0.106 C 
ATOM     24  C   UNL     1      13.072   6.794  19.855  0.00  0.00    +0.106 C 
ATOM     26  C   UNL     1      17.860   6.788  20.832  0.00  0.00    +0.027 A 
ATOM     27  C   UNL     1      15.541   6.761  20.305  0.00  0.00    +0.122 A 
ATOM     28  C   UNL     1      16.555   7.121  21.178  0.00  0.00    +0.055 A 
ATOM     29  C   UNL     1      18.108   6.115  19.641  0.00  0.00    +0.031 A 
ATOM     30  C   UNL     1      17.023   5.801  18.837  0.00  0.00    +0.113 A 
ENDBRANCH  20  26
BRANCH  18  10
ATOM      3  N   UNL     1      22.963   5.948  22.510  0.00  0.00    -0.288 NA
ATOM     10  C   UNL     1      22.024   6.619  23.431  0.00  0.00    +0.146 C 
ATOM     11  C   UNL     1      24.309   6.281  22.977  0.00  0.00    +0.085 C 
ATOM     12  C   UNL     1      22.793   7.851  23.944  0.00  0.00    +0.030 C 
ATOM     15  C   UNL     1      24.171   7.753  23.305  0.00  0.00    +0.017 C 
BRANCH   3   9
ATOM      2  O   UNL     1      24.641   0.307  24.295  0.00  0.00    -0.276 OA
ATOM      4  N   UNL     1      23.722   1.798  22.767  0.00  0.00    -0.302 N 
ATOM      9  C   UNL     1      22.753   4.504  22.424  0.00  0.00    +0.060 C 
ATOM     13  C   UNL     1      23.762   3.883  21.449  0.00  0.00    +0.038 C 
ATOM     14  C   UNL     1      22.889   3.868  23.814  0.00  0.00    +0.038 C 
ATOM     16  C   UNL     1      23.624   2.360  21.414  0.00  0.00    +0.109 C 
ATOM     17  C   UNL     1      22.767   2.348  23.732  0.00  0.00    +0.109 C 
ATOM     19  C   UNL     1      24.602   0.789  23.159  0.00  0.00    +0.212 C 
ATOM     25  C   UNL     1      25.556   0.278  22.109  0.00  0.00    +0.109 C 
ENDBRANCH   3   9
ENDBRANCH  18  10
TORSDOF 3
ENDMDL
MODEL 5
REMARK VINA RESULT:      -7.3     27.952     29.941
REMARK  Name = 45783832
REMARK  4 active torsions:
REMARK  status: ('A' for Active; 'I' for Inactive)
REMARK    1  A    between atoms: N_3  and  C_9
REMARK    2  A    between atoms: C_10  and  C_18
REMARK    3  A    between atoms: C_19  and  C_25
REMARK    4  A    between atoms: C_20  and  C_26
REMARK                            x       y       z     vdW  Elec       q    Type
REMARK                         _______ _______ _______ _____ _____    ______ ____
ROOT
ATOM      1  O   UNL     1      -4.084 -10.999  17.330  0.00  0.00    -0.336 OA
ATOM      5  N   UNL     1      -5.193 -10.157  15.576  0.00  0.00    -0.190 NA
ATOM      7  N   UNL     1      -3.255 -11.190  16.218  0.00  0.00    -0.056 NA
ATOM     18  C   UNL     1      -5.203 -10.386  16.865  0.00  0.00    +0.245 A 
ATOM     20  C   UNL     1      -3.978 -10.668  15.222  0.00  0.00    +0.202 A 
ENDROOT
BRANCH  20  26
ATOM      6  N   UNL     1      -4.699  -9.728  10.563  0.00  0.00    -0.315 N 
ATOM      8  N   UNL     1      -2.616 -10.590  11.218  0.00  0.00    -0.240 NA
ATOM     21  C   UNL     1      -6.449  -8.597   9.472  0.00  0.00    +0.020 C 
ATOM     22  C   UNL     1      -5.664  -9.393   8.444  0.00  0.00    +0.020 C 
ATOM     23  C   UNL     1      -6.065  -9.260  10.793  0.00  0.00    +0.106 C 
ATOM     24  C   UNL     1      -4.335  -9.656   9.150  0.00  0.00    +0.106 C 
ATOM     26  C   UNL     1      -3.516 -10.642  13.865  0.00  0.00    +0.027 A 
ATOM     27  C   UNL     1      -3.859 -10.181  11.557  0.00  0.00    +0.122 A 
ATOM     28  C   UNL     1      -4.352 -10.187  12.852  0.00  0.00    +0.055 A 
ATOM     29  C   UNL     1      -2.230 -11.072  13.557  0.00  0.00    +0.031 A 
ATOM     30  C   UNL     1      -1.832 -11.026  12.230  0.00  0.00    +0.113 A 
ENDBRANCH  20  26
BRANCH  18  10
ATOM      3  N   UNL     1      -7.628 -10.421  17.424  0.00  0.00    -0.288 NA
ATOM     10  C   UNL     1      -6.272 -10.065  17.888  0.00  0.00    +0.146 C 
ATOM     11  C   UNL     1      -8.404 -10.741  18.622  0.00  0.00    +0.085 C 
ATOM     12  C   UNL     1      -6.091 -10.846  19.203  0.00  0.00    +0.030 C 
ATOM     15  C   UNL     1      -7.416 -11.562  19.426  0.00  0.00    +0.017 C 
BRANCH   3   9
ATOM      2  O   UNL     1     -12.736  -7.330  15.951  0.00  0.00    -0.276 OA
ATOM      4  N   UNL     1     -10.625  -8.172  15.468  0.00  0.00    -0.302 N 
ATOM      9  C   UNL     1      -8.258  -9.372  16.626  0.00  0.00    +0.060 C 
ATOM     13  C   UNL     1      -8.954  -9.987  15.405  0.00  0.00    +0.038 C 
ATOM     14  C   UNL     1      -9.264  -8.591  17.481  0.00  0.00    +0.038 C 
ATOM     16  C   UNL     1      -9.701  -8.919  14.605  0.00  0.00    +0.109 C 
ATOM     17  C   UNL     1     -10.003  -7.552  16.640  0.00  0.00    +0.109 C 
ATOM     19  C   UNL     1     -11.987  -7.994  15.228  0.00  0.00    +0.212 C 
ATOM     25  C   UNL     1     -12.552  -8.667  14.003  0.00  0.00    +0.109 C 
ENDBRANCH   3   9
ENDBRANCH  18  10
TORSDOF 3
ENDMDL
MODEL 6
REMARK VINA RESULT:      -7.2      2.893      4.623
REMARK  Name = 45783832
REMARK  4 active torsions:
REMARK  status: ('A' for Active; 'I' for Inactive)
REMARK    1  A    between atoms: N_3  and  C_9
REMARK    2  A    between atoms: C_10  and  C_18
REMARK    3  A    between atoms: C_19  and  C_25
REMARK    4  A    between atoms: C_20  and  C_26
REMARK                            x       y       z     vdW  Elec       q    Type
REMARK                         _______ _______ _______ _____ _____    ______ ____
ROOT
ATOM      1  O   UNL     1      14.498   6.689  19.565  0.00  0.00    -0.336 OA
ATOM      5  N   UNL     1      15.675   7.972  20.974  0.00  0.00    -0.190 NA
ATOM      7  N   UNL     1      15.826   6.253  19.471  0.00  0.00    -0.056 NA
ATOM     18  C   UNL     1      14.498   7.702  20.470  0.00  0.00    +0.245 A 
ATOM     20  C   UNL     1      16.459   7.058  20.331  0.00  0.00    +0.202 A 
ENDROOT
BRANCH  20  26
ATOM      6  N   UNL     1      20.531   8.906  22.095  0.00  0.00    -0.315 N 
ATOM      8  N   UNL     1      20.622   6.812  21.037  0.00  0.00    -0.240 NA
ATOM     21  C   UNL     1      20.905  10.771  23.478  0.00  0.00    +0.020 C 
ATOM     22  C   UNL     1      22.220  10.366  22.836  0.00  0.00    +0.020 C 
ATOM     23  C   UNL     1      19.861  10.111  22.580  0.00  0.00    +0.106 C 
ATOM     24  C   UNL     1      21.961   8.927  22.393  0.00  0.00    +0.106 C 
ATOM     26  C   UNL     1      17.871   6.974  20.570  0.00  0.00    +0.027 A 
ATOM     27  C   UNL     1      19.892   7.876  21.438  0.00  0.00    +0.122 A 
ATOM     28  C   UNL     1      18.528   8.005  21.232  0.00  0.00    +0.055 A 
ATOM     29  C   UNL     1      18.586   5.862  20.140  0.00  0.00    +0.031 A 
ATOM     30  C   UNL     1      19.948   5.830  20.396  0.00  0.00    +0.113 A 
ENDBRANCH  20  26
BRANCH  18  10
ATOM      3  N   UNL     1      12.234   8.272  19.607  0.00  0.00    -0.288 NA
ATOM     10  C   UNL     1      13.160   8.353  20.754  0.00  0.00    +0.146 C 
ATOM     11  C   UNL     1      10.884   8.250  20.167  0.00  0.00    +0.085 C 
ATOM     12  C   UNL     1      12.405   7.678  21.914  0.00  0.00    +0.030 C 
ATOM     15  C   UNL     1      11.045   7.306  21.340  0.00  0.00    +0.017 C 
BRANCH   3   9
ATOM      2  O   UNL     1      15.692  10.855  15.227  0.00  0.00    -0.276 OA
ATOM      4  N   UNL     1      14.130  10.951  16.944  0.00  0.00    -0.302 N 
ATOM      9  C   UNL     1      12.413   9.357  18.645  0.00  0.00    +0.060 C 
ATOM     13  C   UNL     1      13.350  10.425  19.225  0.00  0.00    +0.038 C 
ATOM     14  C   UNL     1      12.977   8.807  17.329  0.00  0.00    +0.038 C 
ATOM     16  C   UNL     1      13.628  11.525  18.200  0.00  0.00    +0.109 C 
ATOM     17  C   UNL     1      13.261   9.938  16.342  0.00  0.00    +0.109 C 
ATOM     19  C   UNL     1      15.309  11.327  16.301  0.00  0.00    +0.212 C 
ATOM     25  C   UNL     1      16.149  12.375  16.986  0.00  0.00    +0.109 C 
ENDBRANCH   3   9
ENDBRANCH  18  10
TORSDOF 3
ENDMDL
MODEL 7
REMARK VINA RESULT:      -7.2     27.159     30.961
REMARK  Name = 45783832
REMARK  4 active torsions:
REMARK  status: ('A' for Active; 'I' for Inactive)
REMARK    1  A    between atoms: N_3  and  C_9
REMARK    2  A    between atoms: C_10  and  C_18
REMARK    3  A    between atoms: C_19  and  C_25
REMARK    4  A    between atoms: C_20  and  C_26
REMARK                            x       y       z     vdW  Elec       q    Type
REMARK                         _______ _______ _______ _____ _____    ______ ____
ROOT
ATOM      1  O   UNL     1      -4.827  -9.691  16.471  0.00  0.00    -0.336 OA
ATOM      5  N   UNL     1      -5.205 -11.815  17.070  0.00  0.00    -0.190 NA
ATOM      7  N   UNL     1      -5.985  -9.673  17.258  0.00  0.00    -0.056 NA
ATOM     18  C   UNL     1      -4.433 -10.989  16.411  0.00  0.00    +0.245 A 
ATOM     20  C   UNL     1      -6.144 -10.962  17.573  0.00  0.00    +0.202 A 
ENDROOT
BRANCH  20  26
ATOM      6  N   UNL     1     -10.698 -10.642  19.079  0.00  0.00    -0.315 N 
ATOM      8  N   UNL     1      -9.344 -12.341  19.971  0.00  0.00    -0.240 NA
ATOM     21  C   UNL     1     -12.497  -9.352  18.284  0.00  0.00    +0.020 C 
ATOM     22  C   UNL     1     -12.836  -9.864  19.672  0.00  0.00    +0.020 C 
ATOM     23  C   UNL     1     -10.977  -9.489  18.225  0.00  0.00    +0.106 C 
ATOM     24  C   UNL     1     -11.871 -11.032  19.858  0.00  0.00    +0.106 C 
ATOM     26  C   UNL     1      -7.228 -11.430  18.387  0.00  0.00    +0.027 A 
ATOM     27  C   UNL     1      -9.479 -11.283  19.140  0.00  0.00    +0.122 A 
ATOM     28  C   UNL     1      -8.463 -10.794  18.335  0.00  0.00    +0.055 A 
ATOM     29  C   UNL     1      -7.049 -12.521  19.230  0.00  0.00    +0.031 A 
ATOM     30  C   UNL     1      -8.129 -12.933  19.994  0.00  0.00    +0.113 A 
ENDBRANCH  20  26
BRANCH  18  10
ATOM      3  N   UNL     1      -3.130 -10.512  14.344  0.00  0.00    -0.288 NA
ATOM     10  C   UNL     1      -3.183 -11.279  15.605  0.00  0.00    +0.146 C 
ATOM     11  C   UNL     1      -1.714 -10.308  14.045  0.00  0.00    +0.085 C 
ATOM     12  C   UNL     1      -1.892 -10.894  16.352  0.00  0.00    +0.030 C 
ATOM     15  C   UNL     1      -1.152  -9.957  15.407  0.00  0.00    +0.017 C 
BRANCH   3   9
ATOM      2  O   UNL     1      -4.375 -10.718   8.326  0.00  0.00    -0.276 OA
ATOM      4  N   UNL     1      -4.907 -11.101  10.555  0.00  0.00    -0.302 N 
ATOM      9  C   UNL     1      -3.836 -11.165  13.244  0.00  0.00    +0.060 C 
ATOM     13  C   UNL     1      -5.117 -10.390  12.908  0.00  0.00    +0.038 C 
ATOM     14  C   UNL     1      -2.925 -11.254  12.013  0.00  0.00    +0.038 C 
ATOM     16  C   UNL     1      -5.825 -11.000  11.697  0.00  0.00    +0.109 C 
ATOM     17  C   UNL     1      -3.676 -11.847  10.821  0.00  0.00    +0.109 C 
ATOM     19  C   UNL     1      -5.147 -10.588   9.281  0.00  0.00    +0.212 C 
ATOM     25  C   UNL     1      -6.436  -9.831   9.087  0.00  0.00    +0.109 C 
ENDBRANCH   3   9
ENDBRANCH  18  10
TORSDOF 3
ENDMDL
MODEL 8
REMARK VINA RESULT:      -7.1     27.041     30.122
REMARK  Name = 45783832
REMARK  4 active torsions:
REMARK  status: ('A' for Active; 'I' for Inactive)
REMARK    1  A    between atoms: N_3  and  C_9
REMARK    2  A    between atoms: C_10  and  C_18
REMARK    3  A    between atoms: C_19  and  C_25
REMARK    4  A    between atoms: C_20  and  C_26
REMARK                            x       y       z     vdW  Elec       q    Type
REMARK                         _______ _______ _______ _____ _____    ______ ____
ROOT
ATOM      1  O   UNL     1      -7.650 -10.370  11.073  0.00  0.00    -0.336 OA
ATOM      5  N   UNL     1      -6.409  -9.335  12.624  0.00  0.00    -0.190 NA
ATOM      7  N   UNL     1      -8.336 -10.521  12.285  0.00  0.00    -0.056 NA
ATOM     18  C   UNL     1      -6.528  -9.661  11.362  0.00  0.00    +0.245 A 
ATOM     20  C   UNL     1      -7.541  -9.884  13.151  0.00  0.00    +0.202 A 
ENDROOT
BRANCH  20  26
ATOM      6  N   UNL     1      -6.429 -10.669  17.762  0.00  0.00    -0.315 N 
ATOM      8  N   UNL     1      -8.448  -9.577  17.271  0.00  0.00    -0.240 NA
ATOM     21  C   UNL     1      -4.436 -11.422  18.759  0.00  0.00    +0.020 C 
ATOM     22  C   UNL     1      -5.567 -11.554  19.764  0.00  0.00    +0.020 C 
ATOM     23  C   UNL     1      -5.167 -11.325  17.422  0.00  0.00    +0.106 C 
ATOM     24  C   UNL     1      -6.637 -10.618  19.207  0.00  0.00    +0.106 C 
ATOM     26  C   UNL     1      -7.850  -9.780  14.548  0.00  0.00    +0.027 A 
ATOM     27  C   UNL     1      -7.311 -10.161  16.833  0.00  0.00    +0.122 A 
ATOM     28  C   UNL     1      -6.968 -10.287  15.496  0.00  0.00    +0.055 A 
ATOM     29  C   UNL     1      -9.031  -9.172  14.959  0.00  0.00    +0.031 A 
ATOM     30  C   UNL     1      -9.281  -9.096  16.320  0.00  0.00    +0.113 A 
ENDBRANCH  20  26
BRANCH  18  10
ATOM      3  N   UNL     1      -5.012 -10.580   9.615  0.00  0.00    -0.288 NA
ATOM     10  C   UNL     1      -5.603  -9.360  10.201  0.00  0.00    +0.146 C 
ATOM     11  C   UNL     1      -4.768 -10.284   8.204  0.00  0.00    +0.085 C 
ATOM     12  C   UNL     1      -6.325  -8.673   9.027  0.00  0.00    +0.030 C 
ATOM     15  C   UNL     1      -6.033  -9.547   7.815  0.00  0.00    +0.017 C 
BRANCH   3   9
ATOM      2  O   UNL     1      -2.339 -12.422  14.838  0.00  0.00    -0.276 OA
ATOM      4  N   UNL     1      -2.296 -11.415  12.744  0.00  0.00    -0.302 N 
ATOM      9  C   UNL     1      -3.799 -11.019  10.302  0.00  0.00    +0.060 C 
ATOM     13  C   UNL     1      -3.165  -9.842  11.055  0.00  0.00    +0.038 C 
ATOM     14  C   UNL     1      -4.126 -12.161  11.272  0.00  0.00    +0.038 C 
ATOM     16  C   UNL     1      -1.947 -10.297  11.859  0.00  0.00    +0.109 C 
ATOM     17  C   UNL     1      -2.889 -12.571  12.069  0.00  0.00    +0.109 C 
ATOM     19  C   UNL     1      -2.069 -11.455  14.120  0.00  0.00    +0.212 C 
ATOM     25  C   UNL     1      -1.457 -10.224  14.741  0.00  0.00    +0.109 C 
ENDBRANCH   3   9
ENDBRANCH  18  10
TORSDOF 3
ENDMDL
MODEL 9
REMARK VINA RESULT:      -7.1      3.158      6.314
REMARK  Name = 45783832
REMARK  4 active torsions:
REMARK  status: ('A' for Active; 'I' for Inactive)
REMARK    1  A    between atoms: N_3  and  C_9
REMARK    2  A    between atoms: C_10  and  C_18
REMARK    3  A    between atoms: C_19  and  C_25
REMARK    4  A    between atoms: C_20  and  C_26
REMARK                            x       y       z     vdW  Elec       q    Type
REMARK                         _______ _______ _______ _____ _____    ______ ____
ROOT
ATOM      1  O   UNL     1      10.447  10.290  22.775  0.00  0.00    -0.336 OA
ATOM      5  N   UNL     1      12.093  10.923  21.395  0.00  0.00    -0.190 NA
ATOM      7  N   UNL     1      10.801   9.150  22.042  0.00  0.00    -0.056 NA
ATOM     18  C   UNL     1      11.255  11.288  22.331  0.00  0.00    +0.245 A 
ATOM     20  C   UNL     1      11.778   9.604  21.250  0.00  0.00    +0.202 A 
ENDROOT
BRANCH  20  26
ATOM      6  N   UNL     1      15.624   7.048  19.914  0.00  0.00    -0.315 N 
ATOM      8  N   UNL     1      13.779   7.129  18.464  0.00  0.00    -0.240 NA
ATOM     21  C   UNL     1      17.545   6.414  21.114  0.00  0.00    +0.020 C 
ATOM     22  C   UNL     1      17.810   6.229  19.630  0.00  0.00    +0.020 C 
ATOM     23  C   UNL     1      16.355   7.371  21.138  0.00  0.00    +0.106 C 
ATOM     24  C   UNL     1      16.407   6.189  19.029  0.00  0.00    +0.106 C 
ATOM     26  C   UNL     1      12.456   8.765  20.305  0.00  0.00    +0.027 A 
ATOM     27  C   UNL     1      14.352   7.497  19.632  0.00  0.00    +0.122 A 
ATOM     28  C   UNL     1      13.739   8.304  20.577  0.00  0.00    +0.055 A 
ATOM     29  C   UNL     1      11.833   8.410  19.114  0.00  0.00    +0.031 A 
ATOM     30  C   UNL     1      12.531   7.597  18.235  0.00  0.00    +0.113 A 
ENDBRANCH  20  26
BRANCH  18  10
ATOM      3  N   UNL     1      12.346  13.267  23.373  0.00  0.00    -0.288 NA
ATOM     10  C   UNL     1      11.067  12.645  22.977  0.00  0.00    +0.146 C 
ATOM     11  C   UNL     1      12.143  14.714  23.298  0.00  0.00    +0.085 C 
ATOM     12  C   UNL     1      10.411  13.669  22.031  0.00  0.00    +0.030 C 
ATOM     15  C   UNL     1      11.365  14.855  22.005  0.00  0.00    +0.017 C 
BRANCH   3   9
ATOM      2  O   UNL     1      16.208  14.125  28.080  0.00  0.00    -0.276 OA
ATOM      4  N   UNL     1      14.848  12.795  26.747  0.00  0.00    -0.302 N 
ATOM      9  C   UNL     1      12.808  12.845  24.693  0.00  0.00    +0.060 C 
ATOM     13  C   UNL     1      14.061  11.971  24.558  0.00  0.00    +0.038 C 
ATOM     14  C   UNL     1      13.100  14.072  25.567  0.00  0.00    +0.038 C 
ATOM     16  C   UNL     1      14.618  11.595  25.932  0.00  0.00    +0.109 C 
ATOM     17  C   UNL     1      13.674  13.653  26.919  0.00  0.00    +0.109 C 
ATOM     19  C   UNL     1      16.050  13.128  27.370  0.00  0.00    +0.212 C 
ATOM     25  C   UNL     1      17.212  12.194  27.141  0.00  0.00    +0.109 C 
ENDBRANCH   3   9
ENDBRANCH  18  10
TORSDOF 3
ENDMDL
MODEL 10
REMARK VINA RESULT:      -7.0     27.973     30.898
REMARK  Name = 45783832
REMARK  4 active torsions:
REMARK  status: ('A' for Active; 'I' for Inactive)
REMARK    1  A    between atoms: N_3  and  C_9
REMARK    2  A    between atoms: C_10  and  C_18
REMARK    3  A    between atoms: C_19  and  C_25
REMARK    4  A    between atoms: C_20  and  C_26
REMARK                            x       y       z     vdW  Elec       q    Type
REMARK                         _______ _______ _______ _____ _____    ______ ____
ROOT
ATOM      1  O   UNL     1      -9.940 -10.220  15.280  0.00  0.00    -0.336 OA
ATOM      5  N   UNL     1      -8.490  -9.023  16.496  0.00  0.00    -0.190 NA
ATOM      7  N   UNL     1      -8.676 -10.771  15.031  0.00  0.00    -0.056 NA
ATOM     18  C   UNL     1      -9.740  -9.198  16.152  0.00  0.00    +0.245 A 
ATOM     20  C   UNL     1      -7.874 -10.011  15.784  0.00  0.00    +0.202 A 
ENDROOT
BRANCH  20  26
ATOM      6  N   UNL     1      -3.611 -10.506  13.617  0.00  0.00    -0.315 N 
ATOM      8  N   UNL     1      -3.690 -10.603  15.962  0.00  0.00    -0.240 NA
ATOM     21  C   UNL     1      -2.975 -10.182  11.376  0.00  0.00    +0.020 C 
ATOM     22  C   UNL     1      -1.894 -10.982  12.082  0.00  0.00    +0.020 C 
ATOM     23  C   UNL     1      -4.191 -10.365  12.283  0.00  0.00    +0.106 C 
ATOM     24  C   UNL     1      -2.165 -10.704  13.559  0.00  0.00    +0.106 C 
ATOM     26  C   UNL     1      -6.456 -10.213  15.845  0.00  0.00    +0.027 A 
ATOM     27  C   UNL     1      -4.340 -10.458  14.786  0.00  0.00    +0.122 A 
ATOM     28  C   UNL     1      -5.707 -10.262  14.674  0.00  0.00    +0.055 A 
ATOM     29  C   UNL     1      -5.823 -10.358  17.075  0.00  0.00    +0.031 A 
ATOM     30  C   UNL     1      -4.451 -10.549  17.078  0.00  0.00    +0.113 A 
ENDBRANCH  20  26
BRANCH  18  10
ATOM      3  N   UNL     1     -12.091  -8.566  15.631  0.00  0.00    -0.288 NA
ATOM     10  C   UNL     1     -10.972  -8.430  16.585  0.00  0.00    +0.146 C 
ATOM     11  C   UNL     1     -13.319  -8.435  16.414  0.00  0.00    +0.085 C 
ATOM     12  C   UNL     1     -11.540  -8.926  17.928  0.00  0.00    +0.030 C 
ATOM     15  C   UNL     1     -12.998  -9.261  17.643  0.00  0.00    +0.017 C 
BRANCH   3   9
ATOM      2  O   UNL     1     -14.100  -3.287  13.201  0.00  0.00    -0.276 OA
ATOM      4  N   UNL     1     -13.216  -5.429  13.032  0.00  0.00    -0.302 N 
ATOM      9  C   UNL     1     -12.033  -7.603  14.534  0.00  0.00    +0.060 C 
ATOM     13  C   UNL     1     -13.199  -7.838  13.565  0.00  0.00    +0.038 C 
ATOM     14  C   UNL     1     -12.075  -6.172  15.087  0.00  0.00    +0.038 C 
ATOM     16  C   UNL     1     -13.214  -6.782  12.460  0.00  0.00    +0.109 C 
ATOM     17  C   UNL     1     -12.111  -5.150  13.952  0.00  0.00    +0.109 C 
ATOM     19  C   UNL     1     -14.141  -4.429  12.734  0.00  0.00    +0.212 C 
ATOM     25  C   UNL     1     -15.250  -4.795  11.781  0.00  0.00    +0.109 C 
ENDBRANCH   3   9
ENDBRANCH  18  10
TORSDOF 3
ENDMDL
