MODEL 1
REMARK VINA RESULT:      -7.2      0.000      0.000
REMARK  Name = 56774195
REMARK  10 active torsions:
REMARK  status: ('A' for Active; 'I' for Inactive)
REMARK    1  A    between atoms: O_2  and  C_27
REMARK    2  A    between atoms: O_2  and  C_28
REMARK    3  A    between atoms: N_3  and  C_8
REMARK    4  A    between atoms: N_3  and  C_14
REMARK    5  A    between atoms: C_6  and  C_11
REMARK    6  A    between atoms: C_6  and  C_12
REMARK    7  A    between atoms: C_7  and  C_10
REMARK    8  A    between atoms: C_10  and  C_13
REMARK    9  A    between atoms: C_14  and  C_16
REMARK   10  A    between atoms: C_17  and  C_20
REMARK                            x       y       z     vdW  Elec       q    Type
REMARK                         _______ _______ _______ _____ _____    ______ ____
ROOT
ATOM      6  C   UNL     1      15.543   7.737  20.947  0.00  0.00    -0.016 C 
ATOM      7  C   UNL     1      16.827   6.881  20.932  0.00  0.00    +0.004 C 
ATOM      8  C   UNL     1      14.917   6.676  20.019  0.00  0.00    +0.060 C 
ATOM      9  C   UNL     1      16.352   6.330  19.571  0.00  0.00    +0.023 C 
ATOM     11  C   UNL     1      14.826   7.825  22.283  0.00  0.00    +0.013 C 
ATOM     12  C   UNL     1      15.731   9.132  20.390  0.00  0.00    +0.013 C 
ENDROOT
BRANCH   8   3
ATOM      3  N   UNL     1      14.208   7.299  18.901  0.00  0.00    -0.309 NA
ATOM     29  H   UNL     1      14.582   7.034  17.990  0.00  0.00    +0.123 HD
BRANCH   3  14
ATOM     14  C   UNL     1      12.799   6.925  18.948  0.00  0.00    +0.116 C 
BRANCH  14  16
ATOM      5  N   UNL     1      10.687   9.026  22.051  0.00  0.00    -0.263 NA
ATOM     16  C   UNL     1      12.059   7.661  20.033  0.00  0.00    -0.031 A 
ATOM     18  C   UNL     1      12.021   9.050  20.033  0.00  0.00    +0.024 A 
ATOM     19  C   UNL     1      11.412   6.952  21.040  0.00  0.00    +0.024 A 
ATOM     21  C   UNL     1      11.328   9.680  21.055  0.00  0.00    +0.111 A 
ATOM     22  C   UNL     1      10.747   7.676  22.017  0.00  0.00    +0.111 A 
ENDBRANCH  14  16
ENDBRANCH   3  14
ENDBRANCH   8   3
BRANCH   7  10
ATOM     10  C   UNL     1      18.166   7.631  20.887  0.00  0.00    +0.063 C 
BRANCH  10  13
ATOM      1  O   UNL     1      20.623   5.785  22.708  0.00  0.00    -0.354 OA
ATOM      4  N   UNL     1      19.543   6.658  22.639  0.00  0.00    -0.083 NA
ATOM     13  C   UNL     1      19.271   6.769  21.335  0.00  0.00    +0.084 A 
ATOM     15  C   UNL     1      20.138   5.997  20.542  0.00  0.00    +0.076 A 
ATOM     17  C   UNL     1      20.968   5.398  21.453  0.00  0.00    +0.167 A 
BRANCH  17  20
ATOM     20  C   UNL     1      22.079   4.483  21.363  0.00  0.00    +0.020 A 
ATOM     23  C   UNL     1      23.104   4.719  20.446  0.00  0.00    +0.015 A 
ATOM     24  C   UNL     1      22.131   3.365  22.195  0.00  0.00    +0.015 A 
ATOM     25  C   UNL     1      24.179   3.834  20.359  0.00  0.00    +0.046 A 
ATOM     26  C   UNL     1      23.206   2.481  22.109  0.00  0.00    +0.046 A 
ATOM     27  C   UNL     1      24.229   2.715  21.191  0.00  0.00    +0.120 A 
BRANCH  27   2
ATOM      2  O   UNL     1      25.280   1.855  21.108  0.00  0.00    -0.495 OA
ATOM     28  C   UNL     1      25.181   0.636  21.846  0.00  0.00    +0.277 C 
ENDBRANCH  27   2
ENDBRANCH  17  20
ENDBRANCH  10  13
ENDBRANCH   7  10
TORSDOF 7
ENDMDL
MODEL 2
REMARK VINA RESULT:      -7.1      2.293      3.921
REMARK  Name = 56774195
REMARK  10 active torsions:
REMARK  status: ('A' for Active; 'I' for Inactive)
REMARK    1  A    between atoms: O_2  and  C_27
REMARK    2  A    between atoms: O_2  and  C_28
REMARK    3  A    between atoms: N_3  and  C_8
REMARK    4  A    between atoms: N_3  and  C_14
REMARK    5  A    between atoms: C_6  and  C_11
REMARK    6  A    between atoms: C_6  and  C_12
REMARK    7  A    between atoms: C_7  and  C_10
REMARK    8  A    between atoms: C_10  and  C_13
REMARK    9  A    between atoms: C_14  and  C_16
REMARK   10  A    between atoms: C_17  and  C_20
REMARK                            x       y       z     vdW  Elec       q    Type
REMARK                         _______ _______ _______ _____ _____    ______ ____
ROOT
ATOM      6  C   UNL     1      13.695   8.629  21.193  0.00  0.00    -0.016 C 
ATOM      7  C   UNL     1      14.001   7.177  20.769  0.00  0.00    +0.004 C 
ATOM      8  C   UNL     1      12.391   8.091  21.818  0.00  0.00    +0.060 C 
ATOM      9  C   UNL     1      12.479   6.925  20.811  0.00  0.00    +0.023 C 
ATOM     11  C   UNL     1      14.626   9.222  22.235  0.00  0.00    +0.013 C 
ATOM     12  C   UNL     1      13.569   9.592  20.031  0.00  0.00    +0.013 C 
ENDROOT
BRANCH   8   3
ATOM      3  N   UNL     1      11.247   8.933  21.469  0.00  0.00    -0.309 NA
ATOM     29  H   UNL     1      10.561   8.458  20.882  0.00  0.00    +0.123 HD
BRANCH   3  14
ATOM     14  C   UNL     1      10.579   9.378  22.688  0.00  0.00    +0.116 C 
BRANCH  14  16
ATOM      5  N   UNL     1      11.752  13.366  23.792  0.00  0.00    -0.263 NA
ATOM     16  C   UNL     1      10.989  10.774  23.074  0.00  0.00    -0.031 A 
ATOM     18  C   UNL     1      11.313  11.703  22.092  0.00  0.00    +0.024 A 
ATOM     19  C   UNL     1      11.046  11.138  24.415  0.00  0.00    +0.024 A 
ATOM     21  C   UNL     1      11.685  12.974  22.500  0.00  0.00    +0.111 A 
ATOM     22  C   UNL     1      11.431  12.435  24.719  0.00  0.00    +0.111 A 
ENDBRANCH  14  16
ENDBRANCH   3  14
ENDBRANCH   8   3
BRANCH   7  10
ATOM     10  C   UNL     1      14.646   6.973  19.392  0.00  0.00    +0.063 C 
BRANCH  10  13
ATOM      1  O   UNL     1      17.881   5.516  18.981  0.00  0.00    -0.354 OA
ATOM      4  N   UNL     1      16.590   5.785  18.541  0.00  0.00    -0.083 NA
ATOM     13  C   UNL     1      16.036   6.505  19.521  0.00  0.00    +0.084 A 
ATOM     15  C   UNL     1      16.919   6.718  20.593  0.00  0.00    +0.076 A 
ATOM     17  C   UNL     1      18.066   6.076  20.203  0.00  0.00    +0.167 A 
BRANCH  17  20
ATOM     20  C   UNL     1      19.368   5.881  20.792  0.00  0.00    +0.020 A 
ATOM     23  C   UNL     1      19.781   6.687  21.854  0.00  0.00    +0.015 A 
ATOM     24  C   UNL     1      20.213   4.887  20.301  0.00  0.00    +0.015 A 
ATOM     25  C   UNL     1      21.040   6.498  22.423  0.00  0.00    +0.046 A 
ATOM     26  C   UNL     1      21.472   4.698  20.870  0.00  0.00    +0.046 A 
ATOM     27  C   UNL     1      21.885   5.504  21.931  0.00  0.00    +0.120 A 
BRANCH  27   2
ATOM      2  O   UNL     1      23.113   5.318  22.489  0.00  0.00    -0.495 OA
ATOM     28  C   UNL     1      23.957   4.335  21.890  0.00  0.00    +0.277 C 
ENDBRANCH  27   2
ENDBRANCH  17  20
ENDBRANCH  10  13
ENDBRANCH   7  10
TORSDOF 7
ENDMDL
MODEL 3
REMARK VINA RESULT:      -6.5     27.153     30.165
REMARK  Name = 56774195
REMARK  10 active torsions:
REMARK  status: ('A' for Active; 'I' for Inactive)
REMARK    1  A    between atoms: O_2  and  C_27
REMARK    2  A    between atoms: O_2  and  C_28
REMARK    3  A    between atoms: N_3  and  C_8
REMARK    4  A    between atoms: N_3  and  C_14
REMARK    5  A    between atoms: C_6  and  C_11
REMARK    6  A    between atoms: C_6  and  C_12
REMARK    7  A    between atoms: C_7  and  C_10
REMARK    8  A    between atoms: C_10  and  C_13
REMARK    9  A    between atoms: C_14  and  C_16
REMARK   10  A    between atoms: C_17  and  C_20
REMARK                            x       y       z     vdW  Elec       q    Type
REMARK                         _______ _______ _______ _____ _____    ______ ____
ROOT
ATOM      6  C   UNL     1      -3.873 -11.052  15.158  0.00  0.00    -0.016 C 
ATOM      7  C   UNL     1      -2.611 -10.423  14.530  0.00  0.00    +0.004 C 
ATOM      8  C   UNL     1      -3.253 -10.733  16.535  0.00  0.00    +0.060 C 
ATOM      9  C   UNL     1      -1.876 -10.777  15.839  0.00  0.00    +0.023 C 
ATOM     11  C   UNL     1      -5.170 -10.297  14.926  0.00  0.00    +0.013 C 
ATOM     12  C   UNL     1      -4.074 -12.509  14.801  0.00  0.00    +0.013 C 
ENDROOT
BRANCH   8   3
ATOM      3  N   UNL     1      -3.362 -11.873  17.444  0.00  0.00    -0.309 NA
ATOM     29  H   UNL     1      -2.458 -12.237  17.745  0.00  0.00    +0.123 HD
BRANCH   3  14
ATOM     14  C   UNL     1      -4.117 -11.481  18.629  0.00  0.00    +0.116 C 
BRANCH  14  16
ATOM      5  N   UNL     1      -8.362 -11.685  17.965  0.00  0.00    -0.263 NA
ATOM     16  C   UNL     1      -5.603 -11.552  18.396  0.00  0.00    -0.031 A 
ATOM     18  C   UNL     1      -6.399 -10.436  18.625  0.00  0.00    +0.024 A 
ATOM     19  C   UNL     1      -6.184 -12.735  17.951  0.00  0.00    +0.024 A 
ATOM     21  C   UNL     1      -7.761 -10.553  18.397  0.00  0.00    +0.111 A 
ATOM     22  C   UNL     1      -7.556 -12.749  17.754  0.00  0.00    +0.111 A 
ENDBRANCH  14  16
ENDBRANCH   3  14
ENDBRANCH   8   3
BRANCH   7  10
ATOM     10  C   UNL     1      -2.044 -11.101  13.275  0.00  0.00    +0.063 C 
BRANCH  10  13
ATOM      1  O   UNL     1      -2.690  -9.327  10.242  0.00  0.00    -0.354 OA
ATOM      4  N   UNL     1      -1.863  -9.699  11.296  0.00  0.00    -0.083 NA
ATOM     13  C   UNL     1      -2.610 -10.510  12.051  0.00  0.00    +0.084 A 
ATOM     15  C   UNL     1      -3.904 -10.683  11.530  0.00  0.00    +0.076 A 
ATOM     17  C   UNL     1      -3.902  -9.919  10.392  0.00  0.00    +0.167 A 
BRANCH  17  20
ATOM     20  C   UNL     1      -4.873  -9.627   9.366  0.00  0.00    +0.020 A 
ATOM     23  C   UNL     1      -4.804 -10.280   8.135  0.00  0.00    +0.015 A 
ATOM     24  C   UNL     1      -5.881  -8.694   9.607  0.00  0.00    +0.015 A 
ATOM     25  C   UNL     1      -5.744  -9.998   7.144  0.00  0.00    +0.046 A 
ATOM     26  C   UNL     1      -6.821  -8.412   8.615  0.00  0.00    +0.046 A 
ATOM     27  C   UNL     1      -6.752  -9.064   7.384  0.00  0.00    +0.120 A 
BRANCH  27   2
ATOM      2  O   UNL     1      -7.670  -8.791   6.417  0.00  0.00    -0.495 OA
ATOM     28  C   UNL     1      -7.170  -8.396   5.139  0.00  0.00    +0.277 C 
ENDBRANCH  27   2
ENDBRANCH  17  20
ENDBRANCH  10  13
ENDBRANCH   7  10
TORSDOF 7
ENDMDL
MODEL 4
REMARK VINA RESULT:      -6.4      3.509     10.230
REMARK  Name = 56774195
REMARK  10 active torsions:
REMARK  status: ('A' for Active; 'I' for Inactive)
REMARK    1  A    between atoms: O_2  and  C_27
REMARK    2  A    between atoms: O_2  and  C_28
REMARK    3  A    between atoms: N_3  and  C_8
REMARK    4  A    between atoms: N_3  and  C_14
REMARK    5  A    between atoms: C_6  and  C_11
REMARK    6  A    between atoms: C_6  and  C_12
REMARK    7  A    between atoms: C_7  and  C_10
REMARK    8  A    between atoms: C_10  and  C_13
REMARK    9  A    between atoms: C_14  and  C_16
REMARK   10  A    between atoms: C_17  and  C_20
REMARK                            x       y       z     vdW  Elec       q    Type
REMARK                         _______ _______ _______ _____ _____    ______ ____
ROOT
ATOM      6  C   UNL     1      20.371   6.522  21.357  0.00  0.00    -0.016 C 
ATOM      7  C   UNL     1      19.366   7.320  22.215  0.00  0.00    +0.004 C 
ATOM      8  C   UNL     1      20.822   5.834  22.662  0.00  0.00    +0.060 C 
ATOM      9  C   UNL     1      20.317   7.087  23.407  0.00  0.00    +0.023 C 
ATOM     11  C   UNL     1      19.762   5.540  20.373  0.00  0.00    +0.013 C 
ATOM     12  C   UNL     1      21.383   7.388  20.636  0.00  0.00    +0.013 C 
ENDROOT
BRANCH   8   3
ATOM      3  N   UNL     1      22.281   5.780  22.758  0.00  0.00    -0.309 NA
ATOM     29  H   UNL     1      22.656   6.357  23.511  0.00  0.00    +0.123 HD
BRANCH   3  14
ATOM     14  C   UNL     1      22.705   4.402  22.979  0.00  0.00    +0.116 C 
BRANCH  14  16
ATOM      5  N   UNL     1      24.889   2.839  19.620  0.00  0.00    -0.263 NA
ATOM     16  C   UNL     1      23.470   3.855  21.804  0.00  0.00    -0.031 A 
ATOM     18  C   UNL     1      24.050   4.722  20.885  0.00  0.00    +0.024 A 
ATOM     19  C   UNL     1      23.599   2.481  21.633  0.00  0.00    +0.024 A 
ATOM     21  C   UNL     1      24.742   4.169  19.819  0.00  0.00    +0.111 A 
ATOM     22  C   UNL     1      24.311   2.028  20.534  0.00  0.00    +0.111 A 
ENDBRANCH  14  16
ENDBRANCH   3  14
ENDBRANCH   8   3
BRANCH   7  10
ATOM     10  C   UNL     1      19.150   8.794  21.847  0.00  0.00    +0.063 C 
BRANCH  10  13
ATOM      1  O   UNL     1      16.062  10.034  20.548  0.00  0.00    -0.354 OA
ATOM      4  N   UNL     1      17.259  10.196  21.237  0.00  0.00    -0.083 NA
ATOM     13  C   UNL     1      17.842   8.993  21.203  0.00  0.00    +0.084 A 
ATOM     15  C   UNL     1      17.067   8.044  20.515  0.00  0.00    +0.076 A 
ATOM     17  C   UNL     1      15.959   8.748  20.123  0.00  0.00    +0.167 A 
BRANCH  17  20
ATOM     20  C   UNL     1      14.762   8.426  19.386  0.00  0.00    +0.020 A 
ATOM     23  C   UNL     1      14.401   9.188  18.275  0.00  0.00    +0.015 A 
ATOM     24  C   UNL     1      13.967   7.352  19.784  0.00  0.00    +0.015 A 
ATOM     25  C   UNL     1      13.244   8.876  17.562  0.00  0.00    +0.046 A 
ATOM     26  C   UNL     1      12.809   7.040  19.071  0.00  0.00    +0.046 A 
ATOM     27  C   UNL     1      12.448   7.803  17.960  0.00  0.00    +0.120 A 
BRANCH  27   2
ATOM      2  O   UNL     1      11.321   7.497  17.262  0.00  0.00    -0.495 OA
ATOM     28  C   UNL     1      10.680   8.564  16.563  0.00  0.00    +0.277 C 
ENDBRANCH  27   2
ENDBRANCH  17  20
ENDBRANCH  10  13
ENDBRANCH   7  10
TORSDOF 7
ENDMDL
MODEL 5
REMARK VINA RESULT:      -6.4     29.101     33.008
REMARK  Name = 56774195
REMARK  10 active torsions:
REMARK  status: ('A' for Active; 'I' for Inactive)
REMARK    1  A    between atoms: O_2  and  C_27
REMARK    2  A    between atoms: O_2  and  C_28
REMARK    3  A    between atoms: N_3  and  C_8
REMARK    4  A    between atoms: N_3  and  C_14
REMARK    5  A    between atoms: C_6  and  C_11
REMARK    6  A    between atoms: C_6  and  C_12
REMARK    7  A    between atoms: C_7  and  C_10
REMARK    8  A    between atoms: C_10  and  C_13
REMARK    9  A    between atoms: C_14  and  C_16
REMARK   10  A    between atoms: C_17  and  C_20
REMARK                            x       y       z     vdW  Elec       q    Type
REMARK                         _______ _______ _______ _____ _____    ______ ____
ROOT
ATOM      6  C   UNL     1     -13.285   7.523  20.907  0.00  0.00    -0.016 C 
ATOM      7  C   UNL     1     -14.341   7.032  21.919  0.00  0.00    +0.004 C 
ATOM      8  C   UNL     1     -13.160   8.796  21.770  0.00  0.00    +0.060 C 
ATOM      9  C   UNL     1     -14.598   8.517  22.254  0.00  0.00    +0.023 C 
ATOM     11  C   UNL     1     -11.992   6.729  20.867  0.00  0.00    +0.013 C 
ATOM     12  C   UNL     1     -13.815   7.682  19.497  0.00  0.00    +0.013 C 
ENDROOT
BRANCH   8   3
ATOM      3  N   UNL     1     -13.163  10.002  20.942  0.00  0.00    -0.309 NA
ATOM     29  H   UNL     1     -13.773  10.736  21.303  0.00  0.00    +0.123 HD
BRANCH   3  14
ATOM     14  C   UNL     1     -11.808  10.534  20.851  0.00  0.00    +0.116 C 
BRANCH  14  16
ATOM      5  N   UNL     1     -10.224  10.209  16.865  0.00  0.00    -0.263 NA
ATOM     16  C   UNL     1     -11.254  10.419  19.455  0.00  0.00    -0.031 A 
ATOM     18  C   UNL     1     -10.297   9.455  19.161  0.00  0.00    +0.024 A 
ATOM     19  C   UNL     1     -11.698  11.278  18.456  0.00  0.00    +0.024 A 
ATOM     21  C   UNL     1      -9.818   9.392  17.863  0.00  0.00    +0.111 A 
ATOM     22  C   UNL     1     -11.156  11.134  17.189  0.00  0.00    +0.111 A 
ENDBRANCH  14  16
ENDBRANCH   3  14
ENDBRANCH   8   3
BRANCH   7  10
ATOM     10  C   UNL     1     -15.556   6.284  21.354  0.00  0.00    +0.063 C 
BRANCH  10  13
ATOM      1  O   UNL     1     -16.814   3.263  22.785  0.00  0.00    -0.354 OA
ATOM      4  N   UNL     1     -16.629   4.132  21.716  0.00  0.00    -0.083 NA
ATOM     13  C   UNL     1     -15.935   5.157  22.221  0.00  0.00    +0.084 A 
ATOM     15  C   UNL     1     -15.658   4.992  23.589  0.00  0.00    +0.076 A 
ATOM     17  C   UNL     1     -16.231   3.785  23.894  0.00  0.00    +0.167 A 
BRANCH  17  20
ATOM     20  C   UNL     1     -16.339   2.989  25.092  0.00  0.00    +0.020 A 
ATOM     23  C   UNL     1     -16.703   1.645  25.006  0.00  0.00    +0.015 A 
ATOM     24  C   UNL     1     -16.078   3.563  26.336  0.00  0.00    +0.015 A 
ATOM     25  C   UNL     1     -16.806   0.875  26.164  0.00  0.00    +0.046 A 
ATOM     26  C   UNL     1     -16.181   2.793  27.495  0.00  0.00    +0.046 A 
ATOM     27  C   UNL     1     -16.546   1.449  27.408  0.00  0.00    +0.120 A 
BRANCH  27   2
ATOM      2  O   UNL     1     -16.644   0.697  28.538  0.00  0.00    -0.495 OA
ATOM     28  C   UNL     1     -15.528   0.713  29.428  0.00  0.00    +0.277 C 
ENDBRANCH  27   2
ENDBRANCH  17  20
ENDBRANCH  10  13
ENDBRANCH   7  10
TORSDOF 7
ENDMDL
MODEL 6
REMARK VINA RESULT:      -6.4     29.981     33.930
REMARK  Name = 56774195
REMARK  10 active torsions:
REMARK  status: ('A' for Active; 'I' for Inactive)
REMARK    1  A    between atoms: O_2  and  C_27
REMARK    2  A    between atoms: O_2  and  C_28
REMARK    3  A    between atoms: N_3  and  C_8
REMARK    4  A    between atoms: N_3  and  C_14
REMARK    5  A    between atoms: C_6  and  C_11
REMARK    6  A    between atoms: C_6  and  C_12
REMARK    7  A    between atoms: C_7  and  C_10
REMARK    8  A    between atoms: C_10  and  C_13
REMARK    9  A    between atoms: C_14  and  C_16
REMARK   10  A    between atoms: C_17  and  C_20
REMARK                            x       y       z     vdW  Elec       q    Type
REMARK                         _______ _______ _______ _____ _____    ______ ____
ROOT
ATOM      6  C   UNL     1     -17.499   4.455  26.454  0.00  0.00    -0.016 C 
ATOM      7  C   UNL     1     -16.412   3.969  25.473  0.00  0.00    +0.004 C 
ATOM      8  C   UNL     1     -16.690   3.766  27.573  0.00  0.00    +0.060 C 
ATOM      9  C   UNL     1     -16.116   2.839  26.481  0.00  0.00    +0.023 C 
ATOM     11  C   UNL     1     -17.584   5.958  26.651  0.00  0.00    +0.013 C 
ATOM     12  C   UNL     1     -18.881   3.914  26.154  0.00  0.00    +0.013 C 
ENDROOT
BRANCH   8   3
ATOM      3  N   UNL     1     -17.559   2.984  28.452  0.00  0.00    -0.309 NA
ATOM     29  H   UNL     1     -17.626   2.002  28.181  0.00  0.00    +0.123 HD
BRANCH   3  14
ATOM     14  C   UNL     1     -17.055   3.050  29.819  0.00  0.00    +0.116 C 
BRANCH  14  16
ATOM      5  N   UNL     1     -13.585   0.570  30.373  0.00  0.00    -0.263 NA
ATOM     16  C   UNL     1     -15.841   2.182  30.012  0.00  0.00    -0.031 A 
ATOM     18  C   UNL     1     -15.925   0.809  29.811  0.00  0.00    +0.024 A 
ATOM     19  C   UNL     1     -14.630   2.750  30.393  0.00  0.00    +0.024 A 
ATOM     21  C   UNL     1     -14.779   0.054  30.003  0.00  0.00    +0.111 A 
ATOM     22  C   UNL     1     -13.542   1.908  30.559  0.00  0.00    +0.111 A 
ENDBRANCH  14  16
ENDBRANCH   3  14
ENDBRANCH   8   3
BRANCH   7  10
ATOM     10  C   UNL     1     -16.881   3.489  24.093  0.00  0.00    +0.063 C 
BRANCH  10  13
ATOM      1  O   UNL     1     -15.898   5.059  21.039  0.00  0.00    -0.354 OA
ATOM      4  N   UNL     1     -16.761   4.275  21.794  0.00  0.00    -0.083 NA
ATOM     13  C   UNL     1     -16.219   4.243  23.016  0.00  0.00    +0.084 A 
ATOM     15  C   UNL     1     -15.025   4.981  23.089  0.00  0.00    +0.076 A 
ATOM     17  C   UNL     1     -14.868   5.474  21.820  0.00  0.00    +0.167 A 
BRANCH  17  20
ATOM     20  C   UNL     1     -13.884   6.304  21.171  0.00  0.00    +0.020 A 
ATOM     23  C   UNL     1     -12.529   6.138  21.462  0.00  0.00    +0.015 A 
ATOM     24  C   UNL     1     -14.286   7.271  20.250  0.00  0.00    +0.015 A 
ATOM     25  C   UNL     1     -11.578   6.941  20.833  0.00  0.00    +0.046 A 
ATOM     26  C   UNL     1     -13.335   8.074  19.622  0.00  0.00    +0.046 A 
ATOM     27  C   UNL     1     -11.981   7.909  19.914  0.00  0.00    +0.120 A 
BRANCH  27   2
ATOM      2  O   UNL     1     -11.051   8.690  19.298  0.00  0.00    -0.495 OA
ATOM     28  C   UNL     1     -10.948  10.045  19.737  0.00  0.00    +0.277 C 
ENDBRANCH  27   2
ENDBRANCH  17  20
ENDBRANCH  10  13
ENDBRANCH   7  10
TORSDOF 7
ENDMDL
MODEL 7
REMARK VINA RESULT:      -6.3     28.312     30.181
REMARK  Name = 56774195
REMARK  10 active torsions:
REMARK  status: ('A' for Active; 'I' for Inactive)
REMARK    1  A    between atoms: O_2  and  C_27
REMARK    2  A    between atoms: O_2  and  C_28
REMARK    3  A    between atoms: N_3  and  C_8
REMARK    4  A    between atoms: N_3  and  C_14
REMARK    5  A    between atoms: C_6  and  C_11
REMARK    6  A    between atoms: C_6  and  C_12
REMARK    7  A    between atoms: C_7  and  C_10
REMARK    8  A    between atoms: C_10  and  C_13
REMARK    9  A    between atoms: C_14  and  C_16
REMARK   10  A    between atoms: C_17  and  C_20
REMARK                            x       y       z     vdW  Elec       q    Type
REMARK                         _______ _______ _______ _____ _____    ______ ____
ROOT
ATOM      6  C   UNL     1      -5.543  -9.397   9.973  0.00  0.00    -0.016 C 
ATOM      7  C   UNL     1      -4.542 -10.544  10.221  0.00  0.00    +0.004 C 
ATOM      8  C   UNL     1      -5.908 -10.104   8.651  0.00  0.00    +0.060 C 
ATOM      9  C   UNL     1      -4.502 -10.738   8.691  0.00  0.00    +0.023 C 
ATOM     11  C   UNL     1      -6.720  -9.331  10.930  0.00  0.00    +0.013 C 
ATOM     12  C   UNL     1      -4.898  -8.030   9.882  0.00  0.00    +0.013 C 
ENDROOT
BRANCH   8   3
ATOM      3  N   UNL     1      -5.969  -9.154   7.540  0.00  0.00    -0.309 NA
ATOM     29  H   UNL     1      -5.298  -9.358   6.799  0.00  0.00    +0.123 HD
BRANCH   3  14
ATOM     14  C   UNL     1      -7.309  -9.164   6.963  0.00  0.00    +0.116 C 
BRANCH  14  16
ATOM      5  N   UNL     1      -9.937  -6.408   8.962  0.00  0.00    -0.263 NA
ATOM     16  C   UNL     1      -8.228  -8.200   7.663  0.00  0.00    -0.031 A 
ATOM     18  C   UNL     1      -9.336  -8.671   8.358  0.00  0.00    +0.024 A 
ATOM     19  C   UNL     1      -7.973  -6.833   7.616  0.00  0.00    +0.024 A 
ATOM     21  C   UNL     1     -10.152  -7.743   8.985  0.00  0.00    +0.111 A 
ATOM     22  C   UNL     1      -8.850  -5.987   8.276  0.00  0.00    +0.111 A 
ENDBRANCH  14  16
ENDBRANCH   3  14
ENDBRANCH   8   3
BRANCH   7  10
ATOM     10  C   UNL     1      -3.194 -10.171  10.854  0.00  0.00    +0.063 C 
BRANCH  10  13
ATOM      1  O   UNL     1      -2.467 -10.693  14.312  0.00  0.00    -0.354 OA
ATOM      4  N   UNL     1      -2.083 -10.555  12.982  0.00  0.00    -0.083 NA
ATOM     13  C   UNL     1      -3.224 -10.359  12.313  0.00  0.00    +0.084 A 
ATOM     15  C   UNL     1      -4.346 -10.365  13.158  0.00  0.00    +0.076 A 
ATOM     17  C   UNL     1      -3.816 -10.578  14.404  0.00  0.00    +0.167 A 
BRANCH  17  20
ATOM     20  C   UNL     1      -4.366 -10.698  15.732  0.00  0.00    +0.020 A 
ATOM     23  C   UNL     1      -3.634 -11.336  16.734  0.00  0.00    +0.015 A 
ATOM     24  C   UNL     1      -5.626 -10.174  16.014  0.00  0.00    +0.015 A 
ATOM     25  C   UNL     1      -4.165 -11.452  18.019  0.00  0.00    +0.046 A 
ATOM     26  C   UNL     1      -6.158 -10.290  17.299  0.00  0.00    +0.046 A 
ATOM     27  C   UNL     1      -5.427 -10.929  18.301  0.00  0.00    +0.120 A 
BRANCH  27   2
ATOM      2  O   UNL     1      -5.943 -11.039  19.555  0.00  0.00    -0.495 OA
ATOM     28  C   UNL     1      -7.049 -11.926  19.727  0.00  0.00    +0.277 C 
ENDBRANCH  27   2
ENDBRANCH  17  20
ENDBRANCH  10  13
ENDBRANCH   7  10
TORSDOF 7
ENDMDL
MODEL 8
REMARK VINA RESULT:      -6.3     28.571     33.399
REMARK  Name = 56774195
REMARK  10 active torsions:
REMARK  status: ('A' for Active; 'I' for Inactive)
REMARK    1  A    between atoms: O_2  and  C_27
REMARK    2  A    between atoms: O_2  and  C_28
REMARK    3  A    between atoms: N_3  and  C_8
REMARK    4  A    between atoms: N_3  and  C_14
REMARK    5  A    between atoms: C_6  and  C_11
REMARK    6  A    between atoms: C_6  and  C_12
REMARK    7  A    between atoms: C_7  and  C_10
REMARK    8  A    between atoms: C_10  and  C_13
REMARK    9  A    between atoms: C_14  and  C_16
REMARK   10  A    between atoms: C_17  and  C_20
REMARK                            x       y       z     vdW  Elec       q    Type
REMARK                         _______ _______ _______ _____ _____    ______ ____
ROOT
ATOM      6  C   UNL     1     -14.741   5.039  34.023  0.00  0.00    -0.016 C 
ATOM      7  C   UNL     1     -14.054   5.861  32.912  0.00  0.00    +0.004 C 
ATOM      8  C   UNL     1     -14.249   3.776  33.286  0.00  0.00    +0.060 C 
ATOM      9  C   UNL     1     -14.225   4.628  32.000  0.00  0.00    +0.023 C 
ATOM     11  C   UNL     1     -14.133   5.168  35.408  0.00  0.00    +0.013 C 
ATOM     12  C   UNL     1     -16.236   5.260  34.113  0.00  0.00    +0.013 C 
ENDROOT
BRANCH   8   3
ATOM      3  N   UNL     1     -15.312   2.777  33.175  0.00  0.00    -0.309 NA
ATOM     29  H   UNL     1     -15.976   2.978  32.426  0.00  0.00    +0.123 HD
BRANCH   3  14
ATOM     14  C   UNL     1     -14.725   1.465  32.929  0.00  0.00    +0.116 C 
BRANCH  14  16
ATOM      5  N   UNL     1     -15.233   0.220  28.844  0.00  0.00    -0.263 NA
ATOM     16  C   UNL     1     -14.902   1.030  31.499  0.00  0.00    -0.031 A 
ATOM     18  C   UNL     1     -15.816   1.683  30.680  0.00  0.00    +0.024 A 
ATOM     19  C   UNL     1     -14.154  -0.027  30.993  0.00  0.00    +0.024 A 
ATOM     21  C   UNL     1     -15.943   1.244  29.372  0.00  0.00    +0.111 A 
ATOM     22  C   UNL     1     -14.355  -0.390  29.671  0.00  0.00    +0.111 A 
ENDBRANCH  14  16
ENDBRANCH   3  14
ENDBRANCH   8   3
BRANCH   7  10
ATOM     10  C   UNL     1     -14.782   7.122  32.425  0.00  0.00    +0.063 C 
BRANCH  10  13
ATOM      1  O   UNL     1     -13.054  10.055  31.344  0.00  0.00    -0.354 OA
ATOM      4  N   UNL     1     -14.148   9.198  31.329  0.00  0.00    -0.083 NA
ATOM     13  C   UNL     1     -13.834   8.222  32.187  0.00  0.00    +0.084 A 
ATOM     15  C   UNL     1     -12.567   8.408  32.766  0.00  0.00    +0.076 A 
ATOM     17  C   UNL     1     -12.119   9.574  32.203  0.00  0.00    +0.167 A 
BRANCH  17  20
ATOM     20  C   UNL     1     -10.917  10.363  32.327  0.00  0.00    +0.020 A 
ATOM     23  C   UNL     1      -9.966  10.036  33.294  0.00  0.00    +0.015 A 
ATOM     24  C   UNL     1     -10.707  11.450  31.480  0.00  0.00    +0.015 A 
ATOM     25  C   UNL     1      -8.804  10.798  33.414  0.00  0.00    +0.046 A 
ATOM     26  C   UNL     1      -9.545  12.212  31.600  0.00  0.00    +0.046 A 
ATOM     27  C   UNL     1      -8.594  11.886  32.567  0.00  0.00    +0.120 A 
BRANCH  27   2
ATOM      2  O   UNL     1      -7.459  12.628  32.682  0.00  0.00    -0.495 OA
ATOM     28  C   UNL     1      -6.518  12.545  31.611  0.00  0.00    +0.277 C 
ENDBRANCH  27   2
ENDBRANCH  17  20
ENDBRANCH  10  13
ENDBRANCH   7  10
TORSDOF 7
ENDMDL
MODEL 9
REMARK VINA RESULT:      -6.2     28.113     31.257
REMARK  Name = 56774195
REMARK  10 active torsions:
REMARK  status: ('A' for Active; 'I' for Inactive)
REMARK    1  A    between atoms: O_2  and  C_27
REMARK    2  A    between atoms: O_2  and  C_28
REMARK    3  A    between atoms: N_3  and  C_8
REMARK    4  A    between atoms: N_3  and  C_14
REMARK    5  A    between atoms: C_6  and  C_11
REMARK    6  A    between atoms: C_6  and  C_12
REMARK    7  A    between atoms: C_7  and  C_10
REMARK    8  A    between atoms: C_10  and  C_13
REMARK    9  A    between atoms: C_14  and  C_16
REMARK   10  A    between atoms: C_17  and  C_20
REMARK                            x       y       z     vdW  Elec       q    Type
REMARK                         _______ _______ _______ _____ _____    ______ ____
ROOT
ATOM      6  C   UNL     1      -4.035 -10.664  11.938  0.00  0.00    -0.016 C 
ATOM      7  C   UNL     1      -3.579  -9.667  10.852  0.00  0.00    +0.004 C 
ATOM      8  C   UNL     1      -2.716 -10.349  12.673  0.00  0.00    +0.060 C 
ATOM      9  C   UNL     1      -2.132  -9.961  11.299  0.00  0.00    +0.023 C 
ATOM     11  C   UNL     1      -5.253 -10.248  12.744  0.00  0.00    +0.013 C 
ATOM     12  C   UNL     1      -4.234 -12.076  11.428  0.00  0.00    +0.013 C 
ENDROOT
BRANCH   8   3
ATOM      3  N   UNL     1      -2.062 -11.572  13.138  0.00  0.00    -0.309 NA
ATOM     29  H   UNL     1      -1.184 -11.768  12.656  0.00  0.00    +0.123 HD
BRANCH   3  14
ATOM     14  C   UNL     1      -1.787 -11.465  14.567  0.00  0.00    +0.116 C 
BRANCH  14  16
ATOM      5  N   UNL     1      -5.371 -11.824  16.919  0.00  0.00    -0.263 NA
ATOM     16  C   UNL     1      -3.042 -11.590  15.390  0.00  0.00    -0.031 A 
ATOM     18  C   UNL     1      -3.370 -10.607  16.316  0.00  0.00    +0.024 A 
ATOM     19  C   UNL     1      -3.877 -12.690  15.227  0.00  0.00    +0.024 A 
ATOM     21  C   UNL     1      -4.534 -10.769  17.049  0.00  0.00    +0.111 A 
ATOM     22  C   UNL     1      -5.018 -12.760  16.009  0.00  0.00    +0.111 A 
ENDBRANCH  14  16
ENDBRANCH   3  14
ENDBRANCH   8   3
BRANCH   7  10
ATOM     10  C   UNL     1      -3.886 -10.034   9.393  0.00  0.00    +0.063 C 
BRANCH  10  13
ATOM      1  O   UNL     1      -6.985  -9.262   7.794  0.00  0.00    -0.354 OA
ATOM      4  N   UNL     1      -5.816 -10.004   7.914  0.00  0.00    -0.083 NA
ATOM     13  C   UNL     1      -5.182  -9.482   8.969  0.00  0.00    +0.084 A 
ATOM     15  C   UNL     1      -5.896  -8.418   9.548  0.00  0.00    +0.076 A 
ATOM     17  C   UNL     1      -7.022  -8.321   8.772  0.00  0.00    +0.167 A 
BRANCH  17  20
ATOM     20  C   UNL     1      -8.185  -7.468   8.777  0.00  0.00    +0.020 A 
ATOM     23  C   UNL     1      -9.403  -7.954   9.254  0.00  0.00    +0.015 A 
ATOM     24  C   UNL     1      -8.092  -6.159   8.308  0.00  0.00    +0.015 A 
ATOM     25  C   UNL     1     -10.528  -7.129   9.260  0.00  0.00    +0.046 A 
ATOM     26  C   UNL     1      -9.217  -5.334   8.313  0.00  0.00    +0.046 A 
ATOM     27  C   UNL     1     -10.435  -5.820   8.789  0.00  0.00    +0.120 A 
BRANCH  27   2
ATOM      2  O   UNL     1     -11.532  -5.015   8.798  0.00  0.00    -0.495 OA
ATOM     28  C   UNL     1     -11.560  -3.966   9.767  0.00  0.00    +0.277 C 
ENDBRANCH  27   2
ENDBRANCH  17  20
ENDBRANCH  10  13
ENDBRANCH   7  10
TORSDOF 7
ENDMDL
MODEL 10
REMARK VINA RESULT:      -6.1     27.619     31.326
REMARK  Name = 56774195
REMARK  10 active torsions:
REMARK  status: ('A' for Active; 'I' for Inactive)
REMARK    1  A    between atoms: O_2  and  C_27
REMARK    2  A    between atoms: O_2  and  C_28
REMARK    3  A    between atoms: N_3  and  C_8
REMARK    4  A    between atoms: N_3  and  C_14
REMARK    5  A    between atoms: C_6  and  C_11
REMARK    6  A    between atoms: C_6  and  C_12
REMARK    7  A    between atoms: C_7  and  C_10
REMARK    8  A    between atoms: C_10  and  C_13
REMARK    9  A    between atoms: C_14  and  C_16
REMARK   10  A    between atoms: C_17  and  C_20
REMARK                            x       y       z     vdW  Elec       q    Type
REMARK                         _______ _______ _______ _____ _____    ______ ____
ROOT
ATOM      6  C   UNL     1      -4.138 -11.421  15.009  0.00  0.00    -0.016 C 
ATOM      7  C   UNL     1      -3.699 -11.215  16.474  0.00  0.00    +0.004 C 
ATOM      8  C   UNL     1      -2.639 -11.468  14.647  0.00  0.00    +0.060 C 
ATOM      9  C   UNL     1      -2.383 -10.631  15.917  0.00  0.00    +0.023 C 
ATOM     11  C   UNL     1      -4.841 -12.733  14.711  0.00  0.00    +0.013 C 
ATOM     12  C   UNL     1      -4.958 -10.278  14.449  0.00  0.00    +0.013 C 
ENDROOT
BRANCH   8   3
ATOM      3  N   UNL     1      -2.350 -10.648  13.471  0.00  0.00    -0.309 NA
ATOM     29  H   UNL     1      -1.533 -10.048  13.589  0.00  0.00    +0.123 HD
BRANCH   3  14
ATOM     14  C   UNL     1      -2.124 -11.511  12.317  0.00  0.00    +0.116 C 
BRANCH  14  16
ATOM      5  N   UNL     1      -4.408 -10.248   8.898  0.00  0.00    -0.263 NA
ATOM     16  C   UNL     1      -2.925 -11.069  11.121  0.00  0.00    -0.031 A 
ATOM     18  C   UNL     1      -3.642 -12.000  10.379  0.00  0.00    +0.024 A 
ATOM     19  C   UNL     1      -2.948  -9.728  10.754  0.00  0.00    +0.024 A 
ATOM     21  C   UNL     1      -4.361 -11.543   9.286  0.00  0.00    +0.111 A 
ATOM     22  C   UNL     1      -3.698  -9.372   9.644  0.00  0.00    +0.111 A 
ENDBRANCH  14  16
ENDBRANCH   3  14
ENDBRANCH   8   3
BRANCH   7  10
ATOM     10  C   UNL     1      -4.525 -10.237  17.320  0.00  0.00    +0.063 C 
BRANCH  10  13
ATOM      1  O   UNL     1      -6.509 -12.474  19.274  0.00  0.00    -0.354 OA
ATOM      4  N   UNL     1      -5.308 -12.088  18.688  0.00  0.00    -0.083 NA
ATOM     13  C   UNL     1      -5.584 -10.940  18.061  0.00  0.00    +0.084 A 
ATOM     15  C   UNL     1      -6.928 -10.558  18.214  0.00  0.00    +0.076 A 
ATOM     17  C   UNL     1      -7.465 -11.556  18.984  0.00  0.00    +0.167 A 
BRANCH  17  20
ATOM     20  C   UNL     1      -8.774 -11.821  19.530  0.00  0.00    +0.020 A 
ATOM     23  C   UNL     1      -9.073 -13.084  20.042  0.00  0.00    +0.015 A 
ATOM     24  C   UNL     1      -9.740 -10.815  19.546  0.00  0.00    +0.015 A 
ATOM     25  C   UNL     1     -10.338 -13.340  20.570  0.00  0.00    +0.046 A 
ATOM     26  C   UNL     1     -11.005 -11.072  20.074  0.00  0.00    +0.046 A 
ATOM     27  C   UNL     1     -11.304 -12.334  20.585  0.00  0.00    +0.120 A 
BRANCH  27   2
ATOM      2  O   UNL     1     -12.537 -12.584  21.104  0.00  0.00    -0.495 OA
ATOM     28  C   UNL     1     -13.405 -11.465  21.284  0.00  0.00    +0.277 C 
ENDBRANCH  27   2
ENDBRANCH  17  20
ENDBRANCH  10  13
ENDBRANCH   7  10
TORSDOF 7
ENDMDL
