REMARK  Name = 56774592
REMARK  7 active torsions:
REMARK  status: ('A' for Active; 'I' for Inactive)
REMARK    1  A    between atoms: O_2  and  C_8
REMARK    2  A    between atoms: N_5  and  C_10
REMARK    3  A    between atoms: N_6  and  C_21
REMARK    4  A    between atoms: C_7  and  C_8
REMARK    5  A    between atoms: C_8  and  C_12
REMARK    6  A    between atoms: C_10  and  C_14
REMARK    7  A    between atoms: C_25  and  C_26
REMARK                            x       y       z     vdW  Elec       q    Type
REMARK                         _______ _______ _______ _____ _____    ______ ____
ROOT
ATOM      8  C   UNL     1      -1.475  -1.245   1.014  0.00  0.00    +0.167 C 
ENDROOT
BRANCH   8   7
ATOM      1  O   UNL     1      -2.316  -2.570  -1.466  0.00  0.00    -0.369 OA
ATOM      3  O   UNL     1      -5.587  -2.233   0.026  0.00  0.00    -0.273 OA
ATOM      5  N   UNL     1      -3.753  -0.808   0.175  0.00  0.00    -0.287 N 
ATOM      7  C   UNL     1      -2.323  -0.613  -0.093  0.00  0.00    +0.135 C 
ATOM      9  C   UNL     1      -1.964  -1.191  -1.457  0.00  0.00    +0.185 C 
ATOM     11  C   UNL     1      -4.441  -1.922  -0.302  0.00  0.00    +0.242 C 
ATOM     13  C   UNL     1      -3.712  -2.736  -1.366  0.00  0.00    +0.255 C 
BRANCH   5  10
ATOM     10  C   UNL     1      -4.393   0.106   1.111  0.00  0.00    +0.143 C 
BRANCH  10  14
ATOM     14  C   UNL     1      -5.162   1.185   0.407  0.00  0.00    -0.030 A 
ATOM     19  C   UNL     1      -4.534   2.385   0.072  0.00  0.00    +0.005 A 
ATOM     20  C   UNL     1      -6.505   0.988   0.087  0.00  0.00    +0.005 A 
ATOM     22  C   UNL     1      -5.249   3.388  -0.583  0.00  0.00    +0.000 A 
ATOM     23  C   UNL     1      -7.221   1.991  -0.568  0.00  0.00    +0.000 A 
ATOM     24  C   UNL     1      -6.593   3.191  -0.903  0.00  0.00    +0.000 A 
ENDBRANCH  10  14
ENDBRANCH   5  10
ENDBRANCH   8   7
BRANCH   8  12
ATOM     12  C   UNL     1      -0.001  -1.028   0.784  0.00  0.00    -0.017 A 
ATOM     15  C   UNL     1       0.507   0.268   0.690  0.00  0.00    +0.008 A 
ATOM     16  C   UNL     1       0.855  -2.123   0.665  0.00  0.00    +0.008 A 
ATOM     17  C   UNL     1       1.871   0.469   0.478  0.00  0.00    +0.023 A 
ATOM     18  C   UNL     1       2.219  -1.922   0.453  0.00  0.00    +0.023 A 
ATOM     21  C   UNL     1       2.727  -0.626   0.359  0.00  0.00    +0.034 A 
BRANCH  21   6
ATOM      4  O   UNL     1       4.291   1.917   0.087  0.00  0.00    -0.270 OA
ATOM      6  N   UNL     1       4.091  -0.425   0.146  0.00  0.00    -0.282 N 
ATOM     25  C   UNL     1       4.775   0.792   0.026  0.00  0.00    +0.248 C 
ATOM     33  H   UNL     1       4.632  -1.284   0.120  0.00  0.00    +0.155 HD
BRANCH  25  26
ATOM     26  C   UNL     1       6.244   0.681  -0.169  0.00  0.00    +0.037 A 
ATOM     27  C   UNL     1       7.084   1.713   0.248  0.00  0.00    +0.013 A 
ATOM     28  C   UNL     1       6.783  -0.457  -0.770  0.00  0.00    +0.013 A 
ATOM     29  C   UNL     1       8.463   1.607   0.066  0.00  0.00    +0.001 A 
ATOM     30  C   UNL     1       8.162  -0.563  -0.952  0.00  0.00    +0.001 A 
ATOM     31  C   UNL     1       9.002   0.469  -0.534  0.00  0.00    +0.000 A 
ENDBRANCH  25  26
ENDBRANCH  21   6
ENDBRANCH   8  12
BRANCH   8   2
ATOM      2  O   UNL     1      -1.847  -0.687   2.269  0.00  0.00    -0.385 OA
ATOM     32  H   UNL     1      -1.516   0.225   2.325  0.00  0.00    +0.210 HD
ENDBRANCH   8   2
TORSDOF 7
