MODEL 1
REMARK VINA RESULT:      -6.9      0.000      0.000
REMARK  Name = 51137958
REMARK  7 active torsions:
REMARK  status: ('A' for Active; 'I' for Inactive)
REMARK    1  A    between atoms: N_5  and  C_22
REMARK    2  A    between atoms: C_6  and  C_8
REMARK    3  A    between atoms: C_7  and  C_17
REMARK    4  A    between atoms: C_8  and  C_13
REMARK    5  A    between atoms: C_13  and  C_18
REMARK    6  A    between atoms: C_13  and  C_19
REMARK    7  A    between atoms: C_22  and  C_23
REMARK                            x       y       z     vdW  Elec       q    Type
REMARK                         _______ _______ _______ _____ _____    ______ ____
ROOT
ATOM      3  N   UNL     1      -4.772 -10.633  14.863  0.00  0.00    -0.299 NA
ATOM      4  N   UNL     1      -4.944 -11.847  19.763  0.00  0.00    -0.360 N 
ATOM      6  C   UNL     1      -5.932  -9.916  15.410  0.00  0.00    +0.085 C 
ATOM      7  C   UNL     1      -3.511 -10.353  15.536  0.00  0.00    +0.145 C 
ATOM      9  C   UNL     1      -6.313 -10.262  16.853  0.00  0.00    -0.021 A 
ATOM     10  C   UNL     1      -5.471 -10.934  17.786  0.00  0.00    +0.008 A 
ATOM     11  C   UNL     1      -3.182 -11.420  16.579  0.00  0.00    +0.065 C 
ATOM     12  C   UNL     1      -4.131 -11.452  17.730  0.00  0.00    -0.020 A 
ATOM     14  C   UNL     1      -5.937 -11.179  19.083  0.00  0.00    +0.047 A 
ATOM     15  C   UNL     1      -7.568  -9.824  17.347  0.00  0.00    +0.006 A 
ATOM     16  C   UNL     1      -3.854 -12.011  18.961  0.00  0.00    +0.087 A 
ATOM     20  C   UNL     1      -7.195 -10.780  19.536  0.00  0.00    +0.026 A 
ATOM     21  C   UNL     1      -8.001 -10.083  18.646  0.00  0.00    +0.002 A 
ATOM     29  H   UNL     1      -4.951 -11.635  14.819  0.00  0.00    +0.123 HD
ATOM     30  H   UNL     1      -5.010 -12.155  20.723  0.00  0.00    +0.165 HD
ENDROOT
BRANCH   7  17
ATOM      2  O   UNL     1      -1.297 -10.116  14.676  0.00  0.00    -0.274 OA
ATOM      5  N   UNL     1      -3.012 -10.727  13.225  0.00  0.00    -0.310 N 
ATOM     17  C   UNL     1      -2.474 -10.387  14.455  0.00  0.00    +0.231 C 
ATOM     31  H   UNL     1      -3.999 -10.957  13.157  0.00  0.00    +0.149 HD
BRANCH   5  22
ATOM     22  C   UNL     1      -2.226 -10.808  12.014  0.00  0.00    +0.139 C 
BRANCH  22  23
ATOM      1  F   UNL     1      -5.306  -9.732   7.424  0.00  0.00    -0.205 F 
ATOM     23  C   UNL     1      -3.048 -10.521  10.790  0.00  0.00    -0.030 A 
ATOM     24  C   UNL     1      -3.177  -9.211  10.328  0.00  0.00    +0.008 A 
ATOM     25  C   UNL     1      -3.682 -11.565  10.115  0.00  0.00    +0.008 A 
ATOM     26  C   UNL     1      -3.940  -8.945   9.191  0.00  0.00    +0.038 A 
ATOM     27  C   UNL     1      -4.445 -11.297   8.978  0.00  0.00    +0.038 A 
ATOM     28  C   UNL     1      -4.573  -9.988   8.516  0.00  0.00    +0.123 A 
ENDBRANCH  22  23
ENDBRANCH   5  22
ENDBRANCH   7  17
BRANCH   6   8
ATOM      8  C   UNL     1      -7.070 -10.199  14.415  0.00  0.00    +0.026 C 
BRANCH   8  13
ATOM     13  C   UNL     1      -6.571 -10.447  12.988  0.00  0.00    -0.015 C 
ATOM     18  C   UNL     1      -6.646  -9.142  12.193  0.00  0.00    +0.007 C 
ATOM     19  C   UNL     1      -7.364 -11.538  12.267  0.00  0.00    +0.007 C 
ENDBRANCH   8  13
ENDBRANCH   6   8
TORSDOF 5
ENDMDL
MODEL 2
REMARK VINA RESULT:      -6.7     20.354     23.160
REMARK  Name = 51137958
REMARK  7 active torsions:
REMARK  status: ('A' for Active; 'I' for Inactive)
REMARK    1  A    between atoms: N_5  and  C_22
REMARK    2  A    between atoms: C_6  and  C_8
REMARK    3  A    between atoms: C_7  and  C_17
REMARK    4  A    between atoms: C_8  and  C_13
REMARK    5  A    between atoms: C_13  and  C_18
REMARK    6  A    between atoms: C_13  and  C_19
REMARK    7  A    between atoms: C_22  and  C_23
REMARK                            x       y       z     vdW  Elec       q    Type
REMARK                         _______ _______ _______ _____ _____    ______ ____
ROOT
ATOM      3  N   UNL     1     -15.153   2.716  28.879  0.00  0.00    -0.299 NA
ATOM      4  N   UNL     1     -16.056   6.501  32.099  0.00  0.00    -0.360 N 
ATOM      6  C   UNL     1     -14.991   2.143  30.223  0.00  0.00    +0.085 C 
ATOM      7  C   UNL     1     -16.447   3.338  28.636  0.00  0.00    +0.145 C 
ATOM      9  C   UNL     1     -15.034   3.140  31.385  0.00  0.00    -0.021 A 
ATOM     10  C   UNL     1     -15.541   4.470  31.308  0.00  0.00    +0.008 A 
ATOM     11  C   UNL     1     -16.391   4.850  28.845  0.00  0.00    +0.065 C 
ATOM     12  C   UNL     1     -16.130   5.255  30.257  0.00  0.00    -0.020 A 
ATOM     14  C   UNL     1     -15.535   5.277  32.451  0.00  0.00    +0.047 A 
ATOM     15  C   UNL     1     -14.614   2.705  32.668  0.00  0.00    +0.006 A 
ATOM     16  C   UNL     1     -16.422   6.496  30.786  0.00  0.00    +0.087 A 
ATOM     20  C   UNL     1     -15.073   4.846  33.695  0.00  0.00    +0.026 A 
ATOM     21  C   UNL     1     -14.624   3.535  33.787  0.00  0.00    +0.002 A 
ATOM     29  H   UNL     1     -14.390   3.355  28.662  0.00  0.00    +0.123 HD
ATOM     30  H   UNL     1     -16.168   7.282  32.730  0.00  0.00    +0.165 HD
ENDROOT
BRANCH   7  17
ATOM      2  O   UNL     1     -17.796   2.502  26.853  0.00  0.00    -0.274 OA
ATOM      5  N   UNL     1     -15.732   3.455  26.354  0.00  0.00    -0.310 N 
ATOM     17  C   UNL     1     -16.754   3.053  27.197  0.00  0.00    +0.231 C 
ATOM     31  H   UNL     1     -14.920   3.926  26.743  0.00  0.00    +0.149 HD
BRANCH   5  22
ATOM     22  C   UNL     1     -15.772   3.273  24.921  0.00  0.00    +0.139 C 
BRANCH  22  23
ATOM      1  F   UNL     1     -15.285   8.156  22.160  0.00  0.00    -0.205 F 
ATOM     23  C   UNL     1     -15.642   4.575  24.184  0.00  0.00    -0.030 A 
ATOM     24  C   UNL     1     -16.670   5.516  24.245  0.00  0.00    +0.008 A 
ATOM     25  C   UNL     1     -14.493   4.844  23.439  0.00  0.00    +0.008 A 
ATOM     26  C   UNL     1     -16.549   6.726  23.561  0.00  0.00    +0.038 A 
ATOM     27  C   UNL     1     -14.373   6.054  22.755  0.00  0.00    +0.038 A 
ATOM     28  C   UNL     1     -15.401   6.995  22.817  0.00  0.00    +0.123 A 
ENDBRANCH  22  23
ENDBRANCH   5  22
ENDBRANCH   7  17
BRANCH   6   8
ATOM      8  C   UNL     1     -13.663   1.369  30.159  0.00  0.00    +0.026 C 
BRANCH   8  13
ATOM     13  C   UNL     1     -13.823  -0.121  30.477  0.00  0.00    -0.015 C 
ATOM     18  C   UNL     1     -13.370  -0.947  29.272  0.00  0.00    +0.007 C 
ATOM     19  C   UNL     1     -15.259  -0.494  30.849  0.00  0.00    +0.007 C 
ENDBRANCH   8  13
ENDBRANCH   6   8
TORSDOF 5
ENDMDL
MODEL 3
REMARK VINA RESULT:      -6.7     27.202     28.904
REMARK  Name = 51137958
REMARK  7 active torsions:
REMARK  status: ('A' for Active; 'I' for Inactive)
REMARK    1  A    between atoms: N_5  and  C_22
REMARK    2  A    between atoms: C_6  and  C_8
REMARK    3  A    between atoms: C_7  and  C_17
REMARK    4  A    between atoms: C_8  and  C_13
REMARK    5  A    between atoms: C_13  and  C_18
REMARK    6  A    between atoms: C_13  and  C_19
REMARK    7  A    between atoms: C_22  and  C_23
REMARK                            x       y       z     vdW  Elec       q    Type
REMARK                         _______ _______ _______ _____ _____    ______ ____
ROOT
ATOM      3  N   UNL     1      14.954   8.714  19.959  0.00  0.00    -0.299 NA
ATOM      4  N   UNL     1      10.485   7.550  22.005  0.00  0.00    -0.360 N 
ATOM      6  C   UNL     1      14.704   9.740  20.980  0.00  0.00    +0.085 C 
ATOM      7  C   UNL     1      14.924   7.344  20.454  0.00  0.00    +0.145 C 
ATOM      9  C   UNL     1      13.315   9.717  21.627  0.00  0.00    -0.021 A 
ATOM     10  C   UNL     1      12.404   8.622  21.576  0.00  0.00    +0.008 A 
ATOM     11  C   UNL     1      13.564   6.690  20.214  0.00  0.00    +0.065 C 
ATOM     12  C   UNL     1      12.452   7.309  20.992  0.00  0.00    -0.020 A 
ATOM     14  C   UNL     1      11.167   8.724  22.222  0.00  0.00    +0.047 A 
ATOM     15  C   UNL     1      12.911  10.831  22.406  0.00  0.00    +0.006 A 
ATOM     16  C   UNL     1      11.249   6.691  21.272  0.00  0.00    +0.087 A 
ATOM     20  C   UNL     1      10.769   9.849  22.947  0.00  0.00    +0.026 A 
ATOM     21  C   UNL     1      11.672  10.900  23.039  0.00  0.00    +0.002 A 
ATOM     29  H   UNL     1      14.328   8.832  19.164  0.00  0.00    +0.123 HD
ATOM     30  H   UNL     1       9.559   7.348  22.354  0.00  0.00    +0.165 HD
ENDROOT
BRANCH   7  17
ATOM      2  O   UNL     1      15.729   6.168  18.540  0.00  0.00    -0.274 OA
ATOM      5  N   UNL     1      17.164   6.508  20.341  0.00  0.00    -0.310 N 
ATOM     17  C   UNL     1      15.965   6.618  19.658  0.00  0.00    +0.231 C 
ATOM     31  H   UNL     1      17.260   6.940  21.256  0.00  0.00    +0.149 HD
BRANCH   5  22
ATOM     22  C   UNL     1      18.322   5.831  19.801  0.00  0.00    +0.139 C 
BRANCH  22  23
ATOM      1  F   UNL     1      22.622   5.785  23.438  0.00  0.00    -0.205 F 
ATOM     23  C   UNL     1      19.469   5.819  20.771  0.00  0.00    -0.030 A 
ATOM     24  C   UNL     1      20.555   4.971  20.556  0.00  0.00    +0.008 A 
ATOM     25  C   UNL     1      19.448   6.656  21.888  0.00  0.00    +0.008 A 
ATOM     26  C   UNL     1      21.620   4.960  21.457  0.00  0.00    +0.038 A 
ATOM     27  C   UNL     1      20.513   6.644  22.788  0.00  0.00    +0.038 A 
ATOM     28  C   UNL     1      21.599   5.796  22.572  0.00  0.00    +0.123 A 
ENDBRANCH  22  23
ENDBRANCH   5  22
ENDBRANCH   7  17
BRANCH   6   8
ATOM      8  C   UNL     1      15.004  11.074  20.273  0.00  0.00    +0.026 C 
BRANCH   8  13
ATOM     13  C   UNL     1      14.191  11.267  18.990  0.00  0.00    -0.015 C 
ATOM     18  C   UNL     1      15.146  11.455  17.810  0.00  0.00    +0.007 C 
ATOM     19  C   UNL     1      13.232  12.456  19.073  0.00  0.00    +0.007 C 
ENDBRANCH   8  13
ENDBRANCH   6   8
TORSDOF 5
ENDMDL
MODEL 4
REMARK VINA RESULT:      -6.7     21.635     24.283
REMARK  Name = 51137958
REMARK  7 active torsions:
REMARK  status: ('A' for Active; 'I' for Inactive)
REMARK    1  A    between atoms: N_5  and  C_22
REMARK    2  A    between atoms: C_6  and  C_8
REMARK    3  A    between atoms: C_7  and  C_17
REMARK    4  A    between atoms: C_8  and  C_13
REMARK    5  A    between atoms: C_13  and  C_18
REMARK    6  A    between atoms: C_13  and  C_19
REMARK    7  A    between atoms: C_22  and  C_23
REMARK                            x       y       z     vdW  Elec       q    Type
REMARK                         _______ _______ _______ _____ _____    ______ ____
ROOT
ATOM      3  N   UNL     1     -13.273   9.478  21.326  0.00  0.00    -0.299 NA
ATOM      4  N   UNL     1     -10.490  11.119  17.444  0.00  0.00    -0.360 N 
ATOM      6  C   UNL     1     -12.622   8.284  20.770  0.00  0.00    +0.085 C 
ATOM      7  C   UNL     1     -12.359  10.539  21.725  0.00  0.00    +0.145 C 
ATOM      9  C   UNL     1     -11.857   8.488  19.458  0.00  0.00    -0.021 A 
ATOM     10  C   UNL     1     -11.450   9.748  18.933  0.00  0.00    +0.008 A 
ATOM     11  C   UNL     1     -12.224  11.602  20.635  0.00  0.00    +0.065 C 
ATOM     12  C   UNL     1     -11.576  11.107  19.386  0.00  0.00    -0.020 A 
ATOM     14  C   UNL     1     -10.743   9.796  17.727  0.00  0.00    +0.047 A 
ATOM     15  C   UNL     1     -11.445   7.344  18.729  0.00  0.00    +0.006 A 
ATOM     16  C   UNL     1     -10.981  11.914  18.437  0.00  0.00    +0.087 A 
ATOM     20  C   UNL     1     -10.386   8.660  16.999  0.00  0.00    +0.026 A 
ATOM     21  C   UNL     1     -10.739   7.427  17.531  0.00  0.00    +0.002 A 
ATOM     29  H   UNL     1     -13.991   9.828  20.694  0.00  0.00    +0.123 HD
ATOM     30  H   UNL     1      -9.996  11.449  16.627  0.00  0.00    +0.165 HD
ENDROOT
BRANCH   7  17
ATOM      2  O   UNL     1     -14.184  11.062  23.171  0.00  0.00    -0.274 OA
ATOM      5  N   UNL     1     -12.058  11.840  23.712  0.00  0.00    -0.310 N 
ATOM     17  C   UNL     1     -12.982  11.157  22.939  0.00  0.00    +0.231 C 
ATOM     31  H   UNL     1     -11.079  11.834  23.440  0.00  0.00    +0.149 HD
BRANCH   5  22
ATOM     22  C   UNL     1     -12.408  12.544  24.924  0.00  0.00    +0.139 C 
BRANCH  22  23
ATOM      1  F   UNL     1     -11.302   9.494  29.527  0.00  0.00    -0.205 F 
ATOM     23  C   UNL     1     -12.113  11.730  26.152  0.00  0.00    -0.030 A 
ATOM     24  C   UNL     1     -11.221  10.660  26.082  0.00  0.00    +0.008 A 
ATOM     25  C   UNL     1     -12.731  12.045  27.363  0.00  0.00    +0.008 A 
ATOM     26  C   UNL     1     -10.947   9.905  27.222  0.00  0.00    +0.038 A 
ATOM     27  C   UNL     1     -12.457  11.289  28.503  0.00  0.00    +0.038 A 
ATOM     28  C   UNL     1     -11.565  10.219  28.432  0.00  0.00    +0.123 A 
ENDBRANCH  22  23
ENDBRANCH   5  22
ENDBRANCH   7  17
BRANCH   6   8
ATOM      8  C   UNL     1     -13.753   7.249  20.639  0.00  0.00    +0.026 C 
BRANCH   8  13
ATOM     13  C   UNL     1     -13.808   6.269  21.816  0.00  0.00    -0.015 C 
ATOM     18  C   UNL     1     -12.503   5.472  21.871  0.00  0.00    +0.007 C 
ATOM     19  C   UNL     1     -14.996   5.310  21.730  0.00  0.00    +0.007 C 
ENDBRANCH   8  13
ENDBRANCH   6   8
TORSDOF 5
ENDMDL
MODEL 5
REMARK VINA RESULT:      -6.6      3.533      6.596
REMARK  Name = 51137958
REMARK  7 active torsions:
REMARK  status: ('A' for Active; 'I' for Inactive)
REMARK    1  A    between atoms: N_5  and  C_22
REMARK    2  A    between atoms: C_6  and  C_8
REMARK    3  A    between atoms: C_7  and  C_17
REMARK    4  A    between atoms: C_8  and  C_13
REMARK    5  A    between atoms: C_13  and  C_18
REMARK    6  A    between atoms: C_13  and  C_19
REMARK    7  A    between atoms: C_22  and  C_23
REMARK                            x       y       z     vdW  Elec       q    Type
REMARK                         _______ _______ _______ _____ _____    ______ ____
ROOT
ATOM      3  N   UNL     1      -6.153  -9.497  14.924  0.00  0.00    -0.299 NA
ATOM      4  N   UNL     1      -1.495 -11.406  15.340  0.00  0.00    -0.360 N 
ATOM      6  C   UNL     1      -5.916 -10.242  13.680  0.00  0.00    +0.085 C 
ATOM      7  C   UNL     1      -5.995 -10.281  16.142  0.00  0.00    +0.145 C 
ATOM      9  C   UNL     1      -4.492 -10.771  13.478  0.00  0.00    -0.021 A 
ATOM     10  C   UNL     1      -3.509 -10.896  14.502  0.00  0.00    +0.008 A 
ATOM     11  C   UNL     1      -4.609 -10.091  16.755  0.00  0.00    +0.065 C 
ATOM     12  C   UNL     1      -3.498 -10.624  15.914  0.00  0.00    -0.020 A 
ATOM     14  C   UNL     1      -2.246 -11.408  14.187  0.00  0.00    +0.047 A 
ATOM     15  C   UNL     1      -4.122 -11.250  12.195  0.00  0.00    +0.006 A 
ATOM     16  C   UNL     1      -2.240 -10.943  16.384  0.00  0.00    +0.087 A 
ATOM     20  C   UNL     1      -1.886 -11.831  12.907  0.00  0.00    +0.026 A 
ATOM     21  C   UNL     1      -2.855 -11.756  11.915  0.00  0.00    +0.002 A 
ATOM     29  H   UNL     1      -5.587  -8.651  14.955  0.00  0.00    +0.123 HD
ATOM     30  H   UNL     1      -0.538 -11.721  15.405  0.00  0.00    +0.165 HD
ENDROOT
BRANCH   7  17
ATOM      2  O   UNL     1      -6.997  -9.998  18.289  0.00  0.00    -0.274 OA
ATOM      5  N   UNL     1      -7.990  -8.992  16.440  0.00  0.00    -0.310 N 
ATOM     17  C   UNL     1      -7.028  -9.748  17.087  0.00  0.00    +0.231 C 
ATOM     31  H   UNL     1      -7.906  -8.826  15.441  0.00  0.00    +0.149 HD
BRANCH   5  22
ATOM     22  C   UNL     1      -9.109  -8.383  17.123  0.00  0.00    +0.139 C 
BRANCH  22  23
ATOM      1  F   UNL     1     -13.035  -6.553  13.525  0.00  0.00    -0.205 F 
ATOM     23  C   UNL     1     -10.156  -7.895  16.163  0.00  0.00    -0.030 A 
ATOM     24  C   UNL     1     -10.411  -8.604  14.990  0.00  0.00    +0.008 A 
ATOM     25  C   UNL     1     -10.873  -6.732  16.446  0.00  0.00    +0.008 A 
ATOM     26  C   UNL     1     -11.384  -8.150  14.099  0.00  0.00    +0.038 A 
ATOM     27  C   UNL     1     -11.846  -6.279  15.554  0.00  0.00    +0.038 A 
ATOM     28  C   UNL     1     -12.101  -6.989  14.381  0.00  0.00    +0.123 A 
ENDBRANCH  22  23
ENDBRANCH   5  22
ENDBRANCH   7  17
BRANCH   6   8
ATOM      8  C   UNL     1      -6.353  -9.281  12.561  0.00  0.00    +0.026 C 
BRANCH   8  13
ATOM     13  C   UNL     1      -7.771  -9.560  12.053  0.00  0.00    -0.015 C 
ATOM     18  C   UNL     1      -8.115 -11.031  12.295  0.00  0.00    +0.007 C 
ATOM     19  C   UNL     1      -7.942  -9.227  10.569  0.00  0.00    +0.007 C 
ENDBRANCH   8  13
ENDBRANCH   6   8
TORSDOF 5
ENDMDL
MODEL 6
REMARK VINA RESULT:      -6.5     24.733     27.894
REMARK  Name = 51137958
REMARK  7 active torsions:
REMARK  status: ('A' for Active; 'I' for Inactive)
REMARK    1  A    between atoms: N_5  and  C_22
REMARK    2  A    between atoms: C_6  and  C_8
REMARK    3  A    between atoms: C_7  and  C_17
REMARK    4  A    between atoms: C_8  and  C_13
REMARK    5  A    between atoms: C_13  and  C_18
REMARK    6  A    between atoms: C_13  and  C_19
REMARK    7  A    between atoms: C_22  and  C_23
REMARK                            x       y       z     vdW  Elec       q    Type
REMARK                         _______ _______ _______ _____ _____    ______ ____
ROOT
ATOM      3  N   UNL     1      16.772  -7.787  -2.768  0.00  0.00    -0.299 NA
ATOM      4  N   UNL     1      19.390  -3.955  -0.774  0.00  0.00    -0.360 N 
ATOM      6  C   UNL     1      16.440  -6.611  -3.584  0.00  0.00    +0.085 C 
ATOM      7  C   UNL     1      18.194  -8.088  -2.684  0.00  0.00    +0.145 C 
ATOM      9  C   UNL     1      16.970  -5.268  -3.070  0.00  0.00    -0.021 A 
ATOM     10  C   UNL     1      18.002  -5.110  -2.100  0.00  0.00    +0.008 A 
ATOM     11  C   UNL     1      18.814  -7.518  -1.410  0.00  0.00    +0.065 C 
ATOM     12  C   UNL     1      18.824  -6.027  -1.357  0.00  0.00    -0.020 A 
ATOM     14  C   UNL     1      18.404  -3.823  -1.725  0.00  0.00    +0.047 A 
ATOM     15  C   UNL     1      16.463  -4.075  -3.644  0.00  0.00    +0.006 A 
ATOM     16  C   UNL     1      19.654  -5.274  -0.551  0.00  0.00    +0.087 A 
ATOM     20  C   UNL     1      17.860  -2.659  -2.269  0.00  0.00    +0.026 A 
ATOM     21  C   UNL     1      16.887  -2.808  -3.250  0.00  0.00    +0.002 A 
ATOM     29  H   UNL     1      16.355  -7.715  -1.841  0.00  0.00    +0.123 HD
ATOM     30  H   UNL     1      19.861  -3.184  -0.323  0.00  0.00    +0.165 HD
ENDROOT
BRANCH   7  17
ATOM      2  O   UNL     1      18.620 -10.240  -3.623  0.00  0.00    -0.274 OA
ATOM      5  N   UNL     1      17.904 -10.095  -1.413  0.00  0.00    -0.310 N 
ATOM     17  C   UNL     1      18.277  -9.583  -2.644  0.00  0.00    +0.231 C 
ATOM     31  H   UNL     1      17.660  -9.457  -0.660  0.00  0.00    +0.149 HD
BRANCH   5  22
ATOM     22  C   UNL     1      17.875 -11.510  -1.121  0.00  0.00    +0.139 C 
BRANCH  22  23
ATOM      1  F   UNL     1      14.943 -12.640   3.552  0.00  0.00    -0.205 F 
ATOM     23  C   UNL     1      17.093 -11.811   0.125  0.00  0.00    -0.030 A 
ATOM     24  C   UNL     1      17.344 -11.096   1.296  0.00  0.00    +0.008 A 
ATOM     25  C   UNL     1      16.115 -12.807   0.112  0.00  0.00    +0.008 A 
ATOM     26  C   UNL     1      16.617 -11.376   2.453  0.00  0.00    +0.038 A 
ATOM     27  C   UNL     1      15.390 -13.087   1.271  0.00  0.00    +0.038 A 
ATOM     28  C   UNL     1      15.641 -12.370   2.440  0.00  0.00    +0.123 A 
ENDBRANCH  22  23
ENDBRANCH   5  22
ENDBRANCH   7  17
BRANCH   6   8
ATOM      8  C   UNL     1      14.906  -6.636  -3.698  0.00  0.00    +0.026 C 
BRANCH   8  13
ATOM     13  C   UNL     1      14.412  -6.583  -5.147  0.00  0.00    -0.015 C 
ATOM     18  C   UNL     1      13.423  -5.426  -5.302  0.00  0.00    +0.007 C 
ATOM     19  C   UNL     1      13.753  -7.889  -5.593  0.00  0.00    +0.007 C 
ENDBRANCH   8  13
ENDBRANCH   6   8
TORSDOF 5
ENDMDL
MODEL 7
REMARK VINA RESULT:      -6.5     23.318     25.737
REMARK  Name = 51137958
REMARK  7 active torsions:
REMARK  status: ('A' for Active; 'I' for Inactive)
REMARK    1  A    between atoms: N_5  and  C_22
REMARK    2  A    between atoms: C_6  and  C_8
REMARK    3  A    between atoms: C_7  and  C_17
REMARK    4  A    between atoms: C_8  and  C_13
REMARK    5  A    between atoms: C_13  and  C_18
REMARK    6  A    between atoms: C_13  and  C_19
REMARK    7  A    between atoms: C_22  and  C_23
REMARK                            x       y       z     vdW  Elec       q    Type
REMARK                         _______ _______ _______ _____ _____    ______ ____
ROOT
ATOM      3  N   UNL     1       9.781   7.082   3.293  0.00  0.00    -0.299 NA
ATOM      4  N   UNL     1       9.356   6.537   8.297  0.00  0.00    -0.360 N 
ATOM      6  C   UNL     1      10.106   8.396   3.866  0.00  0.00    +0.085 C 
ATOM      7  C   UNL     1      10.598   5.983   3.790  0.00  0.00    +0.145 C 
ATOM      9  C   UNL     1       9.872   8.546   5.373  0.00  0.00    -0.021 A 
ATOM     10  C   UNL     1       9.702   7.467   6.288  0.00  0.00    +0.008 A 
ATOM     11  C   UNL     1       9.896   5.228   4.917  0.00  0.00    +0.065 C 
ATOM     12  C   UNL     1       9.701   6.035   6.156  0.00  0.00    -0.020 A 
ATOM     14  C   UNL     1       9.508   7.740   7.647  0.00  0.00    +0.047 A 
ATOM     15  C   UNL     1       9.898   9.847   5.937  0.00  0.00    +0.006 A 
ATOM     16  C   UNL     1       9.477   5.507   7.412  0.00  0.00    +0.087 A 
ATOM     20  C   UNL     1       9.490   9.031   8.177  0.00  0.00    +0.026 A 
ATOM     21  C   UNL     1       9.704  10.084   7.296  0.00  0.00    +0.002 A 
ATOM     29  H   UNL     1       8.789   6.878   3.393  0.00  0.00    +0.123 HD
ATOM     30  H   UNL     1       9.198   6.434   9.289  0.00  0.00    +0.165 HD
ENDROOT
BRANCH   7  17
ATOM      2  O   UNL     1      10.160   5.230   1.569  0.00  0.00    -0.274 OA
ATOM      5  N   UNL     1      11.666   4.041   2.887  0.00  0.00    -0.310 N 
ATOM     17  C   UNL     1      10.774   5.066   2.619  0.00  0.00    +0.231 C 
ATOM     31  H   UNL     1      12.140   4.013   3.785  0.00  0.00    +0.149 HD
BRANCH   5  22
ATOM     22  C   UNL     1      11.994   3.009   1.930  0.00  0.00    +0.139 C 
BRANCH  22  23
ATOM      1  F   UNL     1      16.354   4.459  -1.325  0.00  0.00    -0.205 F 
ATOM     23  C   UNL     1      13.157   3.395   1.062  0.00  0.00    -0.030 A 
ATOM     24  C   UNL     1      12.967   3.610  -0.303  0.00  0.00    +0.008 A 
ATOM     25  C   UNL     1      14.427   3.539   1.621  0.00  0.00    +0.008 A 
ATOM     26  C   UNL     1      14.047   3.970  -1.109  0.00  0.00    +0.038 A 
ATOM     27  C   UNL     1      15.507   3.898   0.814  0.00  0.00    +0.038 A 
ATOM     28  C   UNL     1      15.316   4.114  -0.551  0.00  0.00    +0.123 A 
ENDBRANCH  22  23
ENDBRANCH   5  22
ENDBRANCH   7  17
BRANCH   6   8
ATOM      8  C   UNL     1       9.282   9.397   3.038  0.00  0.00    +0.026 C 
BRANCH   8  13
ATOM     13  C   UNL     1       7.856   8.912   2.759  0.00  0.00    -0.015 C 
ATOM     18  C   UNL     1       7.486   9.237   1.311  0.00  0.00    +0.007 C 
ATOM     19  C   UNL     1       6.827   9.529   3.707  0.00  0.00    +0.007 C 
ENDBRANCH   8  13
ENDBRANCH   6   8
TORSDOF 5
ENDMDL
MODEL 8
REMARK VINA RESULT:      -6.5      3.434      8.094
REMARK  Name = 51137958
REMARK  7 active torsions:
REMARK  status: ('A' for Active; 'I' for Inactive)
REMARK    1  A    between atoms: N_5  and  C_22
REMARK    2  A    between atoms: C_6  and  C_8
REMARK    3  A    between atoms: C_7  and  C_17
REMARK    4  A    between atoms: C_8  and  C_13
REMARK    5  A    between atoms: C_13  and  C_18
REMARK    6  A    between atoms: C_13  and  C_19
REMARK    7  A    between atoms: C_22  and  C_23
REMARK                            x       y       z     vdW  Elec       q    Type
REMARK                         _______ _______ _______ _____ _____    ______ ____
ROOT
ATOM      3  N   UNL     1      -5.987 -10.577  13.258  0.00  0.00    -0.299 NA
ATOM      4  N   UNL     1      -7.873  -9.338   8.739  0.00  0.00    -0.360 N 
ATOM      6  C   UNL     1      -4.856 -10.041  12.488  0.00  0.00    +0.085 C 
ATOM      7  C   UNL     1      -7.125  -9.676  13.374  0.00  0.00    +0.145 C 
ATOM      9  C   UNL     1      -5.128  -9.759  11.007  0.00  0.00    -0.021 A 
ATOM     10  C   UNL     1      -6.421  -9.649  10.416  0.00  0.00    +0.008 A 
ATOM     11  C   UNL     1      -8.197  -9.988  12.330  0.00  0.00    +0.065 C 
ATOM     12  C   UNL     1      -7.763  -9.736  10.925  0.00  0.00    -0.020 A 
ATOM     14  C   UNL     1      -6.532  -9.373   9.049  0.00  0.00    +0.047 A 
ATOM     15  C   UNL     1      -4.026  -9.508  10.151  0.00  0.00    +0.006 A 
ATOM     16  C   UNL     1      -8.620  -9.548   9.860  0.00  0.00    +0.087 A 
ATOM     20  C   UNL     1      -5.433  -9.176   8.212  0.00  0.00    +0.026 A 
ATOM     21  C   UNL     1      -4.172  -9.234   8.792  0.00  0.00    +0.002 A 
ATOM     29  H   UNL     1      -6.273 -11.487  12.899  0.00  0.00    +0.123 HD
ATOM     30  H   UNL     1      -8.246  -9.162   7.817  0.00  0.00    +0.165 HD
ENDROOT
BRANCH   7  17
ATOM      2  O   UNL     1      -8.786 -10.443  14.907  0.00  0.00    -0.274 OA
ATOM      5  N   UNL     1      -6.835  -9.485  15.742  0.00  0.00    -0.310 N 
ATOM     17  C   UNL     1      -7.685  -9.925  14.741  0.00  0.00    +0.231 C 
ATOM     31  H   UNL     1      -5.932  -9.091  15.494  0.00  0.00    +0.149 HD
BRANCH   5  22
ATOM     22  C   UNL     1      -7.151  -9.588  17.149  0.00  0.00    +0.139 C 
BRANCH  22  23
ATOM      1  F   UNL     1      -3.264 -12.524  19.973  0.00  0.00    -0.205 F 
ATOM     23  C   UNL     1      -6.114 -10.371  17.902  0.00  0.00    -0.030 A 
ATOM     24  C   UNL     1      -6.359 -10.767  19.217  0.00  0.00    +0.008 A 
ATOM     25  C   UNL     1      -4.907 -10.703  17.286  0.00  0.00    +0.008 A 
ATOM     26  C   UNL     1      -5.395 -11.494  19.917  0.00  0.00    +0.038 A 
ATOM     27  C   UNL     1      -3.944 -11.430  17.987  0.00  0.00    +0.038 A 
ATOM     28  C   UNL     1      -4.189 -11.826  19.301  0.00  0.00    +0.123 A 
ENDBRANCH  22  23
ENDBRANCH   5  22
ENDBRANCH   7  17
BRANCH   6   8
ATOM      8  C   UNL     1      -3.725 -11.063  12.696  0.00  0.00    +0.026 C 
BRANCH   8  13
ATOM     13  C   UNL     1      -3.253 -11.147  14.150  0.00  0.00    -0.015 C 
ATOM     18  C   UNL     1      -1.951 -10.359  14.306  0.00  0.00    +0.007 C 
ATOM     19  C   UNL     1      -3.045 -12.588  14.621  0.00  0.00    +0.007 C 
ENDBRANCH   8  13
ENDBRANCH   6   8
TORSDOF 5
ENDMDL
MODEL 9
REMARK VINA RESULT:      -6.3      1.992      3.587
REMARK  Name = 51137958
REMARK  7 active torsions:
REMARK  status: ('A' for Active; 'I' for Inactive)
REMARK    1  A    between atoms: N_5  and  C_22
REMARK    2  A    between atoms: C_6  and  C_8
REMARK    3  A    between atoms: C_7  and  C_17
REMARK    4  A    between atoms: C_8  and  C_13
REMARK    5  A    between atoms: C_13  and  C_18
REMARK    6  A    between atoms: C_13  and  C_19
REMARK    7  A    between atoms: C_22  and  C_23
REMARK                            x       y       z     vdW  Elec       q    Type
REMARK                         _______ _______ _______ _____ _____    ______ ____
ROOT
ATOM      3  N   UNL     1      -5.355  -9.925  15.090  0.00  0.00    -0.299 NA
ATOM      4  N   UNL     1      -8.026 -10.389  19.352  0.00  0.00    -0.360 N 
ATOM      6  C   UNL     1      -4.593 -10.851  15.939  0.00  0.00    +0.085 C 
ATOM      7  C   UNL     1      -6.729 -10.332  14.828  0.00  0.00    +0.145 C 
ATOM      9  C   UNL     1      -5.103 -11.018  17.374  0.00  0.00    -0.021 A 
ATOM     10  C   UNL     1      -6.397 -10.638  17.834  0.00  0.00    +0.008 A 
ATOM     11  C   UNL     1      -7.709  -9.646  15.778  0.00  0.00    +0.065 C 
ATOM     12  C   UNL     1      -7.549 -10.049  17.205  0.00  0.00    -0.020 A 
ATOM     14  C   UNL     1      -6.745 -10.858  19.172  0.00  0.00    +0.047 A 
ATOM     15  C   UNL     1      -4.270 -11.669  18.319  0.00  0.00    +0.006 A 
ATOM     16  C   UNL     1      -8.520  -9.907  18.176  0.00  0.00    +0.087 A 
ATOM     20  C   UNL     1      -5.892 -11.458  20.099  0.00  0.00    +0.026 A 
ATOM     21  C   UNL     1      -4.648 -11.875  19.644  0.00  0.00    +0.002 A 
ATOM     29  H   UNL     1      -5.316  -8.977  15.460  0.00  0.00    +0.123 HD
ATOM     30  H   UNL     1      -8.532 -10.416  20.226  0.00  0.00    +0.165 HD
ENDROOT
BRANCH   7  17
ATOM      2  O   UNL     1      -8.094 -10.083  12.886  0.00  0.00    -0.274 OA
ATOM      5  N   UNL     1      -5.914  -9.267  12.845  0.00  0.00    -0.310 N 
ATOM     17  C   UNL     1      -7.009  -9.884  13.426  0.00  0.00    +0.231 C 
ATOM     31  H   UNL     1      -5.069  -9.131  13.392  0.00  0.00    +0.149 HD
BRANCH   5  22
ATOM     22  C   UNL     1      -5.917  -8.763  11.490  0.00  0.00    +0.139 C 
BRANCH  22  23
ATOM      1  F   UNL     1      -3.945 -12.557   7.826  0.00  0.00    -0.205 F 
ATOM     23  C   UNL     1      -5.392  -9.775  10.513  0.00  0.00    -0.030 A 
ATOM     24  C   UNL     1      -5.978  -9.898   9.253  0.00  0.00    +0.008 A 
ATOM     25  C   UNL     1      -4.316 -10.592  10.865  0.00  0.00    +0.008 A 
ATOM     26  C   UNL     1      -5.488 -10.838   8.346  0.00  0.00    +0.038 A 
ATOM     27  C   UNL     1      -3.828 -11.532   9.957  0.00  0.00    +0.038 A 
ATOM     28  C   UNL     1      -4.414 -11.654   8.697  0.00  0.00    +0.123 A 
ENDBRANCH  22  23
ENDBRANCH   5  22
ENDBRANCH   7  17
BRANCH   6   8
ATOM      8  C   UNL     1      -3.146 -10.328  15.885  0.00  0.00    +0.026 C 
BRANCH   8  13
ATOM     13  C   UNL     1      -2.245 -11.155  14.963  0.00  0.00    -0.015 C 
ATOM     18  C   UNL     1      -1.881 -10.322  13.732  0.00  0.00    +0.007 C 
ATOM     19  C   UNL     1      -2.896 -12.468  14.524  0.00  0.00    +0.007 C 
ENDBRANCH   8  13
ENDBRANCH   6   8
TORSDOF 5
ENDMDL
MODEL 10
REMARK VINA RESULT:      -6.2      3.865      8.064
REMARK  Name = 51137958
REMARK  7 active torsions:
REMARK  status: ('A' for Active; 'I' for Inactive)
REMARK    1  A    between atoms: N_5  and  C_22
REMARK    2  A    between atoms: C_6  and  C_8
REMARK    3  A    between atoms: C_7  and  C_17
REMARK    4  A    between atoms: C_8  and  C_13
REMARK    5  A    between atoms: C_13  and  C_18
REMARK    6  A    between atoms: C_13  and  C_19
REMARK    7  A    between atoms: C_22  and  C_23
REMARK                            x       y       z     vdW  Elec       q    Type
REMARK                         _______ _______ _______ _____ _____    ______ ____
ROOT
ATOM      3  N   UNL     1      -6.555 -11.169  15.614  0.00  0.00    -0.299 NA
ATOM      4  N   UNL     1      -2.951 -10.218  12.205  0.00  0.00    -0.360 N 
ATOM      6  C   UNL     1      -5.306 -11.050  16.378  0.00  0.00    +0.085 C 
ATOM      7  C   UNL     1      -6.878 -10.011  14.792  0.00  0.00    +0.145 C 
ATOM      9  C   UNL     1      -4.022 -10.941  15.550  0.00  0.00    -0.021 A 
ATOM     10  C   UNL     1      -3.965 -10.611  14.164  0.00  0.00    +0.008 A 
ATOM     11  C   UNL     1      -6.434 -10.209  13.344  0.00  0.00    +0.065 C 
ATOM     12  C   UNL     1      -4.954 -10.290  13.172  0.00  0.00    -0.020 A 
ATOM     14  C   UNL     1      -2.722 -10.531  13.526  0.00  0.00    +0.047 A 
ATOM     15  C   UNL     1      -2.775 -11.101  16.206  0.00  0.00    +0.006 A 
ATOM     16  C   UNL     1      -4.288 -10.065  11.984  0.00  0.00    +0.087 A 
ATOM     20  C   UNL     1      -1.507 -10.738  14.179  0.00  0.00    +0.026 A 
ATOM     21  C   UNL     1      -1.554 -11.012  15.540  0.00  0.00    +0.002 A 
ATOM     29  H   UNL     1      -6.564 -12.026  15.063  0.00  0.00    +0.123 HD
ATOM     30  H   UNL     1      -2.230 -10.100  11.508  0.00  0.00    +0.165 HD
ENDROOT
BRANCH   7  17
ATOM      2  O   UNL     1      -9.093 -10.590  14.119  0.00  0.00    -0.274 OA
ATOM      5  N   UNL     1      -8.800  -8.946  15.741  0.00  0.00    -0.310 N 
ATOM     17  C   UNL     1      -8.372  -9.903  14.837  0.00  0.00    +0.231 C 
ATOM     31  H   UNL     1      -8.116  -8.450  16.305  0.00  0.00    +0.149 HD
BRANCH   5  22
ATOM     22  C   UNL     1     -10.194  -8.632  15.958  0.00  0.00    +0.139 C 
BRANCH  22  23
ATOM      1  F   UNL     1     -12.094 -10.719  20.830  0.00  0.00    -0.205 F 
ATOM     23  C   UNL     1     -10.701  -9.188  17.258  0.00  0.00    -0.030 A 
ATOM     24  C   UNL     1     -12.051  -9.070  17.588  0.00  0.00    +0.008 A 
ATOM     25  C   UNL     1      -9.821  -9.824  18.135  0.00  0.00    +0.008 A 
ATOM     26  C   UNL     1     -12.521  -9.587  18.795  0.00  0.00    +0.038 A 
ATOM     27  C   UNL     1     -10.293 -10.341  19.342  0.00  0.00    +0.038 A 
ATOM     28  C   UNL     1     -11.643 -10.223  19.671  0.00  0.00    +0.123 A 
ENDBRANCH  22  23
ENDBRANCH   5  22
ENDBRANCH   7  17
BRANCH   6   8
ATOM      8  C   UNL     1      -5.303 -12.272  17.313  0.00  0.00    +0.026 C 
BRANCH   8  13
ATOM     13  C   UNL     1      -5.297 -11.891  18.797  0.00  0.00    -0.015 C 
ATOM     18  C   UNL     1      -5.758 -10.440  18.948  0.00  0.00    +0.007 C 
ATOM     19  C   UNL     1      -3.924 -12.068  19.446  0.00  0.00    +0.007 C 
ENDBRANCH   8  13
ENDBRANCH   6   8
TORSDOF 5
ENDMDL
