MODEL 1
REMARK VINA RESULT:      -7.1      0.000      0.000
REMARK  Name = 25312695
REMARK  9 active torsions:
REMARK  status: ('A' for Active; 'I' for Inactive)
REMARK    1  A    between atoms: O_3  and  C_29
REMARK    2  A    between atoms: O_5  and  C_35
REMARK    3  A    between atoms: O_5  and  C_36
REMARK    4  A    between atoms: N_6  and  C_16
REMARK    5  A    between atoms: C_14  and  C_18
REMARK    6  A    between atoms: C_16  and  C_18
REMARK    7  A    between atoms: C_17  and  C_23
REMARK    8  A    between atoms: C_23  and  C_29
REMARK    9  A    between atoms: C_27  and  C_30
REMARK                            x       y       z     vdW  Elec       q    Type
REMARK                         _______ _______ _______ _____ _____    ______ ____
ROOT
ATOM      2  O   UNL     1      -1.406  -9.944  12.282  0.00  0.00    -0.270 OA
ATOM      8  N   UNL     1      -2.717 -11.304  13.663  0.00  0.00    -0.297 N 
ATOM     14  C   UNL     1      -4.634 -11.572  15.221  0.00  0.00    +0.011 C 
ATOM     17  C   UNL     1      -3.623 -11.615  16.396  0.00  0.00    +0.006 C 
ATOM     20  C   UNL     1      -3.954 -12.052  13.926  0.00  0.00    +0.112 C 
ATOM     21  C   UNL     1      -2.328 -10.859  16.055  0.00  0.00    +0.023 C 
ATOM     22  C   UNL     1      -1.729 -11.352  14.740  0.00  0.00    +0.108 C 
ATOM     27  C   UNL     1      -2.438 -10.576  12.504  0.00  0.00    +0.247 C 
ENDROOT
BRANCH  27  30
ATOM     30  C   UNL     1      -3.452 -10.551  11.444  0.00  0.00    +0.037 A 
ATOM     31  C   UNL     1      -4.399  -9.526  11.410  0.00  0.00    +0.016 A 
ATOM     32  C   UNL     1      -3.470 -11.549  10.471  0.00  0.00    +0.016 A 
ATOM     33  C   UNL     1      -5.364  -9.502  10.404  0.00  0.00    +0.046 A 
ATOM     34  C   UNL     1      -4.436 -11.525   9.465  0.00  0.00    +0.046 A 
ATOM     35  C   UNL     1      -5.382 -10.501   9.431  0.00  0.00    +0.120 A 
BRANCH  35   5
ATOM      5  O   UNL     1      -6.324 -10.477   8.449  0.00  0.00    -0.495 OA
ATOM     36  C   UNL     1      -6.006  -9.754   7.261  0.00  0.00    +0.277 C 
ENDBRANCH  35   5
ENDBRANCH  27  30
BRANCH  14  18
ATOM     18  C   UNL     1      -5.279 -10.197  15.005  0.00  0.00    +0.020 C 
BRANCH  18  16
ATOM     16  C   UNL     1      -6.682 -10.327  14.417  0.00  0.00    +0.085 C 
BRANCH  16   6
ATOM      1  O   UNL     1     -10.557 -13.733  17.773  0.00  0.00    -0.268 OA
ATOM      6  N   UNL     1      -7.682 -10.313  15.482  0.00  0.00    -0.301 NA
ATOM      7  N   UNL     1      -9.487 -11.649  17.748  0.00  0.00    -0.312 N 
ATOM      9  C   UNL     1     -10.060  -9.793  16.079  0.00  0.00    +0.024 C 
ATOM     10  C   UNL     1      -8.294  -9.432  17.738  0.00  0.00    +0.050 C 
ATOM     11  C   UNL     1      -9.597  -8.856  17.188  0.00  0.00    +0.017 C 
ATOM     12  C   UNL     1      -8.987  -9.873  14.973  0.00  0.00    +0.089 C 
ATOM     13  C   UNL     1      -7.237  -9.484  16.611  0.00  0.00    +0.094 C 
ATOM     15  C   UNL     1     -10.382 -11.164  16.690  0.00  0.00    +0.130 C 
ATOM     19  C   UNL     1      -8.520 -10.815  18.319  0.00  0.00    +0.026 A 
ATOM     24  C   UNL     1      -7.787 -11.245  19.361  0.00  0.00    +0.022 A 
ATOM     25  C   UNL     1      -9.714 -12.955  18.221  0.00  0.00    +0.251 A 
ATOM     26  C   UNL     1      -7.966 -12.568  19.889  0.00  0.00    +0.007 A 
ATOM     28  C   UNL     1      -8.865 -13.403  19.361  0.00  0.00    +0.070 A 
ENDBRANCH  16   6
ENDBRANCH  18  16
ENDBRANCH  14  18
BRANCH  17  23
ATOM     23  C   UNL     1      -4.210 -11.109  17.712  0.00  0.00    +0.124 C 
BRANCH  23  29
ATOM      4  O   UNL     1      -3.437 -12.062  19.819  0.00  0.00    -0.251 OA
ATOM     29  C   UNL     1      -4.106 -12.143  18.800  0.00  0.00    +0.305 C 
BRANCH  29   3
ATOM      3  O   UNL     1      -4.880 -13.214  18.489  0.00  0.00    -0.481 OA
ATOM     37  H   UNL     1      -5.033 -13.287  17.523  0.00  0.00    +0.295 HD
ENDBRANCH  29   3
ENDBRANCH  23  29
ENDBRANCH  17  23
TORSDOF 8
ENDMDL
MODEL 2
REMARK VINA RESULT:      -7.0      2.187      7.548
REMARK  Name = 25312695
REMARK  9 active torsions:
REMARK  status: ('A' for Active; 'I' for Inactive)
REMARK    1  A    between atoms: O_3  and  C_29
REMARK    2  A    between atoms: O_5  and  C_35
REMARK    3  A    between atoms: O_5  and  C_36
REMARK    4  A    between atoms: N_6  and  C_16
REMARK    5  A    between atoms: C_14  and  C_18
REMARK    6  A    between atoms: C_16  and  C_18
REMARK    7  A    between atoms: C_17  and  C_23
REMARK    8  A    between atoms: C_23  and  C_29
REMARK    9  A    between atoms: C_27  and  C_30
REMARK                            x       y       z     vdW  Elec       q    Type
REMARK                         _______ _______ _______ _____ _____    ______ ____
ROOT
ATOM      2  O   UNL     1     -10.937 -11.725  17.538  0.00  0.00    -0.270 OA
ATOM      8  N   UNL     1      -8.830 -11.132  18.367  0.00  0.00    -0.297 N 
ATOM     14  C   UNL     1      -6.400 -10.765  17.999  0.00  0.00    +0.011 C 
ATOM     17  C   UNL     1      -6.129 -12.118  18.707  0.00  0.00    +0.006 C 
ATOM     20  C   UNL     1      -7.728 -10.169  18.499  0.00  0.00    +0.112 C 
ATOM     21  C   UNL     1      -7.328 -13.073  18.581  0.00  0.00    +0.023 C 
ATOM     22  C   UNL     1      -8.618 -12.406  19.052  0.00  0.00    +0.108 C 
ATOM     27  C   UNL     1     -10.013 -10.920  17.656  0.00  0.00    +0.247 C 
ENDROOT
BRANCH  27  30
ATOM     30  C   UNL     1     -10.192  -9.629  16.981  0.00  0.00    +0.037 A 
ATOM     31  C   UNL     1     -10.660  -8.528  17.699  0.00  0.00    +0.016 A 
ATOM     32  C   UNL     1      -9.894  -9.503  15.625  0.00  0.00    +0.016 A 
ATOM     33  C   UNL     1     -10.831  -7.300  17.059  0.00  0.00    +0.046 A 
ATOM     34  C   UNL     1     -10.065  -8.275  14.985  0.00  0.00    +0.046 A 
ATOM     35  C   UNL     1     -10.534  -7.174  15.702  0.00  0.00    +0.120 A 
BRANCH  35   5
ATOM      5  O   UNL     1     -10.700  -5.977  15.078  0.00  0.00    -0.495 OA
ATOM     36  C   UNL     1     -11.990  -5.702  14.533  0.00  0.00    +0.277 C 
ENDBRANCH  35   5
ENDBRANCH  27  30
BRANCH  14  18
ATOM     18  C   UNL     1      -6.400 -10.854  16.468  0.00  0.00    +0.020 C 
BRANCH  18  16
ATOM     16  C   UNL     1      -5.225 -10.086  15.867  0.00  0.00    +0.085 C 
BRANCH  16   6
ATOM      1  O   UNL     1      -5.465 -10.551   9.735  0.00  0.00    -0.268 OA
ATOM      6  N   UNL     1      -4.709 -10.784  14.692  0.00  0.00    -0.301 NA
ATOM      7  N   UNL     1      -4.133 -11.127  11.574  0.00  0.00    -0.312 N 
ATOM      9  C   UNL     1      -4.820 -12.875  13.315  0.00  0.00    +0.024 C 
ATOM     10  C   UNL     1      -2.684 -11.700  13.551  0.00  0.00    +0.050 C 
ATOM     11  C   UNL     1      -3.320 -13.086  13.478  0.00  0.00    +0.017 C 
ATOM     12  C   UNL     1      -5.375 -12.080  14.515  0.00  0.00    +0.089 C 
ATOM     13  C   UNL     1      -3.249 -10.937  14.770  0.00  0.00    +0.094 C 
ATOM     15  C   UNL     1      -5.079 -12.177  11.973  0.00  0.00    +0.130 C 
ATOM     19  C   UNL     1      -2.939 -10.923  12.273  0.00  0.00    +0.026 A 
ATOM     24  C   UNL     1      -2.038 -10.033  11.824  0.00  0.00    +0.022 A 
ATOM     25  C   UNL     1      -4.441 -10.408  10.403  0.00  0.00    +0.251 A 
ATOM     26  C   UNL     1      -2.291  -9.263  10.639  0.00  0.00    +0.007 A 
ATOM     28  C   UNL     1      -3.427  -9.414   9.952  0.00  0.00    +0.070 A 
ENDBRANCH  16   6
ENDBRANCH  18  16
ENDBRANCH  14  18
BRANCH  17  23
ATOM     23  C   UNL     1      -4.847 -12.799  18.231  0.00  0.00    +0.124 C 
BRANCH  23  29
ATOM      4  O   UNL     1      -3.357 -12.337  20.105  0.00  0.00    -0.251 OA
ATOM     29  C   UNL     1      -3.632 -12.239  18.919  0.00  0.00    +0.305 C 
BRANCH  29   3
ATOM      3  O   UNL     1      -2.854 -11.588  18.017  0.00  0.00    -0.481 OA
ATOM     37  H   UNL     1      -2.680 -12.135  17.221  0.00  0.00    +0.295 HD
ENDBRANCH  29   3
ENDBRANCH  23  29
ENDBRANCH  17  23
TORSDOF 8
ENDMDL
MODEL 3
REMARK VINA RESULT:      -6.9      2.317      7.710
REMARK  Name = 25312695
REMARK  9 active torsions:
REMARK  status: ('A' for Active; 'I' for Inactive)
REMARK    1  A    between atoms: O_3  and  C_29
REMARK    2  A    between atoms: O_5  and  C_35
REMARK    3  A    between atoms: O_5  and  C_36
REMARK    4  A    between atoms: N_6  and  C_16
REMARK    5  A    between atoms: C_14  and  C_18
REMARK    6  A    between atoms: C_16  and  C_18
REMARK    7  A    between atoms: C_17  and  C_23
REMARK    8  A    between atoms: C_23  and  C_29
REMARK    9  A    between atoms: C_27  and  C_30
REMARK                            x       y       z     vdW  Elec       q    Type
REMARK                         _______ _______ _______ _____ _____    ______ ____
ROOT
ATOM      2  O   UNL     1      -8.712 -11.724  17.906  0.00  0.00    -0.270 OA
ATOM      8  N   UNL     1      -6.756 -10.602  17.278  0.00  0.00    -0.297 N 
ATOM     14  C   UNL     1      -5.037 -10.074  15.563  0.00  0.00    +0.011 C 
ATOM     17  C   UNL     1      -4.067 -11.039  16.294  0.00  0.00    +0.006 C 
ATOM     20  C   UNL     1      -6.073  -9.519  16.557  0.00  0.00    +0.112 C 
ATOM     21  C   UNL     1      -4.830 -12.125  17.072  0.00  0.00    +0.023 C 
ATOM     22  C   UNL     1      -5.870 -11.511  18.005  0.00  0.00    +0.108 C 
ATOM     27  C   UNL     1      -8.136 -10.816  17.308  0.00  0.00    +0.247 C 
ENDROOT
BRANCH  27  30
ATOM     30  C   UNL     1      -8.994  -9.883  16.567  0.00  0.00    +0.037 A 
ATOM     31  C   UNL     1      -9.356 -10.167  15.250  0.00  0.00    +0.016 A 
ATOM     32  C   UNL     1      -9.447  -8.715  17.180  0.00  0.00    +0.016 A 
ATOM     33  C   UNL     1     -10.171  -9.282  14.545  0.00  0.00    +0.046 A 
ATOM     34  C   UNL     1     -10.262  -7.829  16.474  0.00  0.00    +0.046 A 
ATOM     35  C   UNL     1     -10.624  -8.113  15.157  0.00  0.00    +0.120 A 
BRANCH  35   5
ATOM      5  O   UNL     1     -11.419  -7.249  14.469  0.00  0.00    -0.495 OA
ATOM     36  C   UNL     1     -11.625  -5.959  15.043  0.00  0.00    +0.277 C 
ENDBRANCH  35   5
ENDBRANCH  27  30
BRANCH  14  18
ATOM     18  C   UNL     1      -5.742 -10.701  14.354  0.00  0.00    +0.020 C 
BRANCH  18  16
ATOM     16  C   UNL     1      -6.170  -9.635  13.348  0.00  0.00    +0.085 C 
BRANCH  16   6
ATOM      1  O   UNL     1      -5.597 -13.331   8.460  0.00  0.00    -0.268 OA
ATOM      6  N   UNL     1      -5.494  -9.842  12.069  0.00  0.00    -0.301 NA
ATOM      7  N   UNL     1      -5.148 -11.147   9.179  0.00  0.00    -0.312 N 
ATOM      9  C   UNL     1      -3.380 -10.582  10.944  0.00  0.00    +0.024 C 
ATOM     10  C   UNL     1      -4.714  -8.788   9.944  0.00  0.00    +0.050 C 
ATOM     11  C   UNL     1      -3.283  -9.252  10.209  0.00  0.00    +0.017 C 
ATOM     12  C   UNL     1      -4.150 -10.398  12.269  0.00  0.00    +0.089 C 
ATOM     13  C   UNL     1      -5.451  -8.598  11.288  0.00  0.00    +0.094 C 
ATOM     15  C   UNL     1      -4.037 -11.615  10.018  0.00  0.00    +0.130 C 
ATOM     19  C   UNL     1      -5.450  -9.786   9.070  0.00  0.00    +0.026 A 
ATOM     24  C   UNL     1      -6.398  -9.372   8.211  0.00  0.00    +0.022 A 
ATOM     25  C   UNL     1      -5.824 -12.121   8.422  0.00  0.00    +0.251 A 
ATOM     26  C   UNL     1      -7.128 -10.314   7.412  0.00  0.00    +0.007 A 
ATOM     28  C   UNL     1      -6.884 -11.624   7.500  0.00  0.00    +0.070 A 
ENDBRANCH  16   6
ENDBRANCH  18  16
ENDBRANCH  14  18
BRANCH  17  23
ATOM     23  C   UNL     1      -3.032 -11.669  15.365  0.00  0.00    +0.124 C 
BRANCH  23  29
ATOM      4  O   UNL     1      -1.418 -10.144  14.357  0.00  0.00    -0.251 OA
ATOM     29  C   UNL     1      -1.776 -10.845  15.292  0.00  0.00    +0.305 C 
BRANCH  29   3
ATOM      3  O   UNL     1      -1.069 -10.985  16.443  0.00  0.00    -0.481 OA
ATOM     37  H   UNL     1      -0.417 -10.261  16.562  0.00  0.00    +0.295 HD
ENDBRANCH  29   3
ENDBRANCH  23  29
ENDBRANCH  17  23
TORSDOF 8
ENDMDL
MODEL 4
REMARK VINA RESULT:      -6.8     27.148     30.300
REMARK  Name = 25312695
REMARK  9 active torsions:
REMARK  status: ('A' for Active; 'I' for Inactive)
REMARK    1  A    between atoms: O_3  and  C_29
REMARK    2  A    between atoms: O_5  and  C_35
REMARK    3  A    between atoms: O_5  and  C_36
REMARK    4  A    between atoms: N_6  and  C_16
REMARK    5  A    between atoms: C_14  and  C_18
REMARK    6  A    between atoms: C_16  and  C_18
REMARK    7  A    between atoms: C_17  and  C_23
REMARK    8  A    between atoms: C_23  and  C_29
REMARK    9  A    between atoms: C_27  and  C_30
REMARK                            x       y       z     vdW  Elec       q    Type
REMARK                         _______ _______ _______ _____ _____    ______ ____
ROOT
ATOM      2  O   UNL     1      10.377   8.458  18.107  0.00  0.00    -0.270 OA
ATOM      8  N   UNL     1      12.667   8.940  18.065  0.00  0.00    -0.297 N 
ATOM     14  C   UNL     1      14.514  10.602  18.065  0.00  0.00    +0.011 C 
ATOM     17  C   UNL     1      14.697  10.340  16.548  0.00  0.00    +0.006 C 
ATOM     20  C   UNL     1      13.902   9.362  18.741  0.00  0.00    +0.112 C 
ATOM     21  C   UNL     1      13.391   9.855  15.896  0.00  0.00    +0.023 C 
ATOM     22  C   UNL     1      12.814   8.653  16.639  0.00  0.00    +0.108 C 
ATOM     27  C   UNL     1      11.415   8.806  18.669  0.00  0.00    +0.247 C 
ENDROOT
BRANCH  27  30
ATOM     30  C   UNL     1      11.305   9.101  20.103  0.00  0.00    +0.037 A 
ATOM     31  C   UNL     1      11.474  10.409  20.559  0.00  0.00    +0.016 A 
ATOM     32  C   UNL     1      11.031   8.076  21.008  0.00  0.00    +0.016 A 
ATOM     33  C   UNL     1      11.371  10.691  21.921  0.00  0.00    +0.046 A 
ATOM     34  C   UNL     1      10.929   8.358  22.370  0.00  0.00    +0.046 A 
ATOM     35  C   UNL     1      11.098   9.665  22.826  0.00  0.00    +0.120 A 
BRANCH  35   5
ATOM      5  O   UNL     1      10.997   9.940  24.155  0.00  0.00    -0.495 OA
ATOM     36  C   UNL     1      11.334  11.262  24.573  0.00  0.00    +0.277 C 
ENDBRANCH  35   5
ENDBRANCH  27  30
BRANCH  14  18
ATOM     18  C   UNL     1      13.680  11.849  18.384  0.00  0.00    +0.020 C 
BRANCH  18  16
ATOM     16  C   UNL     1      14.412  12.774  19.353  0.00  0.00    +0.085 C 
BRANCH  16   6
ATOM      1  O   UNL     1      14.339   7.410  22.370  0.00  0.00    -0.268 OA
ATOM      6  N   UNL     1      14.992  12.004  20.451  0.00  0.00    -0.301 NA
ATOM      7  N   UNL     1      15.656   9.320  22.042  0.00  0.00    -0.312 N 
ATOM      9  C   UNL     1      15.021  11.637  22.930  0.00  0.00    +0.024 C 
ATOM     10  C   UNL     1      17.087  11.353  21.645  0.00  0.00    +0.050 C 
ATOM     11  C   UNL     1      16.525  11.872  22.967  0.00  0.00    +0.017 C 
ATOM     12  C   UNL     1      14.397  12.390  21.736  0.00  0.00    +0.089 C 
ATOM     13  C   UNL     1      16.455  12.137  20.473  0.00  0.00    +0.094 C 
ATOM     15  C   UNL     1      14.756  10.126  22.877  0.00  0.00    +0.130 C 
ATOM     19  C   UNL     1      16.821   9.867  21.495  0.00  0.00    +0.026 A 
ATOM     24  C   UNL     1      17.686   9.084  20.827  0.00  0.00    +0.022 A 
ATOM     25  C   UNL     1      15.339   7.956  21.901  0.00  0.00    +0.251 A 
ATOM     26  C   UNL     1      17.420   7.685  20.644  0.00  0.00    +0.007 A 
ATOM     28  C   UNL     1      16.310   7.126  21.134  0.00  0.00    +0.070 A 
ENDBRANCH  16   6
ENDBRANCH  18  16
ENDBRANCH  14  18
BRANCH  17  23
ATOM     23  C   UNL     1      15.261  11.543  15.794  0.00  0.00    +0.124 C 
BRANCH  23  29
ATOM      4  O   UNL     1      15.066  11.027  13.419  0.00  0.00    -0.251 OA
ATOM     29  C   UNL     1      15.748  11.160  14.423  0.00  0.00    +0.305 C 
BRANCH  29   3
ATOM      3  O   UNL     1      17.094  10.978  14.450  0.00  0.00    -0.481 OA
ATOM     37  H   UNL     1      17.442  10.701  13.576  0.00  0.00    +0.295 HD
ENDBRANCH  29   3
ENDBRANCH  23  29
ENDBRANCH  17  23
TORSDOF 8
ENDMDL
MODEL 5
REMARK VINA RESULT:      -6.8     28.121     31.429
REMARK  Name = 25312695
REMARK  9 active torsions:
REMARK  status: ('A' for Active; 'I' for Inactive)
REMARK    1  A    between atoms: O_3  and  C_29
REMARK    2  A    between atoms: O_5  and  C_35
REMARK    3  A    between atoms: O_5  and  C_36
REMARK    4  A    between atoms: N_6  and  C_16
REMARK    5  A    between atoms: C_14  and  C_18
REMARK    6  A    between atoms: C_16  and  C_18
REMARK    7  A    between atoms: C_17  and  C_23
REMARK    8  A    between atoms: C_23  and  C_29
REMARK    9  A    between atoms: C_27  and  C_30
REMARK                            x       y       z     vdW  Elec       q    Type
REMARK                         _______ _______ _______ _____ _____    ______ ____
ROOT
ATOM      2  O   UNL     1      11.112   8.429  19.626  0.00  0.00    -0.270 OA
ATOM      8  N   UNL     1      13.008   7.793  20.842  0.00  0.00    -0.297 N 
ATOM     14  C   UNL     1      15.394   8.144  21.443  0.00  0.00    +0.011 C 
ATOM     17  C   UNL     1      15.758   6.939  20.538  0.00  0.00    +0.006 C 
ATOM     20  C   UNL     1      13.949   7.998  21.953  0.00  0.00    +0.112 C 
ATOM     21  C   UNL     1      14.720   6.737  19.421  0.00  0.00    +0.023 C 
ATOM     22  C   UNL     1      13.307   6.644  19.989  0.00  0.00    +0.108 C 
ATOM     27  C   UNL     1      11.899   8.593  20.557  0.00  0.00    +0.247 C 
ENDROOT
BRANCH  27  30
ATOM     30  C   UNL     1      11.630   9.738  21.436  0.00  0.00    +0.037 A 
ATOM     31  C   UNL     1      12.070  11.011  21.075  0.00  0.00    +0.016 A 
ATOM     32  C   UNL     1      10.936   9.552  22.631  0.00  0.00    +0.016 A 
ATOM     33  C   UNL     1      11.816  12.099  21.910  0.00  0.00    +0.046 A 
ATOM     34  C   UNL     1      10.682  10.640  23.466  0.00  0.00    +0.046 A 
ATOM     35  C   UNL     1      11.122  11.913  23.105  0.00  0.00    +0.120 A 
BRANCH  35   5
ATOM      5  O   UNL     1      10.873  12.975  23.920  0.00  0.00    -0.495 OA
ATOM     36  C   UNL     1      10.921  12.739  25.326  0.00  0.00    +0.277 C 
ENDBRANCH  35   5
ENDBRANCH  27  30
BRANCH  14  18
ATOM     18  C   UNL     1      15.586   9.508  20.769  0.00  0.00    +0.020 C 
BRANCH  18  16
ATOM     16  C   UNL     1      15.999  10.574  21.782  0.00  0.00    +0.085 C 
BRANCH  16   6
ATOM      1  O   UNL     1      20.364   7.986  25.265  0.00  0.00    -0.268 OA
ATOM      6  N   UNL     1      17.433  10.491  22.049  0.00  0.00    -0.301 NA
ATOM      7  N   UNL     1      20.061   9.136  23.246  0.00  0.00    -0.312 N 
ATOM      9  C   UNL     1      19.405  11.608  23.119  0.00  0.00    +0.024 C 
ATOM     10  C   UNL     1      19.719  10.327  21.055  0.00  0.00    +0.050 C 
ATOM     11  C   UNL     1      20.160  11.588  21.796  0.00  0.00    +0.017 C 
ATOM     12  C   UNL     1      17.884  11.629  22.860  0.00  0.00    +0.089 C 
ATOM     13  C   UNL     1      18.197  10.387  20.797  0.00  0.00    +0.094 C 
ATOM     15  C   UNL     1      19.844  10.401  23.959  0.00  0.00    +0.130 C 
ATOM     19  C   UNL     1      20.076   9.085  21.849  0.00  0.00    +0.026 A 
ATOM     24  C   UNL     1      20.386   7.938  21.218  0.00  0.00    +0.022 A 
ATOM     25  C   UNL     1      20.346   8.004  24.034  0.00  0.00    +0.251 A 
ATOM     26  C   UNL     1      20.683   6.747  21.962  0.00  0.00    +0.007 A 
ATOM     28  C   UNL     1      20.661   6.748  23.298  0.00  0.00    +0.070 A 
ENDBRANCH  16   6
ENDBRANCH  18  16
ENDBRANCH  14  18
BRANCH  17  23
ATOM     23  C   UNL     1      17.167   7.030  19.954  0.00  0.00    +0.124 C 
BRANCH  23  29
ATOM      4  O   UNL     1      16.919   5.455  18.109  0.00  0.00    -0.251 OA
ATOM     29  C   UNL     1      17.501   5.825  19.118  0.00  0.00    +0.305 C 
BRANCH  29   3
ATOM      3  O   UNL     1      18.571   5.181  19.650  0.00  0.00    -0.481 OA
ATOM     37  H   UNL     1      18.378   4.828  20.545  0.00  0.00    +0.295 HD
ENDBRANCH  29   3
ENDBRANCH  23  29
ENDBRANCH  17  23
TORSDOF 8
ENDMDL
MODEL 6
REMARK VINA RESULT:      -6.6     24.642     28.562
REMARK  Name = 25312695
REMARK  9 active torsions:
REMARK  status: ('A' for Active; 'I' for Inactive)
REMARK    1  A    between atoms: O_3  and  C_29
REMARK    2  A    between atoms: O_5  and  C_35
REMARK    3  A    between atoms: O_5  and  C_36
REMARK    4  A    between atoms: N_6  and  C_16
REMARK    5  A    between atoms: C_14  and  C_18
REMARK    6  A    between atoms: C_16  and  C_18
REMARK    7  A    between atoms: C_17  and  C_23
REMARK    8  A    between atoms: C_23  and  C_29
REMARK    9  A    between atoms: C_27  and  C_30
REMARK                            x       y       z     vdW  Elec       q    Type
REMARK                         _______ _______ _______ _____ _____    ______ ____
ROOT
ATOM      2  O   UNL     1      11.038  11.537   6.111  0.00  0.00    -0.270 OA
ATOM      8  N   UNL     1      11.487   9.426   7.016  0.00  0.00    -0.297 N 
ATOM     14  C   UNL     1      11.305   6.951   6.891  0.00  0.00    +0.011 C 
ATOM     17  C   UNL     1      10.205   7.016   7.982  0.00  0.00    +0.006 C 
ATOM     20  C   UNL     1      12.242   8.165   7.020  0.00  0.00    +0.112 C 
ATOM     21  C   UNL     1       9.476   8.370   7.970  0.00  0.00    +0.023 C 
ATOM     22  C   UNL     1      10.463   9.531   8.055  0.00  0.00    +0.108 C 
ATOM     27  C   UNL     1      11.672  10.482   6.121  0.00  0.00    +0.247 C 
ENDROOT
BRANCH  27  30
ATOM     30  C   UNL     1      12.709  10.341   5.092  0.00  0.00    +0.037 A 
ATOM     31  C   UNL     1      12.438   9.632   3.922  0.00  0.00    +0.016 A 
ATOM     32  C   UNL     1      13.965  10.916   5.285  0.00  0.00    +0.016 A 
ATOM     33  C   UNL     1      13.423   9.497   2.944  0.00  0.00    +0.046 A 
ATOM     34  C   UNL     1      14.951  10.781   4.308  0.00  0.00    +0.046 A 
ATOM     35  C   UNL     1      14.679  10.071   3.137  0.00  0.00    +0.120 A 
BRANCH  35   5
ATOM      5  O   UNL     1      15.641   9.940   2.183  0.00  0.00    -0.495 OA
ATOM     36  C   UNL     1      16.773   9.135   2.508  0.00  0.00    +0.277 C 
ENDBRANCH  35   5
ENDBRANCH  27  30
BRANCH  14  18
ATOM     18  C   UNL     1      10.758   6.848   5.462  0.00  0.00    +0.020 C 
BRANCH  18  16
ATOM     16  C   UNL     1      10.754   5.402   4.972  0.00  0.00    +0.085 C 
BRANCH  16   6
ATOM      1  O   UNL     1      14.564   7.252   0.506  0.00  0.00    -0.268 OA
ATOM      6  N   UNL     1      11.045   5.351   3.541  0.00  0.00    -0.301 NA
ATOM      7  N   UNL     1      12.917   5.654   0.976  0.00  0.00    -0.312 N 
ATOM      9  C   UNL     1      10.440   6.233   1.274  0.00  0.00    +0.024 C 
ATOM     10  C   UNL     1      11.181   3.909   1.505  0.00  0.00    +0.050 C 
ATOM     11  C   UNL     1      10.200   4.817   0.766  0.00  0.00    +0.017 C 
ATOM     12  C   UNL     1      10.202   6.294   2.798  0.00  0.00    +0.089 C 
ATOM     13  C   UNL     1      10.906   3.982   3.024  0.00  0.00    +0.094 C 
ATOM     15  C   UNL     1      11.858   6.667   0.881  0.00  0.00    +0.130 C 
ATOM     19  C   UNL     1      12.614   4.308   1.205  0.00  0.00    +0.026 A 
ATOM     24  C   UNL     1      13.588   3.382   1.177  0.00  0.00    +0.022 A 
ATOM     25  C   UNL     1      14.234   6.087   0.730  0.00  0.00    +0.251 A 
ATOM     26  C   UNL     1      14.952   3.757   0.936  0.00  0.00    +0.007 A 
ATOM     28  C   UNL     1      15.288   5.034   0.731  0.00  0.00    +0.070 A 
ENDBRANCH  16   6
ENDBRANCH  18  16
ENDBRANCH  14  18
BRANCH  17  23
ATOM     23  C   UNL     1       9.204   5.865   7.895  0.00  0.00    +0.124 C 
BRANCH  23  29
ATOM      4  O   UNL     1       9.205   4.626   9.995  0.00  0.00    -0.251 OA
ATOM     29  C   UNL     1       9.563   4.745   8.833  0.00  0.00    +0.305 C 
BRANCH  29   3
ATOM      3  O   UNL     1      10.363   3.853   8.195  0.00  0.00    -0.481 OA
ATOM     37  H   UNL     1      10.306   3.942   7.220  0.00  0.00    +0.295 HD
ENDBRANCH  29   3
ENDBRANCH  23  29
ENDBRANCH  17  23
TORSDOF 8
ENDMDL
MODEL 7
REMARK VINA RESULT:      -6.4      2.739      4.472
REMARK  Name = 25312695
REMARK  9 active torsions:
REMARK  status: ('A' for Active; 'I' for Inactive)
REMARK    1  A    between atoms: O_3  and  C_29
REMARK    2  A    between atoms: O_5  and  C_35
REMARK    3  A    between atoms: O_5  and  C_36
REMARK    4  A    between atoms: N_6  and  C_16
REMARK    5  A    between atoms: C_14  and  C_18
REMARK    6  A    between atoms: C_16  and  C_18
REMARK    7  A    between atoms: C_17  and  C_23
REMARK    8  A    between atoms: C_23  and  C_29
REMARK    9  A    between atoms: C_27  and  C_30
REMARK                            x       y       z     vdW  Elec       q    Type
REMARK                         _______ _______ _______ _____ _____    ______ ____
ROOT
ATOM      2  O   UNL     1      -2.039 -10.670  16.394  0.00  0.00    -0.270 OA
ATOM      8  N   UNL     1      -4.045 -11.803  16.807  0.00  0.00    -0.297 N 
ATOM     14  C   UNL     1      -6.528 -11.814  16.897  0.00  0.00    +0.011 C 
ATOM     17  C   UNL     1      -6.434 -11.733  18.442  0.00  0.00    +0.006 C 
ATOM     20  C   UNL     1      -5.260 -12.477  16.328  0.00  0.00    +0.112 C 
ATOM     21  C   UNL     1      -5.125 -11.063  18.894  0.00  0.00    +0.023 C 
ATOM     22  C   UNL     1      -3.911 -11.738  18.261  0.00  0.00    +0.108 C 
ATOM     27  C   UNL     1      -3.056 -11.239  15.998  0.00  0.00    +0.247 C 
ENDROOT
BRANCH  27  30
ATOM     30  C   UNL     1      -3.223 -11.324  14.542  0.00  0.00    +0.037 A 
ATOM     31  C   UNL     1      -4.073 -10.432  13.887  0.00  0.00    +0.016 A 
ATOM     32  C   UNL     1      -2.534 -12.294  13.816  0.00  0.00    +0.016 A 
ATOM     33  C   UNL     1      -4.234 -10.512  12.504  0.00  0.00    +0.046 A 
ATOM     34  C   UNL     1      -2.695 -12.374  12.433  0.00  0.00    +0.046 A 
ATOM     35  C   UNL     1      -3.545 -11.483  11.777  0.00  0.00    +0.120 A 
BRANCH  35   5
ATOM      5  O   UNL     1      -3.702 -11.561  10.427  0.00  0.00    -0.495 OA
ATOM     36  C   UNL     1      -4.003 -10.349   9.737  0.00  0.00    +0.277 C 
ENDBRANCH  35   5
ENDBRANCH  27  30
BRANCH  14  18
ATOM     18  C   UNL     1      -6.773 -10.462  16.216  0.00  0.00    +0.020 C 
BRANCH  18  16
ATOM     16  C   UNL     1      -7.941 -10.537  15.235  0.00  0.00    +0.085 C 
BRANCH  16   6
ATOM      1  O   UNL     1     -11.771  -5.836  14.184  0.00  0.00    -0.268 OA
ATOM      6  N   UNL     1      -9.081  -9.778  15.743  0.00  0.00    -0.301 NA
ATOM      7  N   UNL     1     -11.551  -7.778  15.476  0.00  0.00    -0.312 N 
ATOM      9  C   UNL     1      -9.841  -8.025  17.365  0.00  0.00    +0.024 C 
ATOM     10  C   UNL     1     -11.330  -9.893  16.824  0.00  0.00    +0.050 C 
ATOM     11  C   UNL     1     -10.858  -8.990  17.961  0.00  0.00    +0.017 C 
ATOM     12  C   UNL     1      -8.657  -8.811  16.763  0.00  0.00    +0.089 C 
ATOM     13  C   UNL     1     -10.126 -10.676  16.254  0.00  0.00    +0.094 C 
ATOM     15  C   UNL     1     -10.545  -7.136  16.332  0.00  0.00    +0.130 C 
ATOM     19  C   UNL     1     -11.999  -9.078  15.732  0.00  0.00    +0.026 A 
ATOM     24  C   UNL     1     -12.998  -9.604  15.004  0.00  0.00    +0.022 A 
ATOM     25  C   UNL     1     -12.108  -6.990  14.451  0.00  0.00    +0.251 A 
ATOM     26  C   UNL     1     -13.607  -8.855  13.941  0.00  0.00    +0.007 A 
ATOM     28  C   UNL     1     -13.197  -7.617  13.651  0.00  0.00    +0.070 A 
ENDBRANCH  16   6
ENDBRANCH  18  16
ENDBRANCH  14  18
BRANCH  17  23
ATOM     23  C   UNL     1      -7.639 -11.045  19.082  0.00  0.00    +0.124 C 
BRANCH  23  29
ATOM      4  O   UNL     1      -9.806 -11.893  19.809  0.00  0.00    -0.251 OA
ATOM     29  C   UNL     1      -8.602 -12.043  19.665  0.00  0.00    +0.305 C 
BRANCH  29   3
ATOM      3  O   UNL     1      -7.935 -13.170  20.021  0.00  0.00    -0.481 OA
ATOM     37  H   UNL     1      -8.546 -13.919  20.191  0.00  0.00    +0.295 HD
ENDBRANCH  29   3
ENDBRANCH  23  29
ENDBRANCH  17  23
TORSDOF 8
ENDMDL
MODEL 8
REMARK VINA RESULT:      -6.4      2.350      7.590
REMARK  Name = 25312695
REMARK  9 active torsions:
REMARK  status: ('A' for Active; 'I' for Inactive)
REMARK    1  A    between atoms: O_3  and  C_29
REMARK    2  A    between atoms: O_5  and  C_35
REMARK    3  A    between atoms: O_5  and  C_36
REMARK    4  A    between atoms: N_6  and  C_16
REMARK    5  A    between atoms: C_14  and  C_18
REMARK    6  A    between atoms: C_16  and  C_18
REMARK    7  A    between atoms: C_17  and  C_23
REMARK    8  A    between atoms: C_23  and  C_29
REMARK    9  A    between atoms: C_27  and  C_30
REMARK                            x       y       z     vdW  Elec       q    Type
REMARK                         _______ _______ _______ _____ _____    ______ ____
ROOT
ATOM      2  O   UNL     1      -9.078 -10.898  19.326  0.00  0.00    -0.270 OA
ATOM      8  N   UNL     1      -7.299 -10.075  18.047  0.00  0.00    -0.297 N 
ATOM     14  C   UNL     1      -5.801 -10.267  16.074  0.00  0.00    +0.011 C 
ATOM     17  C   UNL     1      -4.684 -10.777  17.021  0.00  0.00    +0.006 C 
ATOM     20  C   UNL     1      -6.787  -9.382  16.856  0.00  0.00    +0.112 C 
ATOM     21  C   UNL     1      -5.269 -11.451  18.274  0.00  0.00    +0.023 C 
ATOM     22  C   UNL     1      -6.271 -10.539  18.977  0.00  0.00    +0.108 C 
ATOM     27  C   UNL     1      -8.645 -10.313  18.333  0.00  0.00    +0.247 C 
ENDROOT
BRANCH  27  30
ATOM     30  C   UNL     1      -9.650  -9.832  17.377  0.00  0.00    +0.037 A 
ATOM     31  C   UNL     1     -10.300 -10.736  16.536  0.00  0.00    +0.016 A 
ATOM     32  C   UNL     1      -9.954  -8.473  17.310  0.00  0.00    +0.016 A 
ATOM     33  C   UNL     1     -11.254 -10.279  15.627  0.00  0.00    +0.046 A 
ATOM     34  C   UNL     1     -10.907  -8.016  16.400  0.00  0.00    +0.046 A 
ATOM     35  C   UNL     1     -11.558  -8.920  15.559  0.00  0.00    +0.120 A 
BRANCH  35   5
ATOM      5  O   UNL     1     -12.489  -8.474  14.672  0.00  0.00    -0.495 OA
ATOM     36  C   UNL     1     -13.505  -7.608  15.177  0.00  0.00    +0.277 C 
ENDBRANCH  35   5
ENDBRANCH  27  30
BRANCH  14  18
ATOM     18  C   UNL     1      -6.553 -11.385  15.342  0.00  0.00    +0.020 C 
BRANCH  18  16
ATOM     16  C   UNL     1      -7.426 -10.825  14.221  0.00  0.00    +0.085 C 
BRANCH  16   6
ATOM      1  O   UNL     1      -6.108  -8.850   8.544  0.00  0.00    -0.268 OA
ATOM      6  N   UNL     1      -6.875 -11.190  12.918  0.00  0.00    -0.301 NA
ATOM      7  N   UNL     1      -5.614 -10.571  10.055  0.00  0.00    -0.312 N 
ATOM      9  C   UNL     1      -7.307 -12.364  10.746  0.00  0.00    +0.024 C 
ATOM     10  C   UNL     1      -5.052 -12.389  11.702  0.00  0.00    +0.050 C 
ATOM     11  C   UNL     1      -6.075 -13.237  10.951  0.00  0.00    +0.017 C 
ATOM     12  C   UNL     1      -7.867 -11.912  12.111  0.00  0.00    +0.089 C 
ATOM     13  C   UNL     1      -5.636 -11.967  13.069  0.00  0.00    +0.094 C 
ATOM     15  C   UNL     1      -6.932 -11.182   9.841  0.00  0.00    +0.130 C 
ATOM     19  C   UNL     1      -4.664 -11.168  10.890  0.00  0.00    +0.026 A 
ATOM     24  C   UNL     1      -3.427 -10.650  10.983  0.00  0.00    +0.022 A 
ATOM     25  C   UNL     1      -5.323  -9.414   9.306  0.00  0.00    +0.251 A 
ATOM     26  C   UNL     1      -3.067  -9.470  10.250  0.00  0.00    +0.007 A 
ATOM     28  C   UNL     1      -3.949  -8.858   9.456  0.00  0.00    +0.070 A 
ENDBRANCH  16   6
ENDBRANCH  18  16
ENDBRANCH  14  18
BRANCH  17  23
ATOM     23  C   UNL     1      -3.684 -11.702  16.329  0.00  0.00    +0.124 C 
BRANCH  23  29
ATOM      4  O   UNL     1      -2.447 -10.396  14.684  0.00  0.00    -0.251 OA
ATOM     29  C   UNL     1      -2.512 -10.939  15.776  0.00  0.00    +0.305 C 
BRANCH  29   3
ATOM      3  O   UNL     1      -1.502 -10.931  16.683  0.00  0.00    -0.481 OA
ATOM     37  H   UNL     1      -0.653 -10.644  16.283  0.00  0.00    +0.295 HD
ENDBRANCH  29   3
ENDBRANCH  23  29
ENDBRANCH  17  23
TORSDOF 8
ENDMDL
MODEL 9
REMARK VINA RESULT:      -6.3      2.223      3.426
REMARK  Name = 25312695
REMARK  9 active torsions:
REMARK  status: ('A' for Active; 'I' for Inactive)
REMARK    1  A    between atoms: O_3  and  C_29
REMARK    2  A    between atoms: O_5  and  C_35
REMARK    3  A    between atoms: O_5  and  C_36
REMARK    4  A    between atoms: N_6  and  C_16
REMARK    5  A    between atoms: C_14  and  C_18
REMARK    6  A    between atoms: C_16  and  C_18
REMARK    7  A    between atoms: C_17  and  C_23
REMARK    8  A    between atoms: C_23  and  C_29
REMARK    9  A    between atoms: C_27  and  C_30
REMARK                            x       y       z     vdW  Elec       q    Type
REMARK                         _______ _______ _______ _____ _____    ______ ____
ROOT
ATOM      2  O   UNL     1      -1.994 -10.374  16.326  0.00  0.00    -0.270 OA
ATOM      8  N   UNL     1      -3.819 -11.771  16.767  0.00  0.00    -0.297 N 
ATOM     14  C   UNL     1      -6.275 -12.114  16.923  0.00  0.00    +0.011 C 
ATOM     17  C   UNL     1      -6.146 -12.051  18.467  0.00  0.00    +0.006 C 
ATOM     20  C   UNL     1      -4.948 -12.591  16.305  0.00  0.00    +0.112 C 
ATOM     21  C   UNL     1      -4.924 -11.222  18.899  0.00  0.00    +0.023 C 
ATOM     22  C   UNL     1      -3.651 -11.718  18.218  0.00  0.00    +0.108 C 
ATOM     27  C   UNL     1      -2.937 -11.065  15.945  0.00  0.00    +0.247 C 
ENDROOT
BRANCH  27  30
ATOM     30  C   UNL     1      -3.136 -11.142  14.492  0.00  0.00    +0.037 A 
ATOM     31  C   UNL     1      -4.152 -10.402  13.888  0.00  0.00    +0.016 A 
ATOM     32  C   UNL     1      -2.310 -11.955  13.717  0.00  0.00    +0.016 A 
ATOM     33  C   UNL     1      -4.342 -10.475  12.509  0.00  0.00    +0.046 A 
ATOM     34  C   UNL     1      -2.500 -12.029  12.338  0.00  0.00    +0.046 A 
ATOM     35  C   UNL     1      -3.517 -11.289  11.734  0.00  0.00    +0.120 A 
BRANCH  35   5
ATOM      5  O   UNL     1      -3.702 -11.360  10.387  0.00  0.00    -0.495 OA
ATOM     36  C   UNL     1      -3.958 -10.136   9.701  0.00  0.00    +0.277 C 
ENDBRANCH  35   5
ENDBRANCH  27  30
BRANCH  14  18
ATOM     18  C   UNL     1      -6.717 -10.793  16.281  0.00  0.00    +0.020 C 
BRANCH  18  16
ATOM     16  C   UNL     1      -7.914 -10.998  15.356  0.00  0.00    +0.085 C 
BRANCH  16   6
ATOM      1  O   UNL     1     -13.967 -10.530  16.364  0.00  0.00    -0.268 OA
ATOM      6  N   UNL     1      -9.005 -10.102  15.730  0.00  0.00    -0.301 NA
ATOM      7  N   UNL     1     -11.941  -9.430  16.781  0.00  0.00    -0.312 N 
ATOM      9  C   UNL     1     -10.555  -8.292  14.952  0.00  0.00    +0.024 C 
ATOM     10  C   UNL     1      -9.754  -8.280  17.267  0.00  0.00    +0.050 C 
ATOM     11  C   UNL     1     -10.088  -7.381  16.079  0.00  0.00    +0.017 C 
ATOM     12  C   UNL     1      -9.438  -9.293  14.585  0.00  0.00    +0.089 C 
ATOM     13  C   UNL     1      -8.624  -9.258  16.872  0.00  0.00    +0.094 C 
ATOM     15  C   UNL     1     -11.853  -8.989  15.383  0.00  0.00    +0.130 C 
ATOM     19  C   UNL     1     -10.982  -9.045  17.724  0.00  0.00    +0.026 A 
ATOM     24  C   UNL     1     -11.142  -9.367  19.019  0.00  0.00    +0.022 A 
ATOM     25  C   UNL     1     -13.081 -10.173  17.141  0.00  0.00    +0.251 A 
ATOM     26  C   UNL     1     -12.280 -10.128  19.453  0.00  0.00    +0.007 A 
ATOM     28  C   UNL     1     -13.209 -10.531  18.582  0.00  0.00    +0.070 A 
ENDBRANCH  16   6
ENDBRANCH  18  16
ENDBRANCH  14  18
BRANCH  17  23
ATOM     23  C   UNL     1      -7.411 -11.542  19.155  0.00  0.00    +0.124 C 
BRANCH  23  29
ATOM      4  O   UNL     1      -9.548 -12.453  18.414  0.00  0.00    -0.251 OA
ATOM     29  C   UNL     1      -8.527 -12.547  19.079  0.00  0.00    +0.305 C 
BRANCH  29   3
ATOM      3  O   UNL     1      -8.241 -13.611  19.872  0.00  0.00    -0.481 OA
ATOM     37  H   UNL     1      -8.872 -14.350  19.735  0.00  0.00    +0.295 HD
ENDBRANCH  29   3
ENDBRANCH  23  29
ENDBRANCH  17  23
TORSDOF 8
ENDMDL
MODEL 10
REMARK VINA RESULT:      -6.3     28.060     31.349
REMARK  Name = 25312695
REMARK  9 active torsions:
REMARK  status: ('A' for Active; 'I' for Inactive)
REMARK    1  A    between atoms: O_3  and  C_29
REMARK    2  A    between atoms: O_5  and  C_35
REMARK    3  A    between atoms: O_5  and  C_36
REMARK    4  A    between atoms: N_6  and  C_16
REMARK    5  A    between atoms: C_14  and  C_18
REMARK    6  A    between atoms: C_16  and  C_18
REMARK    7  A    between atoms: C_17  and  C_23
REMARK    8  A    between atoms: C_23  and  C_29
REMARK    9  A    between atoms: C_27  and  C_30
REMARK                            x       y       z     vdW  Elec       q    Type
REMARK                         _______ _______ _______ _____ _____    ______ ____
ROOT
ATOM      2  O   UNL     1      10.477   8.364  20.322  0.00  0.00    -0.270 OA
ATOM      8  N   UNL     1      12.646   7.917  21.081  0.00  0.00    -0.297 N 
ATOM     14  C   UNL     1      15.091   8.347  20.977  0.00  0.00    +0.011 C 
ATOM     17  C   UNL     1      15.253   7.016  20.200  0.00  0.00    +0.006 C 
ATOM     20  C   UNL     1      13.834   8.287  21.863  0.00  0.00    +0.112 C 
ATOM     21  C   UNL     1      13.969   6.647  19.436  0.00  0.00    +0.023 C 
ATOM     22  C   UNL     1      12.755   6.649  20.362  0.00  0.00    +0.108 C 
ATOM     27  C   UNL     1      11.472   8.667  20.980  0.00  0.00    +0.247 C 
ENDROOT
BRANCH  27  30
ATOM     30  C   UNL     1      11.398   9.935  21.716  0.00  0.00    +0.037 A 
ATOM     31  C   UNL     1      11.820  11.118  21.110  0.00  0.00    +0.016 A 
ATOM     32  C   UNL     1      10.906   9.956  23.021  0.00  0.00    +0.016 A 
ATOM     33  C   UNL     1      11.750  12.323  21.809  0.00  0.00    +0.046 A 
ATOM     34  C   UNL     1      10.837  11.160  23.721  0.00  0.00    +0.046 A 
ATOM     35  C   UNL     1      11.259  12.344  23.114  0.00  0.00    +0.120 A 
BRANCH  35   5
ATOM      5  O   UNL     1      11.191  13.519  23.797  0.00  0.00    -0.495 OA
ATOM     36  C   UNL     1      11.983  13.631  24.978  0.00  0.00    +0.277 C 
ENDBRANCH  35   5
ENDBRANCH  27  30
BRANCH  14  18
ATOM     18  C   UNL     1      15.051   9.590  20.080  0.00  0.00    +0.020 C 
BRANCH  18  16
ATOM     16  C   UNL     1      16.089  10.623  20.515  0.00  0.00    +0.085 C 
BRANCH  16   6
ATOM      1  O   UNL     1      19.712  13.315  16.332  0.00  0.00    -0.268 OA
ATOM      6  N   UNL     1      16.193  11.689  19.521  0.00  0.00    -0.301 NA
ATOM      7  N   UNL     1      17.469  13.136  16.981  0.00  0.00    -0.312 N 
ATOM      9  C   UNL     1      16.547  14.142  19.149  0.00  0.00    +0.024 C 
ATOM     10  C   UNL     1      15.055  12.899  17.656  0.00  0.00    +0.050 C 
ATOM     11  C   UNL     1      15.238  14.233  18.376  0.00  0.00    +0.017 C 
ATOM     12  C   UNL     1      16.483  12.978  20.161  0.00  0.00    +0.089 C 
ATOM     13  C   UNL     1      14.979  11.758  18.696  0.00  0.00    +0.094 C 
ATOM     15  C   UNL     1      17.703  13.993  18.151  0.00  0.00    +0.130 C 
ATOM     19  C   UNL     1      16.191  12.654  16.680  0.00  0.00    +0.026 A 
ATOM     24  C   UNL     1      15.979  11.965  15.546  0.00  0.00    +0.022 A 
ATOM     25  C   UNL     1      18.568  12.907  16.133  0.00  0.00    +0.251 A 
ATOM     26  C   UNL     1      17.058  11.693  14.639  0.00  0.00    +0.007 A 
ATOM     28  C   UNL     1      18.297  12.119  14.898  0.00  0.00    +0.070 A 
ENDBRANCH  16   6
ENDBRANCH  18  16
ENDBRANCH  14  18
BRANCH  17  23
ATOM     23  C   UNL     1      16.457   7.011  19.261  0.00  0.00    +0.124 C 
BRANCH  23  29
ATOM      4  O   UNL     1      18.023   6.119  20.903  0.00  0.00    -0.251 OA
ATOM     29  C   UNL     1      17.558   6.123  19.774  0.00  0.00    +0.305 C 
BRANCH  29   3
ATOM      3  O   UNL     1      17.981   5.298  18.782  0.00  0.00    -0.481 OA
ATOM     37  H   UNL     1      17.834   5.688  17.894  0.00  0.00    +0.295 HD
ENDBRANCH  29   3
ENDBRANCH  23  29
ENDBRANCH  17  23
TORSDOF 8
ENDMDL
