REMARK  Name = 26743171
REMARK  11 active torsions:
REMARK  status: ('A' for Active; 'I' for Inactive)
REMARK    1  A    between atoms: O_3  and  C_20
REMARK    2  A    between atoms: O_3  and  C_26
REMARK    3  A    between atoms: O_4  and  C_27
REMARK    4  A    between atoms: O_4  and  C_33
REMARK    5  A    between atoms: N_6  and  C_19
REMARK    6  A    between atoms: C_8  and  C_14
REMARK    7  A    between atoms: C_9  and  C_13
REMARK    8  A    between atoms: C_13  and  C_15
REMARK    9  A    between atoms: C_14  and  C_16
REMARK   10  A    between atoms: C_18  and  C_20
REMARK   11  A    between atoms: C_19  and  C_21
REMARK                            x       y       z     vdW  Elec       q    Type
REMARK                         _______ _______ _______ _____ _____    ______ ____
ROOT
ATOM      5  N   UNL     1      -4.261   3.505   0.290  0.00  0.00    -0.316 NA
ATOM      8  C   UNL     1      -4.748   0.619   0.187  0.00  0.00    +0.004 C 
ATOM      9  C   UNL     1      -3.332   1.195   0.430  0.00  0.00    +0.012 C 
ATOM     10  C   UNL     1      -5.630   1.626  -0.567  0.00  0.00    +0.019 C 
ATOM     11  C   UNL     1      -3.450   2.583   1.087  0.00  0.00    +0.085 C 
ATOM     12  C   UNL     1      -5.620   2.995   0.112  0.00  0.00    +0.081 C 
ATOM     34  H   UNL     1      -3.828   3.641  -0.623  0.00  0.00    +0.122 HD
ENDROOT
BRANCH   9  13
ATOM     13  C   UNL     1      -2.465   1.263  -0.834  0.00  0.00    +0.064 C 
BRANCH  13  15
ATOM      2  O   UNL     1       0.454   3.294  -0.273  0.00  0.00    -0.356 OA
ATOM      7  N   UNL     1      -0.885   3.131  -0.608  0.00  0.00    -0.083 NA
ATOM     15  C   UNL     1      -1.102   1.814  -0.533  0.00  0.00    +0.084 A 
ATOM     17  C   UNL     1       0.052   1.104  -0.159  0.00  0.00    +0.074 A 
ATOM     18  C   UNL     1       1.001   2.080  -0.008  0.00  0.00    +0.175 A 
BRANCH  18  20
ATOM     20  C   UNL     1       2.420   2.069   0.366  0.00  0.00    +0.306 C 
BRANCH  20   3
ATOM      3  O   UNL     1       3.172   1.284  -0.563  0.00  0.00    -0.484 OA
BRANCH   3  26
ATOM     26  C   UNL     1       4.504   1.134  -0.296  0.00  0.00    +0.121 A 
ATOM     28  C   UNL     1       5.060   1.732   0.834  0.00  0.00    +0.045 A 
ATOM     29  C   UNL     1       5.307   0.383  -1.154  0.00  0.00    +0.045 A 
ATOM     30  C   UNL     1       6.420   1.580   1.106  0.00  0.00    +0.004 A 
ATOM     31  C   UNL     1       6.666   0.230  -0.882  0.00  0.00    +0.004 A 
ATOM     32  C   UNL     1       7.223   0.829   0.248  0.00  0.00    +0.000 A 
ENDBRANCH   3  26
ENDBRANCH  20   3
ENDBRANCH  18  20
ENDBRANCH  13  15
ENDBRANCH   9  13
BRANCH   8  14
ATOM     14  C   UNL     1      -4.741  -0.734  -0.521  0.00  0.00    +0.099 C 
BRANCH  14  16
ATOM      1  O   UNL     1      -3.812  -1.767   1.459  0.00  0.00    -0.276 OA
ATOM      6  N   UNL     1      -3.400  -2.716  -0.622  0.00  0.00    -0.311 N 
ATOM     16  C   UNL     1      -3.946  -1.774   0.239  0.00  0.00    +0.214 C 
ATOM     35  H   UNL     1      -3.561  -2.633  -1.621  0.00  0.00    +0.149 HD
BRANCH   6  19
ATOM     19  C   UNL     1      -2.591  -3.824  -0.169  0.00  0.00    +0.139 C 
BRANCH  19  21
ATOM     21  C   UNL     1      -1.132  -3.473  -0.122  0.00  0.00    -0.030 A 
ATOM     22  C   UNL     1      -0.396  -3.392  -1.304  0.00  0.00    +0.009 A 
ATOM     23  C   UNL     1      -0.513  -3.226   1.103  0.00  0.00    +0.009 A 
ATOM     24  C   UNL     1       0.960  -3.066  -1.261  0.00  0.00    +0.046 A 
ATOM     25  C   UNL     1       0.842  -2.900   1.147  0.00  0.00    +0.046 A 
ATOM     27  C   UNL     1       1.578  -2.819  -0.035  0.00  0.00    +0.120 A 
BRANCH  27   4
ATOM      4  O   UNL     1       2.901  -2.500   0.007  0.00  0.00    -0.495 OA
ATOM     33  C   UNL     1       3.470  -2.261   1.294  0.00  0.00    +0.277 C 
ENDBRANCH  27   4
ENDBRANCH  19  21
ENDBRANCH   6  19
ENDBRANCH  14  16
ENDBRANCH   8  14
TORSDOF 10
