REMARK  Name = 45783385
REMARK  8 active torsions:
REMARK  status: ('A' for Active; 'I' for Inactive)
REMARK    1  A    between atoms: O_2  and  C_27
REMARK    2  A    between atoms: O_2  and  C_28
REMARK    3  A    between atoms: N_3  and  C_9
REMARK    4  A    between atoms: N_4  and  C_19
REMARK    5  A    between atoms: N_7  and  C_25
REMARK    6  A    between atoms: C_10  and  C_18
REMARK    7  A    between atoms: C_20  and  C_21
REMARK    8  A    between atoms: C_25  and  C_27
REMARK                            x       y       z     vdW  Elec       q    Type
REMARK                         _______ _______ _______ _____ _____    ______ ____
ROOT
ATOM      1  O   UNL     1       0.143   0.623   2.871  0.00  0.00    -0.336 OA
ATOM      5  N   UNL     1       0.565  -0.044   0.775  0.00  0.00    -0.190 NA
ATOM      6  N   UNL     1       1.376   1.188   2.523  0.00  0.00    -0.056 NA
ATOM     18  C   UNL     1      -0.265  -0.087   1.786  0.00  0.00    +0.245 A 
ATOM     20  C   UNL     1       1.556   0.750   1.274  0.00  0.00    +0.205 A 
ENDROOT
BRANCH  20  21
ATOM      7  N   UNL     1       2.597  -1.000  -0.707  0.00  0.00    -0.326 N 
ATOM      8  N   UNL     1       4.326   0.532  -1.217  0.00  0.00    -0.240 NA
ATOM     21  C   UNL     1       2.716   1.085   0.499  0.00  0.00    +0.062 A 
ATOM     22  C   UNL     1       3.236   0.243  -0.471  0.00  0.00    +0.130 A 
ATOM     23  C   UNL     1       3.354   2.300   0.717  0.00  0.00    +0.016 A 
ATOM     24  C   UNL     1       4.479   2.633  -0.031  0.00  0.00    +0.020 A 
ATOM     26  C   UNL     1       4.921   1.722  -0.977  0.00  0.00    +0.113 A 
ATOM     29  H   UNL     1       2.051  -1.373   0.064  0.00  0.00    +0.148 HD
BRANCH   7  25
ATOM     25  C   UNL     1       3.060  -1.931  -1.683  0.00  0.00    +0.131 C 
BRANCH  25  27
ATOM     27  C   UNL     1       2.147  -3.144  -1.718  0.00  0.00    +0.178 C 
BRANCH  27   2
ATOM      2  O   UNL     1       0.819  -2.730  -2.017  0.00  0.00    -0.381 OA
ATOM     28  C   UNL     1      -0.075  -3.834  -2.054  0.00  0.00    +0.194 C 
ENDBRANCH  27   2
ENDBRANCH  25  27
ENDBRANCH   7  25
ENDBRANCH  20  21
BRANCH  18  10
ATOM      3  N   UNL     1      -2.262  -0.988   0.606  0.00  0.00    -0.288 NA
ATOM     10  C   UNL     1      -1.593  -0.804   1.909  0.00  0.00    +0.146 C 
ATOM     11  C   UNL     1      -3.063  -2.206   0.720  0.00  0.00    +0.085 C 
ATOM     14  C   UNL     1      -1.449  -2.228   2.478  0.00  0.00    +0.030 C 
ATOM     15  C   UNL     1      -2.119  -3.135   1.456  0.00  0.00    +0.017 C 
BRANCH   3   9
ATOM      4  N   UNL     1      -3.611   2.318  -1.700  0.00  0.00    -0.305 NA
ATOM      9  C   UNL     1      -3.067   0.164   0.205  0.00  0.00    +0.060 C 
ATOM     12  C   UNL     1      -3.720  -0.094  -1.156  0.00  0.00    +0.034 C 
ATOM     13  C   UNL     1      -2.213   1.434   0.142  0.00  0.00    +0.034 C 
ATOM     16  C   UNL     1      -4.486   1.140  -1.639  0.00  0.00    +0.085 C 
ATOM     17  C   UNL     1      -3.029   2.618  -0.384  0.00  0.00    +0.085 C 
ATOM     19  C   UNL     1      -4.345   3.476  -2.210  0.00  0.00    +0.104 C 
ENDBRANCH   3   9
ENDBRANCH  18  10
TORSDOF 6
