MODEL 1
REMARK VINA RESULT:      -5.4      0.000      0.000
REMARK  Name = 75536653
REMARK  9 active torsions:
REMARK  status: ('A' for Active; 'I' for Inactive)
REMARK    1  A    between atoms: S_1  and  N_7
REMARK    2  A    between atoms: S_1  and  C_16
REMARK    3  A    between atoms: O_3  and  C_9
REMARK    4  A    between atoms: N_6  and  C_8
REMARK    5  A    between atoms: N_6  and  C_13
REMARK    6  A    between atoms: N_7  and  C_12
REMARK    7  A    between atoms: C_10  and  C_12
REMARK    8  A    between atoms: C_13  and  C_14
REMARK    9  A    between atoms: C_13  and  C_15
REMARK                            x       y       z     vdW  Elec       q    Type
REMARK                         _______ _______ _______ _____ _____    ______ ____
ROOT
ATOM      2  O   UNL     1      13.472   8.202  21.369  0.00  0.00    -0.371 OA
ATOM      8  C   UNL     1      11.443   8.941  22.359  0.00  0.00    +0.111 C 
ATOM      9  C   UNL     1      11.120   8.060  21.166  0.00  0.00    +0.164 C 
ATOM     10  C   UNL     1      12.422   7.287  21.011  0.00  0.00    +0.164 C 
ATOM     11  C   UNL     1      12.890   9.311  22.076  0.00  0.00    +0.181 C 
ENDROOT
BRANCH   9   3
ATOM      3  O   UNL     1      10.022   7.201  21.405  0.00  0.00    -0.388 OA
ATOM     18  H   UNL     1      10.361   6.299  21.533  0.00  0.00    +0.210 HD
ENDBRANCH   9   3
BRANCH   8   6
ATOM      6  N   UNL     1      10.575  10.102  22.480  0.00  0.00    -0.307 NA
ATOM     17  H   UNL     1       9.787   9.888  23.091  0.00  0.00    +0.123 HD
BRANCH   6  13
ATOM     13  C   UNL     1      11.306  11.254  22.994  0.00  0.00    +0.048 C 
ATOM     14  C   UNL     1      11.016  12.470  22.120  0.00  0.00    +0.023 C 
ATOM     15  C   UNL     1      10.922  11.518  24.447  0.00  0.00    +0.023 C 
ENDBRANCH   6  13
ENDBRANCH   8   6
BRANCH  10  12
ATOM     12  C   UNL     1      12.649   6.771  19.601  0.00  0.00    +0.139 C 
BRANCH  12   7
ATOM      7  N   UNL     1      11.740   7.466  18.668  0.00  0.00    -0.192 NA
ATOM     19  H   UNL     1      10.942   7.915  19.135  0.00  0.00    +0.148 HD
BRANCH   7   1
ATOM      1  S   UNL     1      12.400   8.300  17.333  0.00  0.00    +0.027 S 
ATOM      4  O   UNL     1      11.345   8.654  16.404  0.00  0.00    -0.158 OA
ATOM      5  O   UNL     1      13.577   7.585  16.881  0.00  0.00    -0.158 OA
ATOM     16  C   UNL     1      12.957   9.792  18.123  0.00  0.00    +0.214 C 
ENDBRANCH   7   1
ENDBRANCH  12   7
ENDBRANCH  10  12
TORSDOF 6
ENDMDL
MODEL 2
REMARK VINA RESULT:      -5.3      3.358      4.933
REMARK  Name = 75536653
REMARK  9 active torsions:
REMARK  status: ('A' for Active; 'I' for Inactive)
REMARK    1  A    between atoms: S_1  and  N_7
REMARK    2  A    between atoms: S_1  and  C_16
REMARK    3  A    between atoms: O_3  and  C_9
REMARK    4  A    between atoms: N_6  and  C_8
REMARK    5  A    between atoms: N_6  and  C_13
REMARK    6  A    between atoms: N_7  and  C_12
REMARK    7  A    between atoms: C_10  and  C_12
REMARK    8  A    between atoms: C_13  and  C_14
REMARK    9  A    between atoms: C_13  and  C_15
REMARK                            x       y       z     vdW  Elec       q    Type
REMARK                         _______ _______ _______ _____ _____    ______ ____
ROOT
ATOM      2  O   UNL     1      12.968   9.182  20.697  0.00  0.00    -0.371 OA
ATOM      8  C   UNL     1      11.780   8.119  18.936  0.00  0.00    +0.111 C 
ATOM      9  C   UNL     1      12.592   7.078  19.684  0.00  0.00    +0.164 C 
ATOM     10  C   UNL     1      12.826   7.786  21.011  0.00  0.00    +0.164 C 
ATOM     11  C   UNL     1      12.469   9.404  19.366  0.00  0.00    +0.181 C 
ENDROOT
BRANCH   9   3
ATOM      3  O   UNL     1      11.894   5.860  19.851  0.00  0.00    -0.388 OA
ATOM     18  H   UNL     1      12.140   5.482  20.714  0.00  0.00    +0.210 HD
ENDBRANCH   9   3
BRANCH   8   6
ATOM      6  N   UNL     1      11.779   7.934  17.494  0.00  0.00    -0.307 NA
ATOM     17  H   UNL     1      10.836   8.060  17.125  0.00  0.00    +0.123 HD
BRANCH   6  13
ATOM     13  C   UNL     1      12.696   8.861  16.843  0.00  0.00    +0.048 C 
ATOM     14  C   UNL     1      13.997   8.139  16.508  0.00  0.00    +0.023 C 
ATOM     15  C   UNL     1      12.054   9.447  15.588  0.00  0.00    +0.023 C 
ENDBRANCH   6  13
ENDBRANCH   8   6
BRANCH  10  12
ATOM     12  C   UNL     1      14.062   7.296  21.743  0.00  0.00    +0.139 C 
BRANCH  12   7
ATOM      7  N   UNL     1      14.766   6.298  20.913  0.00  0.00    -0.192 NA
ATOM     19  H   UNL     1      14.133   5.630  20.454  0.00  0.00    +0.148 HD
BRANCH   7   1
ATOM      1  S   UNL     1      16.132   6.781  20.013  0.00  0.00    +0.027 S 
ATOM      4  O   UNL     1      16.061   8.203  19.738  0.00  0.00    -0.158 OA
ATOM      5  O   UNL     1      16.337   5.828  18.941  0.00  0.00    -0.158 OA
ATOM     16  C   UNL     1      17.421   6.520  21.209  0.00  0.00    +0.214 C 
ENDBRANCH   7   1
ENDBRANCH  12   7
ENDBRANCH  10  12
TORSDOF 6
ENDMDL
MODEL 3
REMARK VINA RESULT:      -5.3     15.553     17.014
REMARK  Name = 75536653
REMARK  9 active torsions:
REMARK  status: ('A' for Active; 'I' for Inactive)
REMARK    1  A    between atoms: S_1  and  N_7
REMARK    2  A    between atoms: S_1  and  C_16
REMARK    3  A    between atoms: O_3  and  C_9
REMARK    4  A    between atoms: N_6  and  C_8
REMARK    5  A    between atoms: N_6  and  C_13
REMARK    6  A    between atoms: N_7  and  C_12
REMARK    7  A    between atoms: C_10  and  C_12
REMARK    8  A    between atoms: C_13  and  C_14
REMARK    9  A    between atoms: C_13  and  C_15
REMARK                            x       y       z     vdW  Elec       q    Type
REMARK                         _______ _______ _______ _____ _____    ______ ____
ROOT
ATOM      2  O   UNL     1      -0.876   0.467  23.364  0.00  0.00    -0.371 OA
ATOM      8  C   UNL     1      -0.772   2.619  24.363  0.00  0.00    +0.111 C 
ATOM      9  C   UNL     1      -0.741   1.565  25.454  0.00  0.00    +0.164 C 
ATOM     10  C   UNL     1      -0.286   0.343  24.668  0.00  0.00    +0.164 C 
ATOM     11  C   UNL     1      -1.323   1.823  23.191  0.00  0.00    +0.181 C 
ENDROOT
BRANCH   9   3
ATOM      3  O   UNL     1       0.158   1.887  26.497  0.00  0.00    -0.388 OA
ATOM     18  H   UNL     1       1.051   1.608  26.229  0.00  0.00    +0.210 HD
ENDBRANCH   9   3
BRANCH   8   6
ATOM      6  N   UNL     1      -1.586   3.778  24.693  0.00  0.00    -0.307 NA
ATOM     17  H   UNL     1      -1.705   4.369  23.869  0.00  0.00    +0.123 HD
BRANCH   6  13
ATOM     13  C   UNL     1      -2.889   3.376  25.208  0.00  0.00    +0.048 C 
ATOM     14  C   UNL     1      -3.198   4.163  26.478  0.00  0.00    +0.023 C 
ATOM     15  C   UNL     1      -3.967   3.595  24.151  0.00  0.00    +0.023 C 
ENDBRANCH   6  13
ENDBRANCH   8   6
BRANCH  10  12
ATOM     12  C   UNL     1      -0.710  -0.970  25.302  0.00  0.00    +0.139 C 
BRANCH  12   7
ATOM      7  N   UNL     1      -1.684  -1.650  24.426  0.00  0.00    -0.192 NA
ATOM     19  H   UNL     1      -1.289  -2.455  23.924  0.00  0.00    +0.148 HD
BRANCH   7   1
ATOM      1  S   UNL     1      -3.301  -1.807  24.948  0.00  0.00    +0.027 S 
ATOM      4  O   UNL     1      -3.411  -1.403  26.336  0.00  0.00    -0.158 OA
ATOM      5  O   UNL     1      -3.803  -3.095  24.509  0.00  0.00    -0.158 OA
ATOM     16  C   UNL     1      -4.089  -0.563  23.952  0.00  0.00    +0.214 C 
ENDBRANCH   7   1
ENDBRANCH  12   7
ENDBRANCH  10  12
TORSDOF 6
ENDMDL
MODEL 4
REMARK VINA RESULT:      -5.2      4.243      5.805
REMARK  Name = 75536653
REMARK  9 active torsions:
REMARK  status: ('A' for Active; 'I' for Inactive)
REMARK    1  A    between atoms: S_1  and  N_7
REMARK    2  A    between atoms: S_1  and  C_16
REMARK    3  A    between atoms: O_3  and  C_9
REMARK    4  A    between atoms: N_6  and  C_8
REMARK    5  A    between atoms: N_6  and  C_13
REMARK    6  A    between atoms: N_7  and  C_12
REMARK    7  A    between atoms: C_10  and  C_12
REMARK    8  A    between atoms: C_13  and  C_14
REMARK    9  A    between atoms: C_13  and  C_15
REMARK                            x       y       z     vdW  Elec       q    Type
REMARK                         _______ _______ _______ _____ _____    ______ ____
ROOT
ATOM      2  O   UNL     1      16.077   6.306  18.957  0.00  0.00    -0.371 OA
ATOM      8  C   UNL     1      16.836   6.711  21.170  0.00  0.00    +0.111 C 
ATOM      9  C   UNL     1      15.452   7.311  21.004  0.00  0.00    +0.164 C 
ATOM     10  C   UNL     1      14.937   6.532  19.802  0.00  0.00    +0.164 C 
ATOM     11  C   UNL     1      17.270   6.549  19.722  0.00  0.00    +0.181 C 
ENDROOT
BRANCH   9   3
ATOM      3  O   UNL     1      14.637   7.124  22.144  0.00  0.00    -0.388 OA
ATOM     18  H   UNL     1      15.016   6.405  22.678  0.00  0.00    +0.210 HD
ENDBRANCH   9   3
BRANCH   8   6
ATOM      6  N   UNL     1      17.745   7.543  21.943  0.00  0.00    -0.307 NA
ATOM     17  H   UNL     1      17.702   7.286  22.930  0.00  0.00    +0.123 HD
BRANCH   6  13
ATOM     13  C   UNL     1      19.113   7.421  21.456  0.00  0.00    +0.048 C 
ATOM     14  C   UNL     1      19.750   8.805  21.380  0.00  0.00    +0.023 C 
ATOM     15  C   UNL     1      19.917   6.496  22.365  0.00  0.00    +0.023 C 
ENDBRANCH   6  13
ENDBRANCH   8   6
BRANCH  10  12
ATOM     12  C   UNL     1      13.859   7.267  19.027  0.00  0.00    +0.139 C 
BRANCH  12   7
ATOM      7  N   UNL     1      12.529   6.868  19.528  0.00  0.00    -0.192 NA
ATOM     19  H   UNL     1      12.502   5.906  19.891  0.00  0.00    +0.148 HD
BRANCH   7   1
ATOM      1  S   UNL     1      11.576   8.014  20.359  0.00  0.00    +0.027 S 
ATOM      4  O   UNL     1      10.490   8.460  19.507  0.00  0.00    -0.158 OA
ATOM      5  O   UNL     1      12.459   8.970  20.996  0.00  0.00    -0.158 OA
ATOM     16  C   UNL     1      10.883   6.996  21.640  0.00  0.00    +0.214 C 
ENDBRANCH   7   1
ENDBRANCH  12   7
ENDBRANCH  10  12
TORSDOF 6
ENDMDL
MODEL 5
REMARK VINA RESULT:      -5.1      2.487      5.148
REMARK  Name = 75536653
REMARK  9 active torsions:
REMARK  status: ('A' for Active; 'I' for Inactive)
REMARK    1  A    between atoms: S_1  and  N_7
REMARK    2  A    between atoms: S_1  and  C_16
REMARK    3  A    between atoms: O_3  and  C_9
REMARK    4  A    between atoms: N_6  and  C_8
REMARK    5  A    between atoms: N_6  and  C_13
REMARK    6  A    between atoms: N_7  and  C_12
REMARK    7  A    between atoms: C_10  and  C_12
REMARK    8  A    between atoms: C_13  and  C_14
REMARK    9  A    between atoms: C_13  and  C_15
REMARK                            x       y       z     vdW  Elec       q    Type
REMARK                         _______ _______ _______ _____ _____    ______ ____
ROOT
ATOM      2  O   UNL     1      10.484   8.407  19.860  0.00  0.00    -0.371 OA
ATOM      8  C   UNL     1      12.504   7.404  19.116  0.00  0.00    +0.111 C 
ATOM      9  C   UNL     1      12.511   7.464  20.632  0.00  0.00    +0.164 C 
ATOM     10  C   UNL     1      11.024   7.609  20.927  0.00  0.00    +0.164 C 
ATOM     11  C   UNL     1      11.432   8.428  18.779  0.00  0.00    +0.181 C 
ENDROOT
BRANCH   9   3
ATOM      3  O   UNL     1      13.054   6.299  21.221  0.00  0.00    -0.388 OA
ATOM     18  H   UNL     1      13.999   6.454  21.391  0.00  0.00    +0.210 HD
ENDBRANCH   9   3
BRANCH   8   6
ATOM      6  N   UNL     1      13.791   7.713  18.513  0.00  0.00    -0.307 NA
ATOM     17  H   UNL     1      13.991   7.057  17.758  0.00  0.00    +0.123 HD
BRANCH   6  13
ATOM     13  C   UNL     1      13.820   9.079  18.006  0.00  0.00    +0.048 C 
ATOM     14  C   UNL     1      14.850   9.889  18.787  0.00  0.00    +0.023 C 
ATOM     15  C   UNL     1      14.137   9.082  16.513  0.00  0.00    +0.023 C 
ENDBRANCH   6  13
ENDBRANCH   8   6
BRANCH  10  12
ATOM     12  C   UNL     1      10.738   8.273  22.261  0.00  0.00    +0.139 C 
BRANCH  12   7
ATOM      7  N   UNL     1      11.958   8.949  22.749  0.00  0.00    -0.192 NA
ATOM     19  H   UNL     1      12.824   8.455  22.499  0.00  0.00    +0.148 HD
BRANCH   7   1
ATOM      1  S   UNL     1      12.027  10.654  22.726  0.00  0.00    +0.027 S 
ATOM      4  O   UNL     1      11.350  11.158  21.547  0.00  0.00    -0.158 OA
ATOM      5  O   UNL     1      13.384  11.062  23.034  0.00  0.00    -0.158 OA
ATOM     16  C   UNL     1      11.023  11.040  24.141  0.00  0.00    +0.214 C 
ENDBRANCH   7   1
ENDBRANCH  12   7
ENDBRANCH  10  12
TORSDOF 6
ENDMDL
MODEL 6
REMARK VINA RESULT:      -4.9      2.916      4.140
REMARK  Name = 75536653
REMARK  9 active torsions:
REMARK  status: ('A' for Active; 'I' for Inactive)
REMARK    1  A    between atoms: S_1  and  N_7
REMARK    2  A    between atoms: S_1  and  C_16
REMARK    3  A    between atoms: O_3  and  C_9
REMARK    4  A    between atoms: N_6  and  C_8
REMARK    5  A    between atoms: N_6  and  C_13
REMARK    6  A    between atoms: N_7  and  C_12
REMARK    7  A    between atoms: C_10  and  C_12
REMARK    8  A    between atoms: C_13  and  C_14
REMARK    9  A    between atoms: C_13  and  C_15
REMARK                            x       y       z     vdW  Elec       q    Type
REMARK                         _______ _______ _______ _____ _____    ______ ____
ROOT
ATOM      2  O   UNL     1      13.133  10.178  18.247  0.00  0.00    -0.371 OA
ATOM      8  C   UNL     1      11.847   8.534  19.382  0.00  0.00    +0.111 C 
ATOM      9  C   UNL     1      11.762   8.284  17.888  0.00  0.00    +0.164 C 
ATOM     10  C   UNL     1      12.995   9.029  17.395  0.00  0.00    +0.164 C 
ATOM     11  C   UNL     1      12.323   9.977  19.419  0.00  0.00    +0.181 C 
ENDROOT
BRANCH   9   3
ATOM      3  O   UNL     1      11.810   6.909  17.561  0.00  0.00    -0.388 OA
ATOM     18  H   UNL     1      12.507   6.491  18.096  0.00  0.00    +0.210 HD
ENDBRANCH   9   3
BRANCH   8   6
ATOM      6  N   UNL     1      10.587   8.336  20.080  0.00  0.00    -0.307 NA
ATOM     17  H   UNL     1       9.909   7.893  19.460  0.00  0.00    +0.123 HD
BRANCH   6  13
ATOM     13  C   UNL     1      10.771   7.524  21.277  0.00  0.00    +0.048 C 
ATOM     14  C   UNL     1      12.021   6.663  21.121  0.00  0.00    +0.023 C 
ATOM     15  C   UNL     1      10.869   8.416  22.511  0.00  0.00    +0.023 C 
ENDBRANCH   6  13
ENDBRANCH   8   6
BRANCH  10  12
ATOM     12  C   UNL     1      12.890   9.472  15.947  0.00  0.00    +0.139 C 
BRANCH  12   7
ATOM      7  N   UNL     1      13.301  10.885  15.831  0.00  0.00    -0.192 NA
ATOM     19  H   UNL     1      13.168  11.421  16.699  0.00  0.00    +0.148 HD
BRANCH   7   1
ATOM      1  S   UNL     1      14.683  11.275  14.909  0.00  0.00    +0.027 S 
ATOM      4  O   UNL     1      14.376  12.360  13.998  0.00  0.00    -0.158 OA
ATOM      5  O   UNL     1      15.274  10.043  14.423  0.00  0.00    -0.158 OA
ATOM     16  C   UNL     1      15.753  11.912  16.177  0.00  0.00    +0.214 C 
ENDBRANCH   7   1
ENDBRANCH  12   7
ENDBRANCH  10  12
TORSDOF 6
ENDMDL
MODEL 7
REMARK VINA RESULT:      -4.9      3.117      5.537
REMARK  Name = 75536653
REMARK  9 active torsions:
REMARK  status: ('A' for Active; 'I' for Inactive)
REMARK    1  A    between atoms: S_1  and  N_7
REMARK    2  A    between atoms: S_1  and  C_16
REMARK    3  A    between atoms: O_3  and  C_9
REMARK    4  A    between atoms: N_6  and  C_8
REMARK    5  A    between atoms: N_6  and  C_13
REMARK    6  A    between atoms: N_7  and  C_12
REMARK    7  A    between atoms: C_10  and  C_12
REMARK    8  A    between atoms: C_13  and  C_14
REMARK    9  A    between atoms: C_13  and  C_15
REMARK                            x       y       z     vdW  Elec       q    Type
REMARK                         _______ _______ _______ _____ _____    ______ ____
ROOT
ATOM      2  O   UNL     1      11.536   7.020  20.200  0.00  0.00    -0.371 OA
ATOM      8  C   UNL     1      13.901   7.070  20.415  0.00  0.00    +0.111 C 
ATOM      9  C   UNL     1      13.310   8.244  21.173  0.00  0.00    +0.164 C 
ATOM     10  C   UNL     1      11.877   7.771  21.377  0.00  0.00    +0.164 C 
ATOM     11  C   UNL     1      12.748   6.694  19.498  0.00  0.00    +0.181 C 
ENDROOT
BRANCH   9   3
ATOM      3  O   UNL     1      13.967   8.484  22.403  0.00  0.00    -0.388 OA
ATOM     18  H   UNL     1      14.622   9.190  22.268  0.00  0.00    +0.210 HD
ENDBRANCH   9   3
BRANCH   8   6
ATOM      6  N   UNL     1      15.118   7.396  19.689  0.00  0.00    -0.307 NA
ATOM     17  H   UNL     1      15.329   8.389  19.787  0.00  0.00    +0.123 HD
BRANCH   6  13
ATOM     13  C   UNL     1      16.243   6.599  20.162  0.00  0.00    +0.048 C 
ATOM     14  C   UNL     1      16.909   5.907  18.978  0.00  0.00    +0.023 C 
ATOM     15  C   UNL     1      17.236   7.480  20.914  0.00  0.00    +0.023 C 
ENDBRANCH   6  13
ENDBRANCH   8   6
BRANCH  10  12
ATOM     12  C   UNL     1      10.891   8.909  21.566  0.00  0.00    +0.139 C 
BRANCH  12   7
ATOM      7  N   UNL     1      11.499  10.173  21.104  0.00  0.00    -0.192 NA
ATOM     19  H   UNL     1      11.205  10.445  20.157  0.00  0.00    +0.148 HD
BRANCH   7   1
ATOM      1  S   UNL     1      11.718  11.445  22.220  0.00  0.00    +0.027 S 
ATOM      4  O   UNL     1      10.952  12.602  21.803  0.00  0.00    -0.158 OA
ATOM      5  O   UNL     1      13.133  11.559  22.515  0.00  0.00    -0.158 OA
ATOM     16  C   UNL     1      10.931  10.757  23.658  0.00  0.00    +0.214 C 
ENDBRANCH   7   1
ENDBRANCH  12   7
ENDBRANCH  10  12
TORSDOF 6
ENDMDL
MODEL 8
REMARK VINA RESULT:      -4.8     15.491     17.175
REMARK  Name = 75536653
REMARK  9 active torsions:
REMARK  status: ('A' for Active; 'I' for Inactive)
REMARK    1  A    between atoms: S_1  and  N_7
REMARK    2  A    between atoms: S_1  and  C_16
REMARK    3  A    between atoms: O_3  and  C_9
REMARK    4  A    between atoms: N_6  and  C_8
REMARK    5  A    between atoms: N_6  and  C_13
REMARK    6  A    between atoms: N_7  and  C_12
REMARK    7  A    between atoms: C_10  and  C_12
REMARK    8  A    between atoms: C_13  and  C_14
REMARK    9  A    between atoms: C_13  and  C_15
REMARK                            x       y       z     vdW  Elec       q    Type
REMARK                         _______ _______ _______ _____ _____    ______ ____
ROOT
ATOM      2  O   UNL     1      -0.809   1.043  26.099  0.00  0.00    -0.371 OA
ATOM      8  C   UNL     1      -0.727  -0.908  24.746  0.00  0.00    +0.111 C 
ATOM      9  C   UNL     1      -0.557   0.315  23.863  0.00  0.00    +0.164 C 
ATOM     10  C   UNL     1      -0.109   1.353  24.883  0.00  0.00    +0.164 C 
ATOM     11  C   UNL     1      -1.333  -0.293  25.997  0.00  0.00    +0.181 C 
ENDROOT
BRANCH   9   3
ATOM      3  O   UNL     1       0.408   0.123  22.847  0.00  0.00    -0.388 OA
ATOM     18  H   UNL     1       0.100  -0.592  22.263  0.00  0.00    +0.210 HD
ENDBRANCH   9   3
BRANCH   8   6
ATOM      6  N   UNL     1      -1.566  -1.940  24.159  0.00  0.00    -0.307 NA
ATOM     17  H   UNL     1      -1.173  -2.862  24.349  0.00  0.00    +0.123 HD
BRANCH   6  13
ATOM     13  C   UNL     1      -2.928  -1.866  24.673  0.00  0.00    +0.048 C 
ATOM     14  C   UNL     1      -3.831  -1.215  23.629  0.00  0.00    +0.023 C 
ATOM     15  C   UNL     1      -3.431  -3.259  25.042  0.00  0.00    +0.023 C 
ENDBRANCH   6  13
ENDBRANCH   8   6
BRANCH  10  12
ATOM     12  C   UNL     1      -0.416   2.779  24.462  0.00  0.00    +0.139 C 
BRANCH  12   7
ATOM      7  N   UNL     1      -1.770   2.841  23.876  0.00  0.00    -0.192 NA
ATOM     19  H   UNL     1      -2.002   2.023  23.298  0.00  0.00    +0.148 HD
BRANCH   7   1
ATOM      1  S   UNL     1      -3.046   3.495  24.802  0.00  0.00    +0.027 S 
ATOM      4  O   UNL     1      -3.817   4.418  23.993  0.00  0.00    -0.158 OA
ATOM      5  O   UNL     1      -2.517   3.901  26.090  0.00  0.00    -0.158 OA
ATOM     16  C   UNL     1      -4.035   2.042  25.069  0.00  0.00    +0.214 C 
ENDBRANCH   7   1
ENDBRANCH  12   7
ENDBRANCH  10  12
TORSDOF 6
ENDMDL
MODEL 9
REMARK VINA RESULT:      -4.7     28.921     30.255
REMARK  Name = 75536653
REMARK  9 active torsions:
REMARK  status: ('A' for Active; 'I' for Inactive)
REMARK    1  A    between atoms: S_1  and  N_7
REMARK    2  A    between atoms: S_1  and  C_16
REMARK    3  A    between atoms: O_3  and  C_9
REMARK    4  A    between atoms: N_6  and  C_8
REMARK    5  A    between atoms: N_6  and  C_13
REMARK    6  A    between atoms: N_7  and  C_12
REMARK    7  A    between atoms: C_10  and  C_12
REMARK    8  A    between atoms: C_13  and  C_14
REMARK    9  A    between atoms: C_13  and  C_15
REMARK                            x       y       z     vdW  Elec       q    Type
REMARK                         _______ _______ _______ _____ _____    ______ ____
ROOT
ATOM      2  O   UNL     1     -13.279   4.257  32.319  0.00  0.00    -0.371 OA
ATOM      8  C   UNL     1     -14.690   4.217  34.229  0.00  0.00    +0.111 C 
ATOM      9  C   UNL     1     -14.887   2.935  33.441  0.00  0.00    +0.164 C 
ATOM     10  C   UNL     1     -13.601   2.891  32.627  0.00  0.00    +0.164 C 
ATOM     11  C   UNL     1     -14.042   5.114  33.187  0.00  0.00    +0.181 C 
ENDROOT
BRANCH   9   3
ATOM      3  O   UNL     1     -15.024   1.799  34.274  0.00  0.00    -0.388 OA
ATOM     18  H   UNL     1     -15.381   2.089  35.131  0.00  0.00    +0.210 HD
ENDBRANCH   9   3
BRANCH   8   6
ATOM      6  N   UNL     1     -15.925   4.770  34.763  0.00  0.00    -0.307 NA
ATOM     17  H   UNL     1     -15.723   5.588  35.337  0.00  0.00    +0.123 HD
BRANCH   6  13
ATOM     13  C   UNL     1     -16.846   5.129  33.692  0.00  0.00    +0.048 C 
ATOM     14  C   UNL     1     -18.151   4.359  33.865  0.00  0.00    +0.023 C 
ATOM     15  C   UNL     1     -17.093   6.635  33.690  0.00  0.00    +0.023 C 
ENDBRANCH   6  13
ENDBRANCH   8   6
BRANCH  10  12
ATOM     12  C   UNL     1     -13.731   2.091  31.343  0.00  0.00    +0.139 C 
BRANCH  12   7
ATOM      7  N   UNL     1     -14.736   1.024  31.524  0.00  0.00    -0.192 NA
ATOM     19  H   UNL     1     -15.566   1.331  32.047  0.00  0.00    +0.148 HD
BRANCH   7   1
ATOM      1  S   UNL     1     -15.011  -0.081  30.254  0.00  0.00    +0.027 S 
ATOM      4  O   UNL     1     -15.863  -1.159  30.716  0.00  0.00    -0.158 OA
ATOM      5  O   UNL     1     -13.744  -0.363  29.608  0.00  0.00    -0.158 OA
ATOM     16  C   UNL     1     -15.960   0.929  29.141  0.00  0.00    +0.214 C 
ENDBRANCH   7   1
ENDBRANCH  12   7
ENDBRANCH  10  12
TORSDOF 6
ENDMDL
MODEL 10
REMARK VINA RESULT:      -4.7      4.712      6.180
REMARK  Name = 75536653
REMARK  9 active torsions:
REMARK  status: ('A' for Active; 'I' for Inactive)
REMARK    1  A    between atoms: S_1  and  N_7
REMARK    2  A    between atoms: S_1  and  C_16
REMARK    3  A    between atoms: O_3  and  C_9
REMARK    4  A    between atoms: N_6  and  C_8
REMARK    5  A    between atoms: N_6  and  C_13
REMARK    6  A    between atoms: N_7  and  C_12
REMARK    7  A    between atoms: C_10  and  C_12
REMARK    8  A    between atoms: C_13  and  C_14
REMARK    9  A    between atoms: C_13  and  C_15
REMARK                            x       y       z     vdW  Elec       q    Type
REMARK                         _______ _______ _______ _____ _____    ______ ____
ROOT
ATOM      2  O   UNL     1      15.660   6.726  19.213  0.00  0.00    -0.371 OA
ATOM      8  C   UNL     1      14.221   7.818  20.756  0.00  0.00    +0.111 C 
ATOM      9  C   UNL     1      15.536   7.502  21.444  0.00  0.00    +0.164 C 
ATOM     10  C   UNL     1      16.459   7.327  20.246  0.00  0.00    +0.164 C 
ATOM     11  C   UNL     1      14.273   6.878  19.562  0.00  0.00    +0.181 C 
ENDROOT
BRANCH   9   3
ATOM      3  O   UNL     1      15.969   8.545  22.296  0.00  0.00    -0.388 OA
ATOM     18  H   UNL     1      15.329   9.275  22.235  0.00  0.00    +0.210 HD
ENDBRANCH   9   3
BRANCH   8   6
ATOM      6  N   UNL     1      13.054   7.600  21.596  0.00  0.00    -0.307 NA
ATOM     17  H   UNL     1      12.808   8.462  22.084  0.00  0.00    +0.123 HD
BRANCH   6  13
ATOM     13  C   UNL     1      11.919   7.133  20.811  0.00  0.00    +0.048 C 
ATOM     14  C   UNL     1      11.248   5.968  21.531  0.00  0.00    +0.023 C 
ATOM     15  C   UNL     1      10.934   8.274  20.574  0.00  0.00    +0.023 C 
ENDBRANCH   6  13
ENDBRANCH   8   6
BRANCH  10  12
ATOM     12  C   UNL     1      17.663   6.450  20.540  0.00  0.00    +0.139 C 
BRANCH  12   7
ATOM      7  N   UNL     1      18.189   6.765  21.884  0.00  0.00    -0.192 NA
ATOM     19  H   UNL     1      18.218   5.951  22.511  0.00  0.00    +0.148 HD
BRANCH   7   1
ATOM      1  S   UNL     1      19.473   7.879  22.032  0.00  0.00    +0.027 S 
ATOM      4  O   UNL     1      18.947   9.197  22.331  0.00  0.00    -0.158 OA
ATOM      5  O   UNL     1      20.385   7.679  20.924  0.00  0.00    -0.158 OA
ATOM     16  C   UNL     1      20.272   7.264  23.496  0.00  0.00    +0.214 C 
ENDBRANCH   7   1
ENDBRANCH  12   7
ENDBRANCH  10  12
TORSDOF 6
ENDMDL
