MODEL 1
REMARK VINA RESULT:      -7.3      0.000      0.000
REMARK  Name = 51138049
REMARK  9 active torsions:
REMARK  status: ('A' for Active; 'I' for Inactive)
REMARK    1  A    between atoms: N_3  and  C_20
REMARK    2  A    between atoms: N_4  and  C_25
REMARK    3  A    between atoms: C_7  and  C_11
REMARK    4  A    between atoms: C_10  and  C_18
REMARK    5  A    between atoms: C_11  and  C_15
REMARK    6  A    between atoms: C_15  and  C_22
REMARK    7  A    between atoms: C_15  and  C_23
REMARK    8  A    between atoms: C_20  and  C_24
REMARK    9  A    between atoms: C_25  and  C_28
REMARK                            x       y       z     vdW  Elec       q    Type
REMARK                         _______ _______ _______ _____ _____    ______ ____
ROOT
ATOM      2  N   UNL     1      -6.824 -11.268  16.249  0.00  0.00    -0.299 NA
ATOM      3  N   UNL     1      -4.169 -10.011  12.140  0.00  0.00    -0.342 N 
ATOM      7  C   UNL     1      -5.429 -11.157  16.694  0.00  0.00    +0.085 C 
ATOM      8  C   UNL     1      -4.386 -10.962  15.588  0.00  0.00    -0.021 A 
ATOM      9  C   UNL     1      -4.671 -10.549  14.255  0.00  0.00    +0.008 A 
ATOM     10  C   UNL     1      -7.353 -10.074  15.606  0.00  0.00    +0.145 C 
ATOM     12  C   UNL     1      -5.878 -10.200  13.553  0.00  0.00    -0.020 A 
ATOM     13  C   UNL     1      -7.271 -10.173  14.084  0.00  0.00    +0.065 C 
ATOM     14  C   UNL     1      -3.623 -10.394  13.341  0.00  0.00    +0.050 A 
ATOM     16  C   UNL     1      -5.522  -9.885  12.257  0.00  0.00    +0.091 A 
ATOM     17  C   UNL     1      -3.015 -11.123  15.913  0.00  0.00    +0.006 A 
ATOM     19  C   UNL     1      -2.282 -10.604  13.668  0.00  0.00    +0.026 A 
ATOM     21  C   UNL     1      -1.993 -10.960  14.978  0.00  0.00    +0.002 A 
ATOM     35  H   UNL     1      -6.953 -12.091  15.661  0.00  0.00    +0.123 HD
ENDROOT
BRANCH  10  18
ATOM      1  O   UNL     1      -9.659 -10.667  15.444  0.00  0.00    -0.274 OA
ATOM      4  N   UNL     1      -9.000  -9.137  17.070  0.00  0.00    -0.308 N 
ATOM     18  C   UNL     1      -8.793 -10.012  16.017  0.00  0.00    +0.231 C 
ATOM     36  H   UNL     1      -8.205  -8.662  17.488  0.00  0.00    +0.149 HD
BRANCH   4  25
ATOM     25  C   UNL     1     -10.303  -8.879  17.638  0.00  0.00    +0.159 C 
BRANCH  25  28
ATOM      6  N   UNL     1     -10.408  -6.844  16.316  0.00  0.00    -0.258 NA
ATOM     28  C   UNL     1     -11.090  -7.898  16.819  0.00  0.00    +0.058 A 
ATOM     31  C   UNL     1     -12.444  -8.111  16.620  0.00  0.00    +0.025 A 
ATOM     32  C   UNL     1     -13.145  -7.184  15.856  0.00  0.00    +0.003 A 
ATOM     33  C   UNL     1     -11.122  -5.963  15.580  0.00  0.00    +0.111 A 
ATOM     34  C   UNL     1     -12.478  -6.087  15.323  0.00  0.00    +0.020 A 
ENDBRANCH  25  28
ENDBRANCH   4  25
ENDBRANCH  10  18
BRANCH   7  11
ATOM     11  C   UNL     1      -5.181 -12.432  17.520  0.00  0.00    +0.026 C 
BRANCH  11  15
ATOM     15  C   UNL     1      -5.004 -12.151  19.016  0.00  0.00    -0.015 C 
ATOM     22  C   UNL     1      -5.627 -10.794  19.350  0.00  0.00    +0.007 C 
ATOM     23  C   UNL     1      -3.538 -12.168  19.449  0.00  0.00    +0.007 C 
ENDBRANCH  11  15
ENDBRANCH   7  11
BRANCH   3  20
ATOM     20  C   UNL     1      -3.431  -9.754  10.921  0.00  0.00    +0.157 C 
BRANCH  20  24
ATOM      5  N   UNL     1      -5.042 -11.789   7.489  0.00  0.00    -0.263 NA
ATOM     24  C   UNL     1      -3.996 -10.467   9.719  0.00  0.00    -0.025 A 
ATOM     26  C   UNL     1      -3.930 -11.854   9.634  0.00  0.00    +0.025 A 
ATOM     27  C   UNL     1      -4.584  -9.741   8.689  0.00  0.00    +0.025 A 
ATOM     29  C   UNL     1      -4.464 -12.461   8.509  0.00  0.00    +0.111 A 
ATOM     30  C   UNL     1      -5.088 -10.443   7.606  0.00  0.00    +0.111 A 
ENDBRANCH  20  24
ENDBRANCH   3  20
TORSDOF 7
ENDMDL
MODEL 2
REMARK VINA RESULT:      -7.3     28.365     30.667
REMARK  Name = 51138049
REMARK  9 active torsions:
REMARK  status: ('A' for Active; 'I' for Inactive)
REMARK    1  A    between atoms: N_3  and  C_20
REMARK    2  A    between atoms: N_4  and  C_25
REMARK    3  A    between atoms: C_7  and  C_11
REMARK    4  A    between atoms: C_10  and  C_18
REMARK    5  A    between atoms: C_11  and  C_15
REMARK    6  A    between atoms: C_15  and  C_22
REMARK    7  A    between atoms: C_15  and  C_23
REMARK    8  A    between atoms: C_20  and  C_24
REMARK    9  A    between atoms: C_25  and  C_28
REMARK                            x       y       z     vdW  Elec       q    Type
REMARK                         _______ _______ _______ _____ _____    ______ ____
ROOT
ATOM      2  N   UNL     1      13.405   9.103  20.399  0.00  0.00    -0.299 NA
ATOM      3  N   UNL     1      18.372   9.005  21.310  0.00  0.00    -0.342 N 
ATOM      7  C   UNL     1      13.842   7.739  20.076  0.00  0.00    +0.085 C 
ATOM      8  C   UNL     1      15.356   7.499  20.095  0.00  0.00    -0.021 A 
ATOM      9  C   UNL     1      16.315   8.355  20.709  0.00  0.00    +0.008 A 
ATOM     10  C   UNL     1      13.716   9.537  21.753  0.00  0.00    +0.145 C 
ATOM     12  C   UNL     1      16.228   9.586  21.447  0.00  0.00    -0.020 A 
ATOM     13  C   UNL     1      15.002  10.360  21.797  0.00  0.00    +0.065 C 
ATOM     14  C   UNL     1      17.672   8.013  20.667  0.00  0.00    +0.050 A 
ATOM     16  C   UNL     1      17.515   9.953  21.788  0.00  0.00    +0.091 A 
ATOM     17  C   UNL     1      15.859   6.298  19.532  0.00  0.00    +0.006 A 
ATOM     19  C   UNL     1      18.152   6.849  20.066  0.00  0.00    +0.026 A 
ATOM     21  C   UNL     1      17.218   5.987  19.508  0.00  0.00    +0.002 A 
ATOM     35  H   UNL     1      13.753   9.769  19.710  0.00  0.00    +0.123 HD
ENDROOT
BRANCH  10  18
ATOM      1  O   UNL     1      12.140  11.300  21.439  0.00  0.00    -0.274 OA
ATOM      4  N   UNL     1      12.086  10.080  23.421  0.00  0.00    -0.308 N 
ATOM     18  C   UNL     1      12.564  10.404  22.162  0.00  0.00    +0.231 C 
ATOM     36  H   UNL     1      12.497   9.300  23.926  0.00  0.00    +0.149 HD
BRANCH   4  25
ATOM     25  C   UNL     1      10.994  10.781  24.055  0.00  0.00    +0.159 C 
BRANCH  25  28
ATOM      6  N   UNL     1      12.711  11.890  25.367  0.00  0.00    -0.258 NA
ATOM     28  C   UNL     1      11.469  11.970  24.839  0.00  0.00    +0.058 A 
ATOM     31  C   UNL     1      10.634  13.067  24.982  0.00  0.00    +0.025 A 
ATOM     32  C   UNL     1      11.104  14.152  25.714  0.00  0.00    +0.003 A 
ATOM     33  C   UNL     1      13.133  12.963  26.073  0.00  0.00    +0.111 A 
ATOM     34  C   UNL     1      12.376  14.106  26.274  0.00  0.00    +0.020 A 
ENDBRANCH  25  28
ENDBRANCH   4  25
ENDBRANCH  10  18
BRANCH   7  11
ATOM     11  C   UNL     1      13.216   7.444  18.702  0.00  0.00    +0.026 C 
BRANCH  11  15
ATOM     15  C   UNL     1      13.009   8.704  17.856  0.00  0.00    -0.015 C 
ATOM     22  C   UNL     1      11.600   8.684  17.258  0.00  0.00    +0.007 C 
ATOM     23  C   UNL     1      14.043   8.840  16.738  0.00  0.00    +0.007 C 
ENDBRANCH  11  15
ENDBRANCH   7  11
BRANCH   3  20
ATOM     20  C   UNL     1      19.808   9.047  21.483  0.00  0.00    +0.157 C 
BRANCH  20  24
ATOM      5  N   UNL     1      21.263   6.201  24.365  0.00  0.00    -0.263 NA
ATOM     24  C   UNL     1      20.318   8.050  22.493  0.00  0.00    -0.025 A 
ATOM     26  C   UNL     1      20.967   6.896  22.068  0.00  0.00    +0.025 A 
ATOM     27  C   UNL     1      20.141   8.281  23.853  0.00  0.00    +0.025 A 
ATOM     29  C   UNL     1      21.417   6.011  23.036  0.00  0.00    +0.111 A 
ATOM     30  C   UNL     1      20.628   7.335  24.740  0.00  0.00    +0.111 A 
ENDBRANCH  20  24
ENDBRANCH   3  20
TORSDOF 7
ENDMDL
MODEL 3
REMARK VINA RESULT:      -7.3      1.369      2.322
REMARK  Name = 51138049
REMARK  9 active torsions:
REMARK  status: ('A' for Active; 'I' for Inactive)
REMARK    1  A    between atoms: N_3  and  C_20
REMARK    2  A    between atoms: N_4  and  C_25
REMARK    3  A    between atoms: C_7  and  C_11
REMARK    4  A    between atoms: C_10  and  C_18
REMARK    5  A    between atoms: C_11  and  C_15
REMARK    6  A    between atoms: C_15  and  C_22
REMARK    7  A    between atoms: C_15  and  C_23
REMARK    8  A    between atoms: C_20  and  C_24
REMARK    9  A    between atoms: C_25  and  C_28
REMARK                            x       y       z     vdW  Elec       q    Type
REMARK                         _______ _______ _______ _____ _____    ______ ____
ROOT
ATOM      2  N   UNL     1      -6.685 -10.859  16.176  0.00  0.00    -0.299 NA
ATOM      3  N   UNL     1      -3.919 -10.231  11.997  0.00  0.00    -0.342 N 
ATOM      7  C   UNL     1      -5.296 -10.726  16.634  0.00  0.00    +0.085 C 
ATOM      8  C   UNL     1      -4.228 -10.707  15.536  0.00  0.00    -0.021 A 
ATOM      9  C   UNL     1      -4.476 -10.469  14.154  0.00  0.00    +0.008 A 
ATOM     10  C   UNL     1      -7.169  -9.749  15.369  0.00  0.00    +0.145 C 
ATOM     12  C   UNL     1      -5.658 -10.185  13.385  0.00  0.00    -0.020 A 
ATOM     13  C   UNL     1      -7.060 -10.052  13.875  0.00  0.00    +0.065 C 
ATOM     14  C   UNL     1      -3.406 -10.464  13.251  0.00  0.00    +0.050 A 
ATOM     16  C   UNL     1      -5.270 -10.055  12.066  0.00  0.00    +0.091 A 
ATOM     17  C   UNL     1      -2.868 -10.859  15.910  0.00  0.00    +0.006 A 
ATOM     19  C   UNL     1      -2.079 -10.663  13.633  0.00  0.00    +0.026 A 
ATOM     21  C   UNL     1      -1.825 -10.848  14.985  0.00  0.00    +0.002 A 
ATOM     35  H   UNL     1      -6.827 -11.750  15.700  0.00  0.00    +0.123 HD
ENDROOT
BRANCH  10  18
ATOM      1  O   UNL     1      -9.511 -10.065  15.041  0.00  0.00    -0.274 OA
ATOM      4  N   UNL     1      -8.784  -8.866  16.900  0.00  0.00    -0.308 N 
ATOM     18  C   UNL     1      -8.613  -9.596  15.736  0.00  0.00    +0.231 C 
ATOM     36  H   UNL     1      -7.967  -8.544  17.411  0.00  0.00    +0.149 HD
BRANCH   4  25
ATOM     25  C   UNL     1     -10.081  -8.558  17.456  0.00  0.00    +0.159 C 
BRANCH  25  28
ATOM      6  N   UNL     1      -9.553 -10.361  18.996  0.00  0.00    -0.258 NA
ATOM     28  C   UNL     1     -10.522  -9.588  18.456  0.00  0.00    +0.058 A 
ATOM     31  C   UNL     1     -11.866  -9.696  18.771  0.00  0.00    +0.025 A 
ATOM     32  C   UNL     1     -12.242 -10.660  19.701  0.00  0.00    +0.003 A 
ATOM     33  C   UNL     1      -9.956 -11.287  19.895  0.00  0.00    +0.111 A 
ATOM     34  C   UNL     1     -11.275 -11.475  20.278  0.00  0.00    +0.020 A 
ENDBRANCH  25  28
ENDBRANCH   4  25
ENDBRANCH  10  18
BRANCH   7  11
ATOM     11  C   UNL     1      -5.100 -11.886  17.627  0.00  0.00    +0.026 C 
BRANCH  11  15
ATOM     15  C   UNL     1      -4.688 -11.413  19.025  0.00  0.00    -0.015 C 
ATOM     22  C   UNL     1      -3.553 -12.299  19.542  0.00  0.00    +0.007 C 
ATOM     23  C   UNL     1      -5.850 -11.429  20.019  0.00  0.00    +0.007 C 
ENDBRANCH  11  15
ENDBRANCH   7  11
BRANCH   3  20
ATOM     20  C   UNL     1      -3.151 -10.158  10.773  0.00  0.00    +0.157 C 
BRANCH  20  24
ATOM      5  N   UNL     1      -5.446 -11.108   7.259  0.00  0.00    -0.263 NA
ATOM     24  C   UNL     1      -3.955 -10.491   9.542  0.00  0.00    -0.025 A 
ATOM     26  C   UNL     1      -4.140 -11.817   9.167  0.00  0.00    +0.025 A 
ATOM     27  C   UNL     1      -4.514  -9.473   8.777  0.00  0.00    +0.025 A 
ATOM     29  C   UNL     1      -4.888 -12.070   8.028  0.00  0.00    +0.111 A 
ATOM     30  C   UNL     1      -5.244  -9.832   7.655  0.00  0.00    +0.111 A 
ENDBRANCH  20  24
ENDBRANCH   3  20
TORSDOF 7
ENDMDL
MODEL 4
REMARK VINA RESULT:      -7.0     29.256     32.066
REMARK  Name = 51138049
REMARK  9 active torsions:
REMARK  status: ('A' for Active; 'I' for Inactive)
REMARK    1  A    between atoms: N_3  and  C_20
REMARK    2  A    between atoms: N_4  and  C_25
REMARK    3  A    between atoms: C_7  and  C_11
REMARK    4  A    between atoms: C_10  and  C_18
REMARK    5  A    between atoms: C_11  and  C_15
REMARK    6  A    between atoms: C_15  and  C_22
REMARK    7  A    between atoms: C_15  and  C_23
REMARK    8  A    between atoms: C_20  and  C_24
REMARK    9  A    between atoms: C_25  and  C_28
REMARK                            x       y       z     vdW  Elec       q    Type
REMARK                         _______ _______ _______ _____ _____    ______ ____
ROOT
ATOM      2  N   UNL     1      19.206   8.557  22.581  0.00  0.00    -0.299 NA
ATOM      3  N   UNL     1      14.846   8.626  20.031  0.00  0.00    -0.342 N 
ATOM      7  C   UNL     1      19.359   7.571  21.503  0.00  0.00    +0.085 C 
ATOM      8  C   UNL     1      18.097   7.268  20.689  0.00  0.00    -0.021 A 
ATOM      9  C   UNL     1      16.924   8.076  20.661  0.00  0.00    +0.008 A 
ATOM     10  C   UNL     1      18.861   9.898  22.134  0.00  0.00    +0.145 C 
ATOM     12  C   UNL     1      16.547   9.313  21.292  0.00  0.00    -0.020 A 
ATOM     13  C   UNL     1      17.357  10.150  22.223  0.00  0.00    +0.065 C 
ATOM     14  C   UNL     1      15.841   7.693  19.862  0.00  0.00    +0.050 A 
ATOM     16  C   UNL     1      15.261   9.607  20.884  0.00  0.00    +0.091 A 
ATOM     17  C   UNL     1      18.100   6.141  19.827  0.00  0.00    +0.006 A 
ATOM     19  C   UNL     1      15.846   6.553  19.056  0.00  0.00    +0.026 A 
ATOM     21  C   UNL     1      17.004   5.788  19.041  0.00  0.00    +0.002 A 
ATOM     35  H   UNL     1      18.550   8.224  23.287  0.00  0.00    +0.123 HD
ENDROOT
BRANCH  10  18
ATOM      1  O   UNL     1      19.906  11.954  22.746  0.00  0.00    -0.274 OA
ATOM      4  N   UNL     1      19.802  10.233  24.310  0.00  0.00    -0.308 N 
ATOM     18  C   UNL     1      19.570  10.821  23.078  0.00  0.00    +0.231 C 
ATOM     36  H   UNL     1      19.458   9.294  24.488  0.00  0.00    +0.149 HD
BRANCH   4  25
ATOM     25  C   UNL     1      20.489  10.905  25.389  0.00  0.00    +0.159 C 
BRANCH  25  28
ATOM      6  N   UNL     1      19.660   9.597  27.261  0.00  0.00    -0.258 NA
ATOM     28  C   UNL     1      20.743   9.988  26.551  0.00  0.00    +0.058 A 
ATOM     31  C   UNL     1      22.040   9.596  26.836  0.00  0.00    +0.025 A 
ATOM     32  C   UNL     1      22.241   8.746  27.918  0.00  0.00    +0.003 A 
ATOM     33  C   UNL     1      19.894   8.772  28.306  0.00  0.00    +0.111 A 
ATOM     34  C   UNL     1      21.153   8.322  28.672  0.00  0.00    +0.020 A 
ENDBRANCH  25  28
ENDBRANCH   4  25
ENDBRANCH  10  18
BRANCH   7  11
ATOM     11  C   UNL     1      19.928   6.320  22.196  0.00  0.00    +0.026 C 
BRANCH  11  15
ATOM     15  C   UNL     1      21.279   5.882  21.622  0.00  0.00    -0.015 C 
ATOM     22  C   UNL     1      21.738   6.902  20.578  0.00  0.00    +0.007 C 
ATOM     23  C   UNL     1      21.229   4.488  20.995  0.00  0.00    +0.007 C 
ENDBRANCH  11  15
ENDBRANCH   7  11
BRANCH   3  20
ATOM     20  C   UNL     1      13.548   8.601  19.392  0.00  0.00    +0.157 C 
BRANCH  20  24
ATOM      5  N   UNL     1      10.393   7.251  21.989  0.00  0.00    -0.263 NA
ATOM     24  C   UNL     1      12.443   8.128  20.302  0.00  0.00    -0.025 A 
ATOM     26  C   UNL     1      12.302   6.773  20.584  0.00  0.00    +0.025 A 
ATOM     27  C   UNL     1      11.560   9.044  20.863  0.00  0.00    +0.025 A 
ATOM     29  C   UNL     1      11.270   6.390  21.426  0.00  0.00    +0.111 A 
ATOM     30  C   UNL     1      10.562   8.559  21.692  0.00  0.00    +0.111 A 
ENDBRANCH  20  24
ENDBRANCH   3  20
TORSDOF 7
ENDMDL
MODEL 5
REMARK VINA RESULT:      -6.7     29.347     31.815
REMARK  Name = 51138049
REMARK  9 active torsions:
REMARK  status: ('A' for Active; 'I' for Inactive)
REMARK    1  A    between atoms: N_3  and  C_20
REMARK    2  A    between atoms: N_4  and  C_25
REMARK    3  A    between atoms: C_7  and  C_11
REMARK    4  A    between atoms: C_10  and  C_18
REMARK    5  A    between atoms: C_11  and  C_15
REMARK    6  A    between atoms: C_15  and  C_22
REMARK    7  A    between atoms: C_15  and  C_23
REMARK    8  A    between atoms: C_20  and  C_24
REMARK    9  A    between atoms: C_25  and  C_28
REMARK                            x       y       z     vdW  Elec       q    Type
REMARK                         _______ _______ _______ _____ _____    ______ ____
ROOT
ATOM      2  N   UNL     1      19.177   8.662  22.618  0.00  0.00    -0.299 NA
ATOM      3  N   UNL     1      14.824   8.699  20.057  0.00  0.00    -0.342 N 
ATOM      7  C   UNL     1      19.328   7.653  21.562  0.00  0.00    +0.085 C 
ATOM      8  C   UNL     1      18.066   7.338  20.752  0.00  0.00    -0.021 A 
ATOM      9  C   UNL     1      16.897   8.151  20.704  0.00  0.00    +0.008 A 
ATOM     10  C   UNL     1      18.841   9.996  22.141  0.00  0.00    +0.145 C 
ATOM     12  C   UNL     1      16.526   9.403  21.306  0.00  0.00    -0.020 A 
ATOM     13  C   UNL     1      17.338  10.257  22.221  0.00  0.00    +0.065 C 
ATOM     14  C   UNL     1      15.814   7.757  19.910  0.00  0.00    +0.050 A 
ATOM     16  C   UNL     1      15.242   9.696  20.888  0.00  0.00    +0.091 A 
ATOM     17  C   UNL     1      18.066   6.192  19.915  0.00  0.00    +0.006 A 
ATOM     19  C   UNL     1      15.816   6.600  19.130  0.00  0.00    +0.026 A 
ATOM     21  C   UNL     1      16.970   5.828  19.135  0.00  0.00    +0.002 A 
ATOM     35  H   UNL     1      18.518   8.348  23.330  0.00  0.00    +0.123 HD
ENDROOT
BRANCH  10  18
ATOM      1  O   UNL     1      20.751  11.174  22.950  0.00  0.00    -0.274 OA
ATOM      4  N   UNL     1      18.711  11.452  24.037  0.00  0.00    -0.308 N 
ATOM     18  C   UNL     1      19.552  10.935  23.066  0.00  0.00    +0.231 C 
ATOM     36  H   UNL     1      17.725  11.206  24.026  0.00  0.00    +0.149 HD
BRANCH   4  25
ATOM     25  C   UNL     1      19.157  12.365  25.064  0.00  0.00    +0.159 C 
BRANCH  25  28
ATOM      6  N   UNL     1      18.320  14.073  26.575  0.00  0.00    -0.258 NA
ATOM     28  C   UNL     1      18.008  13.057  25.739  0.00  0.00    +0.058 A 
ATOM     31  C   UNL     1      16.714  12.633  25.482  0.00  0.00    +0.025 A 
ATOM     32  C   UNL     1      15.673  13.295  26.122  0.00  0.00    +0.003 A 
ATOM     33  C   UNL     1      17.281  14.692  27.180  0.00  0.00    +0.111 A 
ATOM     34  C   UNL     1      15.953  14.345  26.990  0.00  0.00    +0.020 A 
ENDBRANCH  25  28
ENDBRANCH   4  25
ENDBRANCH  10  18
BRANCH   7  11
ATOM     11  C   UNL     1      19.889   6.414  22.284  0.00  0.00    +0.026 C 
BRANCH  11  15
ATOM     15  C   UNL     1      21.226   5.940  21.705  0.00  0.00    -0.015 C 
ATOM     22  C   UNL     1      22.281   5.931  22.815  0.00  0.00    +0.007 C 
ATOM     23  C   UNL     1      21.706   6.809  20.543  0.00  0.00    +0.007 C 
ENDBRANCH  11  15
ENDBRANCH   7  11
BRANCH   3  20
ATOM     20  C   UNL     1      13.527   8.666  19.415  0.00  0.00    +0.157 C 
BRANCH  20  24
ATOM      5  N   UNL     1      10.399   7.169  21.964  0.00  0.00    -0.263 NA
ATOM     24  C   UNL     1      12.431   8.141  20.309  0.00  0.00    -0.025 A 
ATOM     26  C   UNL     1      12.317   6.776  20.544  0.00  0.00    +0.025 A 
ATOM     27  C   UNL     1      11.531   9.021  20.899  0.00  0.00    +0.025 A 
ATOM     29  C   UNL     1      11.293   6.344  21.373  0.00  0.00    +0.111 A 
ATOM     30  C   UNL     1      10.543   8.490  21.711  0.00  0.00    +0.111 A 
ENDBRANCH  20  24
ENDBRANCH   3  20
TORSDOF 7
ENDMDL
MODEL 6
REMARK VINA RESULT:      -6.7     19.761     23.717
REMARK  Name = 51138049
REMARK  9 active torsions:
REMARK  status: ('A' for Active; 'I' for Inactive)
REMARK    1  A    between atoms: N_3  and  C_20
REMARK    2  A    between atoms: N_4  and  C_25
REMARK    3  A    between atoms: C_7  and  C_11
REMARK    4  A    between atoms: C_10  and  C_18
REMARK    5  A    between atoms: C_11  and  C_15
REMARK    6  A    between atoms: C_15  and  C_22
REMARK    7  A    between atoms: C_15  and  C_23
REMARK    8  A    between atoms: C_20  and  C_24
REMARK    9  A    between atoms: C_25  and  C_28
REMARK                            x       y       z     vdW  Elec       q    Type
REMARK                         _______ _______ _______ _____ _____    ______ ____
ROOT
ATOM      2  N   UNL     1       6.074  -8.113  34.724  0.00  0.00    -0.299 NA
ATOM      3  N   UNL     1       6.942 -12.488  32.355  0.00  0.00    -0.342 N 
ATOM      7  C   UNL     1       6.004  -7.809  33.289  0.00  0.00    +0.085 C 
ATOM      8  C   UNL     1       6.416  -8.943  32.344  0.00  0.00    -0.021 A 
ATOM      9  C   UNL     1       6.524 -10.316  32.708  0.00  0.00    +0.008 A 
ATOM     10  C   UNL     1       5.165  -9.159  35.169  0.00  0.00    +0.145 C 
ATOM     12  C   UNL     1       6.305 -11.048  33.927  0.00  0.00    -0.020 A 
ATOM     13  C   UNL     1       5.866 -10.514  35.249  0.00  0.00    +0.065 C 
ATOM     14  C   UNL     1       6.898 -11.259  31.743  0.00  0.00    +0.050 A 
ATOM     16  C   UNL     1       6.582 -12.375  33.666  0.00  0.00    +0.091 A 
ATOM     17  C   UNL     1       6.637  -8.639  30.976  0.00  0.00    +0.006 A 
ATOM     19  C   UNL     1       7.158 -10.932  30.411  0.00  0.00    +0.026 A 
ATOM     21  C   UNL     1       7.007  -9.603  30.039  0.00  0.00    +0.002 A 
ATOM     35  H   UNL     1       7.033  -8.313  35.007  0.00  0.00    +0.123 HD
ENDROOT
BRANCH  10  18
ATOM      1  O   UNL     1       3.943  -9.417  37.202  0.00  0.00    -0.274 OA
ATOM      4  N   UNL     1       5.312  -7.552  36.937  0.00  0.00    -0.308 N 
ATOM     18  C   UNL     1       4.735  -8.747  36.544  0.00  0.00    +0.231 C 
ATOM     36  H   UNL     1       5.976  -7.091  36.321  0.00  0.00    +0.149 HD
BRANCH   4  25
ATOM     25  C   UNL     1       5.042  -6.926  38.211  0.00  0.00    +0.159 C 
BRANCH  25  28
ATOM      6  N   UNL     1       4.809  -4.658  39.049  0.00  0.00    -0.258 NA
ATOM     28  C   UNL     1       5.499  -5.496  38.243  0.00  0.00    +0.058 A 
ATOM     31  C   UNL     1       6.579  -5.111  37.466  0.00  0.00    +0.025 A 
ATOM     32  C   UNL     1       6.977  -3.779  37.518  0.00  0.00    +0.003 A 
ATOM     33  C   UNL     1       5.224  -3.372  39.073  0.00  0.00    +0.111 A 
ATOM     34  C   UNL     1       6.291  -2.887  38.335  0.00  0.00    +0.020 A 
ENDBRANCH  25  28
ENDBRANCH   4  25
ENDBRANCH  10  18
BRANCH   7  11
ATOM     11  C   UNL     1       6.873  -6.551  33.114  0.00  0.00    +0.026 C 
BRANCH  11  15
ATOM     15  C   UNL     1       8.107  -6.545  34.022  0.00  0.00    -0.015 C 
ATOM     22  C   UNL     1       8.502  -5.098  34.326  0.00  0.00    +0.007 C 
ATOM     23  C   UNL     1       9.294  -7.287  33.408  0.00  0.00    +0.007 C 
ENDBRANCH  11  15
ENDBRANCH   7  11
BRANCH   3  20
ATOM     20  C   UNL     1       7.297 -13.737  31.715  0.00  0.00    +0.157 C 
BRANCH  20  24
ATOM      5  N   UNL     1       4.686 -14.789  28.460  0.00  0.00    -0.263 NA
ATOM     24  C   UNL     1       6.382 -14.105  30.574  0.00  0.00    -0.025 A 
ATOM     26  C   UNL     1       6.910 -14.611  29.391  0.00  0.00    +0.025 A 
ATOM     27  C   UNL     1       5.008 -13.941  30.702  0.00  0.00    +0.025 A 
ATOM     29  C   UNL     1       6.027 -14.935  28.374  0.00  0.00    +0.111 A 
ATOM     30  C   UNL     1       4.210 -14.295  29.625  0.00  0.00    +0.111 A 
ENDBRANCH  20  24
ENDBRANCH   3  20
TORSDOF 7
ENDMDL
MODEL 7
REMARK VINA RESULT:      -6.7      3.431      8.879
REMARK  Name = 51138049
REMARK  9 active torsions:
REMARK  status: ('A' for Active; 'I' for Inactive)
REMARK    1  A    between atoms: N_3  and  C_20
REMARK    2  A    between atoms: N_4  and  C_25
REMARK    3  A    between atoms: C_7  and  C_11
REMARK    4  A    between atoms: C_10  and  C_18
REMARK    5  A    between atoms: C_11  and  C_15
REMARK    6  A    between atoms: C_15  and  C_22
REMARK    7  A    between atoms: C_15  and  C_23
REMARK    8  A    between atoms: C_20  and  C_24
REMARK    9  A    between atoms: C_25  and  C_28
REMARK                            x       y       z     vdW  Elec       q    Type
REMARK                         _______ _______ _______ _____ _____    ______ ____
ROOT
ATOM      2  N   UNL     1      -3.635 -12.219  11.124  0.00  0.00    -0.299 NA
ATOM      3  N   UNL     1      -4.458 -13.053  16.037  0.00  0.00    -0.342 N 
ATOM      7  C   UNL     1      -2.617 -11.436  11.837  0.00  0.00    +0.085 C 
ATOM      8  C   UNL     1      -2.766 -11.373  13.361  0.00  0.00    -0.021 A 
ATOM      9  C   UNL     1      -3.568 -12.254  14.144  0.00  0.00    +0.008 A 
ATOM     10  C   UNL     1      -3.640 -13.640  11.438  0.00  0.00    +0.145 C 
ATOM     12  C   UNL     1      -4.409 -13.380  13.836  0.00  0.00    -0.020 A 
ATOM     13  C   UNL     1      -4.687 -13.976  12.498  0.00  0.00    +0.065 C 
ATOM     14  C   UNL     1      -3.607 -12.099  15.534  0.00  0.00    +0.050 A 
ATOM     16  C   UNL     1      -4.941 -13.833  15.027  0.00  0.00    +0.091 A 
ATOM     17  C   UNL     1      -1.996 -10.423  14.079  0.00  0.00    +0.006 A 
ATOM     19  C   UNL     1      -2.877 -11.125  16.219  0.00  0.00    +0.026 A 
ATOM     21  C   UNL     1      -2.057 -10.296  15.466  0.00  0.00    +0.002 A 
ATOM     35  H   UNL     1      -4.561 -11.811  11.249  0.00  0.00    +0.123 HD
ENDROOT
BRANCH  10  18
ATOM      1  O   UNL     1      -4.476 -15.457  10.138  0.00  0.00    -0.274 OA
ATOM      4  N   UNL     1      -3.714 -13.547   9.047  0.00  0.00    -0.308 N 
ATOM     18  C   UNL     1      -4.001 -14.325  10.156  0.00  0.00    +0.231 C 
ATOM     36  H   UNL     1      -3.342 -12.610   9.178  0.00  0.00    +0.149 HD
BRANCH   4  25
ATOM     25  C   UNL     1      -3.947 -13.986   7.691  0.00  0.00    +0.159 C 
BRANCH  25  28
ATOM      6  N   UNL     1      -5.068 -13.309   5.646  0.00  0.00    -0.258 NA
ATOM     28  C   UNL     1      -4.627 -12.931   6.867  0.00  0.00    +0.058 A 
ATOM     31  C   UNL     1      -4.769 -11.654   7.382  0.00  0.00    +0.025 A 
ATOM     32  C   UNL     1      -5.404 -10.700   6.594  0.00  0.00    +0.003 A 
ATOM     33  C   UNL     1      -5.679 -12.355   4.908  0.00  0.00    +0.111 A 
ATOM     34  C   UNL     1      -5.870 -11.050   5.331  0.00  0.00    +0.020 A 
ENDBRANCH  25  28
ENDBRANCH   4  25
ENDBRANCH  10  18
BRANCH   7  11
ATOM     11  C   UNL     1      -2.667 -10.043  11.182  0.00  0.00    +0.026 C 
BRANCH  11  15
ATOM     15  C   UNL     1      -4.009  -9.750  10.503  0.00  0.00    -0.015 C 
ATOM     22  C   UNL     1      -3.781  -8.796   9.329  0.00  0.00    +0.007 C 
ATOM     23  C   UNL     1      -5.037  -9.151  11.463  0.00  0.00    +0.007 C 
ENDBRANCH  11  15
ENDBRANCH   7  11
BRANCH   3  20
ATOM     20  C   UNL     1      -4.790 -13.235  17.434  0.00  0.00    +0.157 C 
BRANCH  20  24
ATOM      5  N   UNL     1      -7.558 -10.296  18.925  0.00  0.00    -0.263 NA
ATOM     24  C   UNL     1      -5.760 -12.205  17.956  0.00  0.00    -0.025 A 
ATOM     26  C   UNL     1      -5.418 -11.416  19.049  0.00  0.00    +0.025 A 
ATOM     27  C   UNL     1      -6.999 -12.041  17.348  0.00  0.00    +0.025 A 
ATOM     29  C   UNL     1      -6.344 -10.484  19.490  0.00  0.00    +0.111 A 
ATOM     30  C   UNL     1      -7.854 -11.082  17.866  0.00  0.00    +0.111 A 
ENDBRANCH  20  24
ENDBRANCH   3  20
TORSDOF 7
ENDMDL
MODEL 8
REMARK VINA RESULT:      -6.7     11.663     18.843
REMARK  Name = 51138049
REMARK  9 active torsions:
REMARK  status: ('A' for Active; 'I' for Inactive)
REMARK    1  A    between atoms: N_3  and  C_20
REMARK    2  A    between atoms: N_4  and  C_25
REMARK    3  A    between atoms: C_7  and  C_11
REMARK    4  A    between atoms: C_10  and  C_18
REMARK    5  A    between atoms: C_11  and  C_15
REMARK    6  A    between atoms: C_15  and  C_22
REMARK    7  A    between atoms: C_15  and  C_23
REMARK    8  A    between atoms: C_20  and  C_24
REMARK    9  A    between atoms: C_25  and  C_28
REMARK                            x       y       z     vdW  Elec       q    Type
REMARK                         _______ _______ _______ _____ _____    ______ ____
ROOT
ATOM      2  N   UNL     1       1.114 -13.499  -1.609  0.00  0.00    -0.299 NA
ATOM      3  N   UNL     1      -1.996 -14.954   2.094  0.00  0.00    -0.342 N 
ATOM      7  C   UNL     1       1.915 -14.366  -0.735  0.00  0.00    +0.085 C 
ATOM      8  C   UNL     1       1.246 -14.796   0.576  0.00  0.00    -0.021 A 
ATOM      9  C   UNL     1      -0.150 -14.716   0.849  0.00  0.00    +0.008 A 
ATOM     10  C   UNL     1      -0.098 -14.114  -2.130  0.00  0.00    +0.145 C 
ATOM     12  C   UNL     1      -1.293 -14.275   0.095  0.00  0.00    -0.020 A 
ATOM     13  C   UNL     1      -1.321 -13.738  -1.296  0.00  0.00    +0.065 C 
ATOM     14  C   UNL     1      -0.637 -15.156   2.085  0.00  0.00    +0.050 A 
ATOM     16  C   UNL     1      -2.402 -14.431   0.902  0.00  0.00    +0.091 A 
ATOM     17  C   UNL     1       2.047 -15.394   1.582  0.00  0.00    +0.006 A 
ATOM     19  C   UNL     1       0.176 -15.699   3.082  0.00  0.00    +0.026 A 
ATOM     21  C   UNL     1       1.530 -15.824   2.803  0.00  0.00    +0.002 A 
ATOM     35  H   UNL     1       0.910 -12.611  -1.153  0.00  0.00    +0.123 HD
ENDROOT
BRANCH  10  18
ATOM      1  O   UNL     1      -1.059 -14.032  -4.313  0.00  0.00    -0.274 OA
ATOM      4  N   UNL     1       0.604 -12.501  -3.755  0.00  0.00    -0.308 N 
ATOM     18  C   UNL     1      -0.257 -13.558  -3.513  0.00  0.00    +0.231 C 
ATOM     36  H   UNL     1       1.212 -12.172  -3.011  0.00  0.00    +0.149 HD
BRANCH   4  25
ATOM     25  C   UNL     1       0.664 -11.805  -5.019  0.00  0.00    +0.159 C 
BRANCH  25  28
ATOM      6  N   UNL     1       1.205 -12.466  -7.294  0.00  0.00    -0.258 NA
ATOM     28  C   UNL     1       1.579 -12.489  -5.995  0.00  0.00    +0.058 A 
ATOM     31  C   UNL     1       2.734 -13.097  -5.531  0.00  0.00    +0.025 A 
ATOM     32  C   UNL     1       3.559 -13.721  -6.459  0.00  0.00    +0.003 A 
ATOM     33  C   UNL     1       2.031 -13.084  -8.167  0.00  0.00    +0.111 A 
ATOM     34  C   UNL     1       3.208 -13.719  -7.805  0.00  0.00    +0.020 A 
ENDBRANCH  25  28
ENDBRANCH   4  25
ENDBRANCH  10  18
BRANCH   7  11
ATOM     11  C   UNL     1       3.221 -13.586  -0.502  0.00  0.00    +0.026 C 
BRANCH  11  15
ATOM     15  C   UNL     1       4.456 -14.314  -1.043  0.00  0.00    -0.015 C 
ATOM     22  C   UNL     1       4.010 -15.408  -2.016  0.00  0.00    +0.007 C 
ATOM     23  C   UNL     1       5.312 -14.926   0.066  0.00  0.00    +0.007 C 
ENDBRANCH  11  15
ENDBRANCH   7  11
BRANCH   3  20
ATOM     20  C   UNL     1      -2.888 -15.263   3.192  0.00  0.00    +0.157 C 
BRANCH  20  24
ATOM      5  N   UNL     1      -4.722 -11.782   4.933  0.00  0.00    -0.263 NA
ATOM     24  C   UNL     1      -3.530 -14.044   3.802  0.00  0.00    -0.025 A 
ATOM     26  C   UNL     1      -4.875 -13.774   3.572  0.00  0.00    +0.025 A 
ATOM     27  C   UNL     1      -2.781 -13.184   4.597  0.00  0.00    +0.025 A 
ATOM     29  C   UNL     1      -5.418 -12.641   4.156  0.00  0.00    +0.111 A 
ATOM     30  C   UNL     1      -3.418 -12.077   5.134  0.00  0.00    +0.111 A 
ENDBRANCH  20  24
ENDBRANCH   3  20
TORSDOF 7
ENDMDL
MODEL 9
REMARK VINA RESULT:      -6.6      2.005      7.421
REMARK  Name = 51138049
REMARK  9 active torsions:
REMARK  status: ('A' for Active; 'I' for Inactive)
REMARK    1  A    between atoms: N_3  and  C_20
REMARK    2  A    between atoms: N_4  and  C_25
REMARK    3  A    between atoms: C_7  and  C_11
REMARK    4  A    between atoms: C_10  and  C_18
REMARK    5  A    between atoms: C_11  and  C_15
REMARK    6  A    between atoms: C_15  and  C_22
REMARK    7  A    between atoms: C_15  and  C_23
REMARK    8  A    between atoms: C_20  and  C_24
REMARK    9  A    between atoms: C_25  and  C_28
REMARK                            x       y       z     vdW  Elec       q    Type
REMARK                         _______ _______ _______ _____ _____    ______ ____
ROOT
ATOM      2  N   UNL     1      -4.257 -10.348  14.752  0.00  0.00    -0.299 NA
ATOM      3  N   UNL     1      -8.598  -9.855  17.286  0.00  0.00    -0.342 N 
ATOM      7  C   UNL     1      -4.051 -11.037  16.033  0.00  0.00    +0.085 C 
ATOM      8  C   UNL     1      -5.169 -10.874  17.068  0.00  0.00    -0.021 A 
ATOM      9  C   UNL     1      -6.490 -10.420  16.785  0.00  0.00    +0.008 A 
ATOM     10  C   UNL     1      -5.393 -10.829  13.979  0.00  0.00    +0.145 C 
ATOM     12  C   UNL     1      -7.172 -10.015  15.585  0.00  0.00    -0.020 A 
ATOM     13  C   UNL     1      -6.629  -9.958  14.197  0.00  0.00    +0.065 C 
ATOM     14  C   UNL     1      -7.425 -10.329  17.822  0.00  0.00    +0.050 A 
ATOM     16  C   UNL     1      -8.460  -9.668  15.942  0.00  0.00    +0.091 A 
ATOM     17  C   UNL     1      -4.918 -11.272  18.406  0.00  0.00    +0.006 A 
ATOM     19  C   UNL     1      -7.144 -10.682  19.143  0.00  0.00    +0.026 A 
ATOM     21  C   UNL     1      -5.873 -11.170  19.416  0.00  0.00    +0.002 A 
ATOM     35  H   UNL     1      -4.303  -9.339  14.885  0.00  0.00    +0.123 HD
ENDROOT
BRANCH  10  18
ATOM      1  O   UNL     1      -4.409 -11.654  11.968  0.00  0.00    -0.274 OA
ATOM      4  N   UNL     1      -5.254  -9.485  12.002  0.00  0.00    -0.308 N 
ATOM     18  C   UNL     1      -4.966 -10.725  12.547  0.00  0.00    +0.231 C 
ATOM     36  H   UNL     1      -5.742  -8.794  12.565  0.00  0.00    +0.149 HD
BRANCH   4  25
ATOM     25  C   UNL     1      -4.924  -9.123  10.644  0.00  0.00    +0.159 C 
BRANCH  25  28
ATOM      6  N   UNL     1      -7.312  -8.775  10.369  0.00  0.00    -0.258 NA
ATOM     28  C   UNL     1      -6.140  -9.071   9.764  0.00  0.00    +0.058 A 
ATOM     31  C   UNL     1      -6.008  -9.322   8.408  0.00  0.00    +0.025 A 
ATOM     32  C   UNL     1      -7.153  -9.265   7.621  0.00  0.00    +0.003 A 
ATOM     33  C   UNL     1      -8.404  -8.730   9.572  0.00  0.00    +0.111 A 
ATOM     34  C   UNL     1      -8.378  -8.965   8.207  0.00  0.00    +0.020 A 
ENDBRANCH  25  28
ENDBRANCH   4  25
ENDBRANCH  10  18
BRANCH   7  11
ATOM     11  C   UNL     1      -2.695 -10.515  16.542  0.00  0.00    +0.026 C 
BRANCH  11  15
ATOM     15  C   UNL     1      -1.519 -10.947  15.661  0.00  0.00    -0.015 C 
ATOM     22  C   UNL     1      -1.014  -9.739  14.868  0.00  0.00    +0.007 C 
ATOM     23  C   UNL     1      -1.887 -12.078  14.701  0.00  0.00    +0.007 C 
ENDBRANCH  11  15
ENDBRANCH   7  11
BRANCH   3  20
ATOM     20  C   UNL     1      -9.820  -9.603  18.020  0.00  0.00    +0.157 C 
BRANCH  20  24
ATOM      5  N   UNL     1     -12.489  -6.889  16.013  0.00  0.00    -0.263 NA
ATOM     24  C   UNL     1     -10.755  -8.652  17.317  0.00  0.00    -0.025 A 
ATOM     26  C   UNL     1     -10.357  -7.345  17.059  0.00  0.00    +0.025 A 
ATOM     27  C   UNL     1     -12.018  -9.079  16.924  0.00  0.00    +0.025 A 
ATOM     29  C   UNL     1     -11.253  -6.510  16.410  0.00  0.00    +0.111 A 
ATOM     30  C   UNL     1     -12.840  -8.167  16.281  0.00  0.00    +0.111 A 
ENDBRANCH  20  24
ENDBRANCH   3  20
TORSDOF 7
ENDMDL
MODEL 10
REMARK VINA RESULT:      -6.6     26.158     29.749
REMARK  Name = 51138049
REMARK  9 active torsions:
REMARK  status: ('A' for Active; 'I' for Inactive)
REMARK    1  A    between atoms: N_3  and  C_20
REMARK    2  A    between atoms: N_4  and  C_25
REMARK    3  A    between atoms: C_7  and  C_11
REMARK    4  A    between atoms: C_10  and  C_18
REMARK    5  A    between atoms: C_11  and  C_15
REMARK    6  A    between atoms: C_15  and  C_22
REMARK    7  A    between atoms: C_15  and  C_23
REMARK    8  A    between atoms: C_20  and  C_24
REMARK    9  A    between atoms: C_25  and  C_28
REMARK                            x       y       z     vdW  Elec       q    Type
REMARK                         _______ _______ _______ _____ _____    ______ ____
ROOT
ATOM      2  N   UNL     1      12.300   6.228   4.552  0.00  0.00    -0.299 NA
ATOM      3  N   UNL     1      16.407   9.168   4.559  0.00  0.00    -0.342 N 
ATOM      7  C   UNL     1      11.944   7.407   5.353  0.00  0.00    +0.085 C 
ATOM      8  C   UNL     1      13.091   8.376   5.663  0.00  0.00    -0.021 A 
ATOM      9  C   UNL     1      14.341   8.413   4.982  0.00  0.00    +0.008 A 
ATOM     10  C   UNL     1      12.755   6.525   3.202  0.00  0.00    +0.145 C 
ATOM     12  C   UNL     1      14.908   7.664   3.892  0.00  0.00    -0.020 A 
ATOM     13  C   UNL     1      14.280   6.554   3.119  0.00  0.00    +0.065 C 
ATOM     14  C   UNL     1      15.302   9.360   5.353  0.00  0.00    +0.050 A 
ATOM     16  C   UNL     1      16.179   8.156   3.673  0.00  0.00    +0.091 A 
ATOM     17  C   UNL     1      12.886   9.375   6.649  0.00  0.00    +0.006 A 
ATOM     19  C   UNL     1      15.099  10.305   6.360  0.00  0.00    +0.026 A 
ATOM     21  C   UNL     1      13.864  10.306   6.995  0.00  0.00    +0.002 A 
ATOM     35  H   UNL     1      12.971   5.641   5.047  0.00  0.00    +0.123 HD
ENDROOT
BRANCH  10  18
ATOM      1  O   UNL     1      11.068   5.353   1.989  0.00  0.00    -0.274 OA
ATOM      4  N   UNL     1      13.215   4.458   2.084  0.00  0.00    -0.308 N 
ATOM     18  C   UNL     1      12.238   5.401   2.357  0.00  0.00    +0.231 C 
ATOM     36  H   UNL     1      14.162   4.609   2.420  0.00  0.00    +0.149 HD
BRANCH   4  25
ATOM     25  C   UNL     1      12.967   3.266   1.307  0.00  0.00    +0.159 C 
BRANCH  25  28
ATOM      6  N   UNL     1      12.092   3.223  -0.958  0.00  0.00    -0.258 NA
ATOM     28  C   UNL     1      13.149   3.506  -0.164  0.00  0.00    +0.058 A 
ATOM     31  C   UNL     1      14.360   3.993  -0.628  0.00  0.00    +0.025 A 
ATOM     32  C   UNL     1      14.496   4.204  -1.996  0.00  0.00    +0.003 A 
ATOM     33  C   UNL     1      12.262   3.440  -2.282  0.00  0.00    +0.111 A 
ATOM     34  C   UNL     1      13.432   3.924  -2.845  0.00  0.00    +0.020 A 
ENDBRANCH  25  28
ENDBRANCH   4  25
ENDBRANCH  10  18
BRANCH   7  11
ATOM     11  C   UNL     1      11.298   6.833   6.627  0.00  0.00    +0.026 C 
BRANCH  11  15
ATOM     15  C   UNL     1      10.161   5.849   6.329  0.00  0.00    -0.015 C 
ATOM     22  C   UNL     1       8.929   6.629   5.866  0.00  0.00    +0.007 C 
ATOM     23  C   UNL     1       9.801   4.982   7.535  0.00  0.00    +0.007 C 
ENDBRANCH  11  15
ENDBRANCH   7  11
BRANCH   3  20
ATOM     20  C   UNL     1      17.635   9.931   4.623  0.00  0.00    +0.157 C 
BRANCH  20  24
ATOM      5  N   UNL     1      20.896   7.766   6.410  0.00  0.00    -0.263 NA
ATOM     24  C   UNL     1      18.778   9.173   5.249  0.00  0.00    -0.025 A 
ATOM     26  C   UNL     1      19.574   8.342   4.469  0.00  0.00    +0.025 A 
ATOM     27  C   UNL     1      19.039   9.301   6.609  0.00  0.00    +0.025 A 
ATOM     29  C   UNL     1      20.613   7.667   5.092  0.00  0.00    +0.111 A 
ATOM     30  C   UNL     1      20.100   8.583   7.136  0.00  0.00    +0.111 A 
ENDBRANCH  20  24
ENDBRANCH   3  20
TORSDOF 7
ENDMDL
