MODEL 1
REMARK VINA RESULT:      -6.2      0.000      0.000
REMARK  Name = 45783808
REMARK  9 active torsions:
REMARK  status: ('A' for Active; 'I' for Inactive)
REMARK    1  A    between atoms: N_2  and  C_11
REMARK    2  A    between atoms: N_6  and  C_21
REMARK    3  A    between atoms: N_6  and  C_22
REMARK    4  A    between atoms: N_6  and  C_23
REMARK    5  A    between atoms: C_7  and  C_13
REMARK    6  A    between atoms: C_11  and  C_12
REMARK    7  A    between atoms: C_12  and  C_14
REMARK    8  A    between atoms: C_12  and  C_15
REMARK    9  A    between atoms: C_16  and  C_17
REMARK                            x       y       z     vdW  Elec       q    Type
REMARK                         _______ _______ _______ _____ _____    ______ ____
ROOT
ATOM      1  O   UNL     1      16.289   8.566  20.572  0.00  0.00    -0.336 OA
ATOM      3  N   UNL     1      16.692   6.378  20.315  0.00  0.00    -0.190 NA
ATOM      4  N   UNL     1      17.600   8.357  21.018  0.00  0.00    -0.056 NA
ATOM     13  C   UNL     1      15.827   7.351  20.176  0.00  0.00    +0.245 A 
ATOM     16  C   UNL     1      17.764   7.044  20.835  0.00  0.00    +0.204 A 
ENDROOT
BRANCH  16  17
ATOM      5  N   UNL     1      20.765   5.965  22.748  0.00  0.00    -0.240 NA
ATOM     17  C   UNL     1      18.986   6.366  21.161  0.00  0.00    +0.041 A 
ATOM     18  C   UNL     1      19.577   5.483  20.263  0.00  0.00    +0.016 A 
ATOM     19  C   UNL     1      19.614   6.570  22.378  0.00  0.00    +0.124 A 
ATOM     20  C   UNL     1      20.762   4.840  20.607  0.00  0.00    +0.044 A 
ATOM     21  C   UNL     1      21.310   5.114  21.851  0.00  0.00    +0.121 A 
BRANCH  21   6
ATOM      6  N   UNL     1      22.516   4.451  22.186  0.00  0.00    -0.321 N 
ATOM     22  C   UNL     1      22.962   3.314  21.410  0.00  0.00    +0.130 C 
ATOM     23  C   UNL     1      23.312   4.910  23.303  0.00  0.00    +0.130 C 
ENDBRANCH  21   6
ENDBRANCH  16  17
BRANCH  13   7
ATOM      2  N   UNL     1      13.517   8.261  20.330  0.00  0.00    -0.291 NA
ATOM      7  C   UNL     1      14.411   7.307  19.644  0.00  0.00    +0.146 C 
ATOM      8  C   UNL     1      14.323   7.691  18.154  0.00  0.00    +0.030 C 
ATOM      9  C   UNL     1      12.493   8.642  19.357  0.00  0.00    +0.085 C 
ATOM     10  C   UNL     1      13.311   8.827  18.095  0.00  0.00    +0.017 C 
BRANCH   2  11
ATOM     11  C   UNL     1      12.937   7.726  21.555  0.00  0.00    +0.088 C 
BRANCH  11  12
ATOM     12  C   UNL     1      11.441   7.399  21.401  0.00  0.00    -0.003 C 
ATOM     14  C   UNL     1      11.229   5.887  21.500  0.00  0.00    +0.008 C 
ATOM     15  C   UNL     1      10.575   8.110  22.445  0.00  0.00    +0.008 C 
ENDBRANCH  11  12
ENDBRANCH   2  11
ENDBRANCH  13   7
TORSDOF 5
ENDMDL
MODEL 2
REMARK VINA RESULT:      -6.0      1.719      8.601
REMARK  Name = 45783808
REMARK  9 active torsions:
REMARK  status: ('A' for Active; 'I' for Inactive)
REMARK    1  A    between atoms: N_2  and  C_11
REMARK    2  A    between atoms: N_6  and  C_21
REMARK    3  A    between atoms: N_6  and  C_22
REMARK    4  A    between atoms: N_6  and  C_23
REMARK    5  A    between atoms: C_7  and  C_13
REMARK    6  A    between atoms: C_11  and  C_12
REMARK    7  A    between atoms: C_12  and  C_14
REMARK    8  A    between atoms: C_12  and  C_15
REMARK    9  A    between atoms: C_16  and  C_17
REMARK                            x       y       z     vdW  Elec       q    Type
REMARK                         _______ _______ _______ _____ _____    ______ ____
ROOT
ATOM      1  O   UNL     1      18.882   5.666  19.463  0.00  0.00    -0.336 OA
ATOM      3  N   UNL     1      18.028   6.828  21.175  0.00  0.00    -0.190 NA
ATOM      4  N   UNL     1      17.516   5.812  19.191  0.00  0.00    -0.056 NA
ATOM     13  C   UNL     1      19.100   6.293  20.649  0.00  0.00    +0.245 A 
ATOM     16  C   UNL     1      17.082   6.507  20.247  0.00  0.00    +0.204 A 
ENDROOT
BRANCH  16  17
ATOM      5  N   UNL     1      13.548   7.293  19.396  0.00  0.00    -0.240 NA
ATOM     17  C   UNL     1      15.710   6.897  20.403  0.00  0.00    +0.041 A 
ATOM     18  C   UNL     1      15.202   7.247  21.649  0.00  0.00    +0.016 A 
ATOM     19  C   UNL     1      14.850   6.935  19.318  0.00  0.00    +0.124 A 
ATOM     20  C   UNL     1      13.867   7.620  21.770  0.00  0.00    +0.044 A 
ATOM     21  C   UNL     1      13.090   7.626  20.623  0.00  0.00    +0.121 A 
BRANCH  21   6
ATOM      6  N   UNL     1      11.733   8.007  20.762  0.00  0.00    -0.321 N 
ATOM     22  C   UNL     1      11.017   8.576  19.641  0.00  0.00    +0.130 C 
ATOM     23  C   UNL     1      11.051   7.822  22.024  0.00  0.00    +0.130 C 
ENDBRANCH  21   6
ENDBRANCH  16  17
BRANCH  13   7
ATOM      2  N   UNL     1      21.389   5.344  20.424  0.00  0.00    -0.291 NA
ATOM      7  C   UNL     1      20.521   6.278  21.169  0.00  0.00    +0.146 C 
ATOM      8  C   UNL     1      21.217   7.646  21.038  0.00  0.00    +0.030 C 
ATOM      9  C   UNL     1      22.743   5.894  20.492  0.00  0.00    +0.085 C 
ATOM     10  C   UNL     1      22.495   7.370  20.258  0.00  0.00    +0.017 C 
BRANCH   2  11
ATOM     11  C   UNL     1      21.326   3.978  20.927  0.00  0.00    +0.088 C 
BRANCH  11  12
ATOM     12  C   UNL     1      22.643   3.535  21.589  0.00  0.00    -0.003 C 
ATOM     14  C   UNL     1      22.382   3.136  23.043  0.00  0.00    +0.008 C 
ATOM     15  C   UNL     1      23.312   2.374  20.848  0.00  0.00    +0.008 C 
ENDBRANCH  11  12
ENDBRANCH   2  11
ENDBRANCH  13   7
TORSDOF 5
ENDMDL
MODEL 3
REMARK VINA RESULT:      -6.0     16.618     19.590
REMARK  Name = 45783808
REMARK  9 active torsions:
REMARK  status: ('A' for Active; 'I' for Inactive)
REMARK    1  A    between atoms: N_2  and  C_11
REMARK    2  A    between atoms: N_6  and  C_21
REMARK    3  A    between atoms: N_6  and  C_22
REMARK    4  A    between atoms: N_6  and  C_23
REMARK    5  A    between atoms: C_7  and  C_13
REMARK    6  A    between atoms: C_11  and  C_12
REMARK    7  A    between atoms: C_12  and  C_14
REMARK    8  A    between atoms: C_12  and  C_15
REMARK    9  A    between atoms: C_16  and  C_17
REMARK                            x       y       z     vdW  Elec       q    Type
REMARK                         _______ _______ _______ _____ _____    ______ ____
ROOT
ATOM      1  O   UNL     1      10.079   4.380   5.423  0.00  0.00    -0.336 OA
ATOM      3  N   UNL     1      11.051   5.765   3.956  0.00  0.00    -0.190 NA
ATOM      4  N   UNL     1      10.330   3.617   4.275  0.00  0.00    -0.056 NA
ATOM     13  C   UNL     1      10.533   5.632   5.151  0.00  0.00    +0.245 A 
ATOM     16  C   UNL     1      10.904   4.504   3.456  0.00  0.00    +0.204 A 
ENDROOT
BRANCH  16  17
ATOM      5  N   UNL     1      10.844   3.993  -0.226  0.00  0.00    -0.240 NA
ATOM     17  C   UNL     1      11.341   4.162   2.133  0.00  0.00    +0.041 A 
ATOM     18  C   UNL     1      12.627   3.685   1.904  0.00  0.00    +0.016 A 
ATOM     19  C   UNL     1      10.496   4.297   1.044  0.00  0.00    +0.124 A 
ATOM     20  C   UNL     1      13.023   3.362   0.611  0.00  0.00    +0.044 A 
ATOM     21  C   UNL     1      12.101   3.532  -0.411  0.00  0.00    +0.121 A 
BRANCH  21   6
ATOM      6  N   UNL     1      12.520   3.200  -1.722  0.00  0.00    -0.321 N 
ATOM     22  C   UNL     1      11.884   2.113  -2.435  0.00  0.00    +0.130 C 
ATOM     23  C   UNL     1      13.579   3.950  -2.360  0.00  0.00    +0.130 C 
ENDBRANCH  21   6
ENDBRANCH  16  17
BRANCH  13   7
ATOM      2  N   UNL     1       9.058   7.325   6.221  0.00  0.00    -0.291 NA
ATOM      7  C   UNL     1      10.376   6.660   6.250  0.00  0.00    +0.146 C 
ATOM      8  C   UNL     1      10.473   6.045   7.659  0.00  0.00    +0.030 C 
ATOM      9  C   UNL     1       8.754   7.700   7.602  0.00  0.00    +0.085 C 
ATOM     10  C   UNL     1       9.193   6.468   8.367  0.00  0.00    +0.017 C 
BRANCH   2  11
ATOM     11  C   UNL     1       9.011   8.469   5.320  0.00  0.00    +0.088 C 
BRANCH  11  12
ATOM     12  C   UNL     1       7.935   8.313   4.230  0.00  0.00    -0.003 C 
ATOM     14  C   UNL     1       7.083   9.582   4.160  0.00  0.00    +0.008 C 
ATOM     15  C   UNL     1       8.535   8.018   2.852  0.00  0.00    +0.008 C 
ENDBRANCH  11  12
ENDBRANCH   2  11
ENDBRANCH  13   7
TORSDOF 5
ENDMDL
MODEL 4
REMARK VINA RESULT:      -5.8      1.739      8.201
REMARK  Name = 45783808
REMARK  9 active torsions:
REMARK  status: ('A' for Active; 'I' for Inactive)
REMARK    1  A    between atoms: N_2  and  C_11
REMARK    2  A    between atoms: N_6  and  C_21
REMARK    3  A    between atoms: N_6  and  C_22
REMARK    4  A    between atoms: N_6  and  C_23
REMARK    5  A    between atoms: C_7  and  C_13
REMARK    6  A    between atoms: C_11  and  C_12
REMARK    7  A    between atoms: C_12  and  C_14
REMARK    8  A    between atoms: C_12  and  C_15
REMARK    9  A    between atoms: C_16  and  C_17
REMARK                            x       y       z     vdW  Elec       q    Type
REMARK                         _______ _______ _______ _____ _____    ______ ____
ROOT
ATOM      1  O   UNL     1      18.677   5.576  19.522  0.00  0.00    -0.336 OA
ATOM      3  N   UNL     1      17.943   6.797  21.250  0.00  0.00    -0.190 NA
ATOM      4  N   UNL     1      17.310   5.784  19.299  0.00  0.00    -0.056 NA
ATOM     13  C   UNL     1      18.968   6.205  20.691  0.00  0.00    +0.245 A 
ATOM     16  C   UNL     1      16.949   6.511  20.361  0.00  0.00    +0.204 A 
ENDROOT
BRANCH  16  17
ATOM      5  N   UNL     1      13.390   7.332  19.661  0.00  0.00    -0.240 NA
ATOM     17  C   UNL     1      15.603   6.966  20.562  0.00  0.00    +0.041 A 
ATOM     18  C   UNL     1      15.193   7.469  21.792  0.00  0.00    +0.016 A 
ATOM     19  C   UNL     1      14.672   6.919  19.538  0.00  0.00    +0.124 A 
ATOM     20  C   UNL     1      13.882   7.903  21.958  0.00  0.00    +0.044 A 
ATOM     21  C   UNL     1      13.028   7.814  20.870  0.00  0.00    +0.121 A 
BRANCH  21   6
ATOM      6  N   UNL     1      11.696   8.259  21.055  0.00  0.00    -0.321 N 
ATOM     22  C   UNL     1      10.856   8.537  19.910  0.00  0.00    +0.130 C 
ATOM     23  C   UNL     1      11.165   8.430  22.389  0.00  0.00    +0.130 C 
ENDBRANCH  21   6
ENDBRANCH  16  17
BRANCH  13   7
ATOM      2  N   UNL     1      20.518   5.909  22.614  0.00  0.00    -0.291 NA
ATOM      7  C   UNL     1      20.406   6.129  21.159  0.00  0.00    +0.146 C 
ATOM      8  C   UNL     1      21.175   4.954  20.525  0.00  0.00    +0.030 C 
ATOM      9  C   UNL     1      21.767   5.178  22.827  0.00  0.00    +0.085 C 
ATOM     10  C   UNL     1      21.735   4.165  21.701  0.00  0.00    +0.017 C 
BRANCH   2  11
ATOM     11  C   UNL     1      20.466   7.143  23.388  0.00  0.00    +0.088 C 
BRANCH  11  12
ATOM     12  C   UNL     1      21.086   8.334  22.635  0.00  0.00    -0.003 C 
ATOM     14  C   UNL     1      20.096   9.500  22.609  0.00  0.00    +0.008 C 
ATOM     15  C   UNL     1      22.409   8.794  23.252  0.00  0.00    +0.008 C 
ENDBRANCH  11  12
ENDBRANCH   2  11
ENDBRANCH  13   7
TORSDOF 5
ENDMDL
MODEL 5
REMARK VINA RESULT:      -5.7     16.285     19.175
REMARK  Name = 45783808
REMARK  9 active torsions:
REMARK  status: ('A' for Active; 'I' for Inactive)
REMARK    1  A    between atoms: N_2  and  C_11
REMARK    2  A    between atoms: N_6  and  C_21
REMARK    3  A    between atoms: N_6  and  C_22
REMARK    4  A    between atoms: N_6  and  C_23
REMARK    5  A    between atoms: C_7  and  C_13
REMARK    6  A    between atoms: C_11  and  C_12
REMARK    7  A    between atoms: C_12  and  C_14
REMARK    8  A    between atoms: C_12  and  C_15
REMARK    9  A    between atoms: C_16  and  C_17
REMARK                            x       y       z     vdW  Elec       q    Type
REMARK                         _______ _______ _______ _____ _____    ______ ____
ROOT
ATOM      1  O   UNL     1      11.488   6.686   4.813  0.00  0.00    -0.336 OA
ATOM      3  N   UNL     1      10.073   5.376   3.674  0.00  0.00    -0.190 NA
ATOM      4  N   UNL     1      12.172   6.285   3.659  0.00  0.00    -0.056 NA
ATOM     13  C   UNL     1      10.260   6.107   4.744  0.00  0.00    +0.245 A 
ATOM     16  C   UNL     1      11.272   5.515   3.040  0.00  0.00    +0.204 A 
ENDROOT
BRANCH  16  17
ATOM      5  N   UNL     1      10.753   4.184  -0.394  0.00  0.00    -0.240 NA
ATOM     17  C   UNL     1      11.541   4.871   1.786  0.00  0.00    +0.041 A 
ATOM     18  C   UNL     1      12.790   4.321   1.516  0.00  0.00    +0.016 A 
ATOM     19  C   UNL     1      10.566   4.777   0.806  0.00  0.00    +0.124 A 
ATOM     20  C   UNL     1      13.021   3.703   0.292  0.00  0.00    +0.044 A 
ATOM     21  C   UNL     1      11.979   3.661  -0.621  0.00  0.00    +0.121 A 
BRANCH  21   6
ATOM      6  N   UNL     1      12.230   3.030  -1.863  0.00  0.00    -0.321 N 
ATOM     22  C   UNL     1      13.201   3.588  -2.780  0.00  0.00    +0.130 C 
ATOM     23  C   UNL     1      11.525   1.819  -2.220  0.00  0.00    +0.130 C 
ENDBRANCH  21   6
ENDBRANCH  16  17
BRANCH  13   7
ATOM      2  N   UNL     1       9.999   6.976   7.060  0.00  0.00    -0.291 NA
ATOM      7  C   UNL     1       9.314   6.390   5.891  0.00  0.00    +0.146 C 
ATOM      8  C   UNL     1       8.223   7.414   5.523  0.00  0.00    +0.030 C 
ATOM      9  C   UNL     1       9.012   7.815   7.740  0.00  0.00    +0.085 C 
ATOM     10  C   UNL     1       8.333   8.508   6.576  0.00  0.00    +0.017 C 
BRANCH   2  11
ATOM     11  C   UNL     1      10.574   5.975   7.950  0.00  0.00    +0.088 C 
BRANCH  11  12
ATOM     12  C   UNL     1       9.516   5.003   8.501  0.00  0.00    -0.003 C 
ATOM     14  C   UNL     1       9.695   3.626   7.857  0.00  0.00    +0.008 C 
ATOM     15  C   UNL     1       9.577   4.871  10.025  0.00  0.00    +0.008 C 
ENDBRANCH  11  12
ENDBRANCH   2  11
ENDBRANCH  13   7
TORSDOF 5
ENDMDL
MODEL 6
REMARK VINA RESULT:      -5.7      6.149      9.034
REMARK  Name = 45783808
REMARK  9 active torsions:
REMARK  status: ('A' for Active; 'I' for Inactive)
REMARK    1  A    between atoms: N_2  and  C_11
REMARK    2  A    between atoms: N_6  and  C_21
REMARK    3  A    between atoms: N_6  and  C_22
REMARK    4  A    between atoms: N_6  and  C_23
REMARK    5  A    between atoms: C_7  and  C_13
REMARK    6  A    between atoms: C_11  and  C_12
REMARK    7  A    between atoms: C_12  and  C_14
REMARK    8  A    between atoms: C_12  and  C_15
REMARK    9  A    between atoms: C_16  and  C_17
REMARK                            x       y       z     vdW  Elec       q    Type
REMARK                         _______ _______ _______ _____ _____    ______ ____
ROOT
ATOM      1  O   UNL     1      14.463   9.415  14.742  0.00  0.00    -0.336 OA
ATOM      3  N   UNL     1      13.888  10.549  16.585  0.00  0.00    -0.190 NA
ATOM      4  N   UNL     1      13.932   8.471  15.630  0.00  0.00    -0.056 NA
ATOM     13  C   UNL     1      14.400  10.612  15.382  0.00  0.00    +0.245 A 
ATOM     16  C   UNL     1      13.617   9.217  16.693  0.00  0.00    +0.204 A 
ENDROOT
BRANCH  16  17
ATOM      5  N   UNL     1      11.066   8.329  19.249  0.00  0.00    -0.240 NA
ATOM     17  C   UNL     1      13.029   8.660  17.878  0.00  0.00    +0.041 A 
ATOM     18  C   UNL     1      13.795   7.938  18.786  0.00  0.00    +0.016 A 
ATOM     19  C   UNL     1      11.681   8.826  18.153  0.00  0.00    +0.124 A 
ATOM     20  C   UNL     1      13.197   7.411  19.926  0.00  0.00    +0.044 A 
ATOM     21  C   UNL     1      11.842   7.633  20.109  0.00  0.00    +0.121 A 
BRANCH  21   6
ATOM      6  N   UNL     1      11.248   7.088  21.274  0.00  0.00    -0.321 N 
ATOM     22  C   UNL     1      11.236   5.657  21.484  0.00  0.00    +0.130 C 
ATOM     23  C   UNL     1      10.657   7.960  22.265  0.00  0.00    +0.130 C 
ENDBRANCH  21   6
ENDBRANCH  16  17
BRANCH  13   7
ATOM      2  N   UNL     1      16.183  11.530  13.909  0.00  0.00    -0.291 NA
ATOM      7  C   UNL     1      14.921  11.813  14.621  0.00  0.00    +0.146 C 
ATOM      8  C   UNL     1      13.950  12.288  13.524  0.00  0.00    +0.030 C 
ATOM      9  C   UNL     1      16.200  12.405  12.736  0.00  0.00    +0.085 C 
ATOM     10  C   UNL     1      14.772  12.298  12.242  0.00  0.00    +0.017 C 
BRANCH   2  11
ATOM     11  C   UNL     1      17.365  11.706  14.742  0.00  0.00    +0.088 C 
BRANCH  11  12
ATOM     12  C   UNL     1      17.991  13.103  14.585  0.00  0.00    -0.003 C 
ATOM     14  C   UNL     1      17.704  13.940  15.833  0.00  0.00    +0.008 C 
ATOM     15  C   UNL     1      19.501  13.046  14.338  0.00  0.00    +0.008 C 
ENDBRANCH  11  12
ENDBRANCH   2  11
ENDBRANCH  13   7
TORSDOF 5
ENDMDL
MODEL 7
REMARK VINA RESULT:      -5.6     26.087     30.054
REMARK  Name = 45783808
REMARK  9 active torsions:
REMARK  status: ('A' for Active; 'I' for Inactive)
REMARK    1  A    between atoms: N_2  and  C_11
REMARK    2  A    between atoms: N_6  and  C_21
REMARK    3  A    between atoms: N_6  and  C_22
REMARK    4  A    between atoms: N_6  and  C_23
REMARK    5  A    between atoms: C_7  and  C_13
REMARK    6  A    between atoms: C_11  and  C_12
REMARK    7  A    between atoms: C_12  and  C_14
REMARK    8  A    between atoms: C_12  and  C_15
REMARK    9  A    between atoms: C_16  and  C_17
REMARK                            x       y       z     vdW  Elec       q    Type
REMARK                         _______ _______ _______ _____ _____    ______ ____
ROOT
ATOM      1  O   UNL     1      -4.083 -11.029  17.900  0.00  0.00    -0.336 OA
ATOM      3  N   UNL     1      -5.531 -10.655  16.233  0.00  0.00    -0.190 NA
ATOM      4  N   UNL     1      -5.311 -10.740  18.508  0.00  0.00    -0.056 NA
ATOM     13  C   UNL     1      -4.300 -10.957  16.560  0.00  0.00    +0.245 A 
ATOM     16  C   UNL     1      -6.113 -10.531  17.460  0.00  0.00    +0.204 A 
ENDROOT
BRANCH  16  17
ATOM      5  N   UNL     1      -9.681 -10.763  18.482  0.00  0.00    -0.240 NA
ATOM     17  C   UNL     1      -7.501 -10.196  17.606  0.00  0.00    +0.041 A 
ATOM     18  C   UNL     1      -8.020  -9.034  17.045  0.00  0.00    +0.016 A 
ATOM     19  C   UNL     1      -8.365 -11.019  18.308  0.00  0.00    +0.124 A 
ATOM     20  C   UNL     1      -9.369  -8.735  17.203  0.00  0.00    +0.044 A 
ATOM     21  C   UNL     1     -10.150  -9.625  17.924  0.00  0.00    +0.121 A 
BRANCH  21   6
ATOM      6  N   UNL     1     -11.522  -9.306  18.077  0.00  0.00    -0.321 N 
ATOM     22  C   UNL     1     -12.215  -8.562  17.048  0.00  0.00    +0.130 C 
ATOM     23  C   UNL     1     -12.240  -9.730  19.258  0.00  0.00    +0.130 C 
ENDBRANCH  21   6
ENDBRANCH  16  17
BRANCH  13   7
ATOM      2  N   UNL     1      -3.143 -10.451  14.416  0.00  0.00    -0.291 NA
ATOM      7  C   UNL     1      -3.109 -11.234  15.668  0.00  0.00    +0.146 C 
ATOM      8  C   UNL     1      -1.770 -10.856  16.329  0.00  0.00    +0.030 C 
ATOM      9  C   UNL     1      -1.750 -10.239  14.023  0.00  0.00    +0.085 C 
ATOM     10  C   UNL     1      -1.096  -9.906  15.348  0.00  0.00    +0.017 C 
BRANCH   2  11
ATOM     11  C   UNL     1      -3.920 -11.089  13.361  0.00  0.00    +0.088 C 
BRANCH  11  12
ATOM     12  C   UNL     1      -3.309 -10.865  11.966  0.00  0.00    -0.003 C 
ATOM     14  C   UNL     1      -3.304 -12.182  11.187  0.00  0.00    +0.008 C 
ATOM     15  C   UNL     1      -4.055  -9.794  11.164  0.00  0.00    +0.008 C 
ENDBRANCH  11  12
ENDBRANCH   2  11
ENDBRANCH  13   7
TORSDOF 5
ENDMDL
MODEL 8
REMARK VINA RESULT:      -5.5     27.175     30.966
REMARK  Name = 45783808
REMARK  9 active torsions:
REMARK  status: ('A' for Active; 'I' for Inactive)
REMARK    1  A    between atoms: N_2  and  C_11
REMARK    2  A    between atoms: N_6  and  C_21
REMARK    3  A    between atoms: N_6  and  C_22
REMARK    4  A    between atoms: N_6  and  C_23
REMARK    5  A    between atoms: C_7  and  C_13
REMARK    6  A    between atoms: C_11  and  C_12
REMARK    7  A    between atoms: C_12  and  C_14
REMARK    8  A    between atoms: C_12  and  C_15
REMARK    9  A    between atoms: C_16  and  C_17
REMARK                            x       y       z     vdW  Elec       q    Type
REMARK                         _______ _______ _______ _____ _____    ______ ____
ROOT
ATOM      1  O   UNL     1      -8.659 -10.930  20.109  0.00  0.00    -0.336 OA
ATOM      3  N   UNL     1      -8.559 -11.077  17.877  0.00  0.00    -0.190 NA
ATOM      4  N   UNL     1      -7.304 -10.826  19.774  0.00  0.00    -0.056 NA
ATOM     13  C   UNL     1      -9.329 -11.075  18.936  0.00  0.00    +0.245 A 
ATOM     16  C   UNL     1      -7.326 -10.922  18.441  0.00  0.00    +0.204 A 
ENDROOT
BRANCH  16  17
ATOM      5  N   UNL     1      -5.088 -10.352  15.526  0.00  0.00    -0.240 NA
ATOM     17  C   UNL     1      -6.134 -10.867  17.643  0.00  0.00    +0.041 A 
ATOM     18  C   UNL     1      -4.904 -11.254  18.166  0.00  0.00    +0.016 A 
ATOM     19  C   UNL     1      -6.172 -10.428  16.330  0.00  0.00    +0.124 A 
ATOM     20  C   UNL     1      -3.766 -11.189  17.369  0.00  0.00    +0.044 A 
ATOM     21  C   UNL     1      -3.911 -10.735  16.068  0.00  0.00    +0.121 A 
BRANCH  21   6
ATOM      6  N   UNL     1      -2.742 -10.675  15.270  0.00  0.00    -0.321 N 
ATOM     22  C   UNL     1      -2.848 -10.552  13.832  0.00  0.00    +0.130 C 
ATOM     23  C   UNL     1      -1.436 -10.726  15.888  0.00  0.00    +0.130 C 
ENDBRANCH  21   6
ENDBRANCH  16  17
BRANCH  13   7
ATOM      2  N   UNL     1     -11.268 -11.895  20.262  0.00  0.00    -0.291 NA
ATOM      7  C   UNL     1     -10.834 -11.209  19.029  0.00  0.00    +0.146 C 
ATOM      8  C   UNL     1     -11.551  -9.846  19.066  0.00  0.00    +0.030 C 
ATOM      9  C   UNL     1     -12.592 -11.364  20.587  0.00  0.00    +0.085 C 
ATOM     10  C   UNL     1     -12.410  -9.883  20.322  0.00  0.00    +0.017 C 
BRANCH   2  11
ATOM     11  C   UNL     1     -11.274 -13.347  20.140  0.00  0.00    +0.088 C 
BRANCH  11  12
ATOM     12  C   UNL     1     -10.527 -14.036  21.296  0.00  0.00    -0.003 C 
ATOM     14  C   UNL     1     -11.248 -15.331  21.678  0.00  0.00    +0.008 C 
ATOM     15  C   UNL     1      -9.067 -14.341  20.951  0.00  0.00    +0.008 C 
ENDBRANCH  11  12
ENDBRANCH   2  11
ENDBRANCH  13   7
TORSDOF 5
ENDMDL
MODEL 9
REMARK VINA RESULT:      -5.5     17.614     20.770
REMARK  Name = 45783808
REMARK  9 active torsions:
REMARK  status: ('A' for Active; 'I' for Inactive)
REMARK    1  A    between atoms: N_2  and  C_11
REMARK    2  A    between atoms: N_6  and  C_21
REMARK    3  A    between atoms: N_6  and  C_22
REMARK    4  A    between atoms: N_6  and  C_23
REMARK    5  A    between atoms: C_7  and  C_13
REMARK    6  A    between atoms: C_11  and  C_12
REMARK    7  A    between atoms: C_12  and  C_14
REMARK    8  A    between atoms: C_12  and  C_15
REMARK    9  A    between atoms: C_16  and  C_17
REMARK                            x       y       z     vdW  Elec       q    Type
REMARK                         _______ _______ _______ _____ _____    ______ ____
ROOT
ATOM      1  O   UNL     1      10.950   4.042   0.534  0.00  0.00    -0.336 OA
ATOM      3  N   UNL     1      12.382   4.441   2.209  0.00  0.00    -0.190 NA
ATOM      4  N   UNL     1      10.171   4.463   1.619  0.00  0.00    -0.056 NA
ATOM     13  C   UNL     1      12.238   4.057   0.965  0.00  0.00    +0.245 A 
ATOM     16  C   UNL     1      11.088   4.679   2.568  0.00  0.00    +0.204 A 
ENDROOT
BRANCH  16  17
ATOM      5  N   UNL     1      10.723   6.916   5.516  0.00  0.00    -0.240 NA
ATOM     17  C   UNL     1      10.742   5.132   3.885  0.00  0.00    +0.041 A 
ATOM     18  C   UNL     1      10.116   4.285   4.793  0.00  0.00    +0.016 A 
ATOM     19  C   UNL     1      11.021   6.427   4.292  0.00  0.00    +0.124 A 
ATOM     20  C   UNL     1       9.793   4.753   6.063  0.00  0.00    +0.044 A 
ATOM     21  C   UNL     1      10.115   6.065   6.372  0.00  0.00    +0.121 A 
BRANCH  21   6
ATOM      6  N   UNL     1       9.779   6.526   7.668  0.00  0.00    -0.321 N 
ATOM     22  C   UNL     1       9.705   5.597   8.775  0.00  0.00    +0.130 C 
ATOM     23  C   UNL     1       9.515   7.930   7.895  0.00  0.00    +0.130 C 
ENDBRANCH  21   6
ENDBRANCH  16  17
BRANCH  13   7
ATOM      2  N   UNL     1      13.409   4.581  -1.166  0.00  0.00    -0.291 NA
ATOM      7  C   UNL     1      13.291   3.637  -0.038  0.00  0.00    +0.146 C 
ATOM      8  C   UNL     1      14.705   3.578   0.573  0.00  0.00    +0.030 C 
ATOM      9  C   UNL     1      14.797   4.507  -1.624  0.00  0.00    +0.085 C 
ATOM     10  C   UNL     1      15.559   4.472  -0.315  0.00  0.00    +0.017 C 
BRANCH   2  11
ATOM     11  C   UNL     1      12.462   4.313  -2.241  0.00  0.00    +0.088 C 
BRANCH  11  12
ATOM     12  C   UNL     1      12.574   2.875  -2.776  0.00  0.00    -0.003 C 
ATOM     14  C   UNL     1      11.311   2.089  -2.414  0.00  0.00    +0.008 C 
ATOM     15  C   UNL     1      12.793   2.828  -4.291  0.00  0.00    +0.008 C 
ENDBRANCH  11  12
ENDBRANCH   2  11
ENDBRANCH  13   7
TORSDOF 5
ENDMDL
MODEL 10
REMARK VINA RESULT:      -5.5     30.053     33.006
REMARK  Name = 45783808
REMARK  9 active torsions:
REMARK  status: ('A' for Active; 'I' for Inactive)
REMARK    1  A    between atoms: N_2  and  C_11
REMARK    2  A    between atoms: N_6  and  C_21
REMARK    3  A    between atoms: N_6  and  C_22
REMARK    4  A    between atoms: N_6  and  C_23
REMARK    5  A    between atoms: C_7  and  C_13
REMARK    6  A    between atoms: C_11  and  C_12
REMARK    7  A    between atoms: C_12  and  C_14
REMARK    8  A    between atoms: C_12  and  C_15
REMARK    9  A    between atoms: C_16  and  C_17
REMARK                            x       y       z     vdW  Elec       q    Type
REMARK                         _______ _______ _______ _____ _____    ______ ____
ROOT
ATOM      1  O   UNL     1     -15.617   5.932  31.521  0.00  0.00    -0.336 OA
ATOM      3  N   UNL     1     -13.799   5.460  32.740  0.00  0.00    -0.190 NA
ATOM      4  N   UNL     1     -14.986   7.157  31.768  0.00  0.00    -0.056 NA
ATOM     13  C   UNL     1     -14.854   4.985  32.128  0.00  0.00    +0.245 A 
ATOM     16  C   UNL     1     -13.922   6.796  32.492  0.00  0.00    +0.204 A 
ENDROOT
BRANCH  16  17
ATOM      5  N   UNL     1     -12.005   8.930  34.858  0.00  0.00    -0.240 NA
ATOM     17  C   UNL     1     -12.964   7.745  32.982  0.00  0.00    +0.041 A 
ATOM     18  C   UNL     1     -12.088   8.392  32.117  0.00  0.00    +0.016 A 
ATOM     19  C   UNL     1     -12.882   8.047  34.332  0.00  0.00    +0.124 A 
ATOM     20  C   UNL     1     -11.171   9.307  32.621  0.00  0.00    +0.044 A 
ATOM     21  C   UNL     1     -11.170   9.538  33.987  0.00  0.00    +0.121 A 
BRANCH  21   6
ATOM      6  N   UNL     1     -10.229  10.472  34.486  0.00  0.00    -0.321 N 
ATOM     22  C   UNL     1     -10.678  11.652  35.193  0.00  0.00    +0.130 C 
ATOM     23  C   UNL     1      -8.812  10.249  34.297  0.00  0.00    +0.130 C 
ENDBRANCH  21   6
ENDBRANCH  16  17
BRANCH  13   7
ATOM      2  N   UNL     1     -14.356   2.689  31.310  0.00  0.00    -0.291 NA
ATOM      7  C   UNL     1     -15.330   3.554  32.006  0.00  0.00    +0.146 C 
ATOM      8  C   UNL     1     -15.545   2.879  33.374  0.00  0.00    +0.030 C 
ATOM      9  C   UNL     1     -14.541   1.341  31.849  0.00  0.00    +0.085 C 
ATOM     10  C   UNL     1     -14.700   1.614  33.331  0.00  0.00    +0.017 C 
BRANCH   2  11
ATOM     11  C   UNL     1     -14.491   2.723  29.860  0.00  0.00    +0.088 C 
BRANCH  11  12
ATOM     12  C   UNL     1     -15.961   2.702  29.406  0.00  0.00    -0.003 C 
ATOM     14  C   UNL     1     -16.228   3.877  28.463  0.00  0.00    +0.008 C 
ATOM     15  C   UNL     1     -16.344   1.390  28.716  0.00  0.00    +0.008 C 
ENDBRANCH  11  12
ENDBRANCH   2  11
ENDBRANCH  13   7
TORSDOF 5
ENDMDL
