MODEL 1
REMARK VINA RESULT:      -5.5      0.000      0.000
REMARK  Name = 26742967
REMARK  12 active torsions:
REMARK  status: ('A' for Active; 'I' for Inactive)
REMARK    1  A    between atoms: N_4  and  C_17
REMARK    2  A    between atoms: N_4  and  C_18
REMARK    3  A    between atoms: C_6  and  C_10
REMARK    4  A    between atoms: C_7  and  C_11
REMARK    5  A    between atoms: C_10  and  C_14
REMARK    6  A    between atoms: C_11  and  C_13
REMARK    7  A    between atoms: C_16  and  C_19
REMARK    8  A    between atoms: C_17  and  C_21
REMARK    9  A    between atoms: C_18  and  C_22
REMARK   10  A    between atoms: C_19  and  C_20
REMARK   11  A    between atoms: C_20  and  C_23
REMARK   12  A    between atoms: C_23  and  C_24
REMARK                            x       y       z     vdW  Elec       q    Type
REMARK                         _______ _______ _______ _____ _____    ______ ____
ROOT
ATOM      3  N   UNL     1      15.732   4.064   1.108  0.00  0.00    -0.316 NA
ATOM      6  C   UNL     1      13.093   4.573  -0.109  0.00  0.00    +0.004 C 
ATOM      7  C   UNL     1      13.281   4.322   1.406  0.00  0.00    +0.012 C 
ATOM      8  C   UNL     1      14.408   5.112  -0.695  0.00  0.00    +0.019 C 
ATOM      9  C   UNL     1      14.529   3.469   1.690  0.00  0.00    +0.085 C 
ATOM     12  C   UNL     1      15.608   4.237  -0.338  0.00  0.00    +0.081 C 
ATOM     25  H   UNL     1      16.535   3.468   1.308  0.00  0.00    +0.122 HD
ENDROOT
BRANCH   6  10
ATOM     10  C   UNL     1      12.611   3.345  -0.890  0.00  0.00    +0.100 C 
BRANCH  10  14
ATOM      1  O   UNL     1      10.316   4.037  -0.920  0.00  0.00    -0.276 OA
ATOM      4  N   UNL     1      11.188   3.230  -2.912  0.00  0.00    -0.302 N 
ATOM     14  C   UNL     1      11.265   3.574  -1.558  0.00  0.00    +0.216 C 
BRANCH   4  17
ATOM     17  C   UNL     1       9.967   3.390  -3.691  0.00  0.00    +0.104 C 
ATOM     21  C   UNL     1       9.264   2.066  -3.901  0.00  0.00    +0.024 C 
ENDBRANCH   4  17
BRANCH   4  18
ATOM     18  C   UNL     1      12.326   2.683  -3.647  0.00  0.00    +0.104 C 
ATOM     22  C   UNL     1      13.050   3.759  -4.430  0.00  0.00    +0.024 C 
ENDBRANCH   4  18
ENDBRANCH  10  14
ENDBRANCH   6  10
BRANCH   7  11
ATOM     11  C   UNL     1      12.047   3.706   2.069  0.00  0.00    +0.064 C 
BRANCH  11  13
ATOM      2  O   UNL     1      10.908   6.578   3.917  0.00  0.00    -0.359 OA
ATOM      5  N   UNL     1      11.679   5.978   2.928  0.00  0.00    -0.083 NA
ATOM     13  C   UNL     1      11.388   4.676   3.005  0.00  0.00    +0.084 A 
ATOM     15  C   UNL     1      10.449   4.398   4.014  0.00  0.00    +0.071 A 
ATOM     16  C   UNL     1      10.179   5.627   4.556  0.00  0.00    +0.138 A 
BRANCH  16  19
ATOM     19  C   UNL     1       9.302   6.090   5.638  0.00  0.00    +0.077 C 
BRANCH  19  20
ATOM     20  C   UNL     1       9.492   5.299   6.953  0.00  0.00    +0.007 C 
BRANCH  20  23
ATOM     23  C   UNL     1       9.457   6.197   8.189  0.00  0.00    -0.003 C 
ATOM     24  C   UNL     1       8.830   7.547   7.880  0.00  0.00    +0.004 C 
ENDBRANCH  20  23
ENDBRANCH  19  20
ENDBRANCH  16  19
ENDBRANCH  11  13
ENDBRANCH   7  11
TORSDOF 9
ENDMDL
MODEL 2
REMARK VINA RESULT:      -5.3     24.626     28.024
REMARK  Name = 26742967
REMARK  12 active torsions:
REMARK  status: ('A' for Active; 'I' for Inactive)
REMARK    1  A    between atoms: N_4  and  C_17
REMARK    2  A    between atoms: N_4  and  C_18
REMARK    3  A    between atoms: C_6  and  C_10
REMARK    4  A    between atoms: C_7  and  C_11
REMARK    5  A    between atoms: C_10  and  C_14
REMARK    6  A    between atoms: C_11  and  C_13
REMARK    7  A    between atoms: C_16  and  C_19
REMARK    8  A    between atoms: C_17  and  C_21
REMARK    9  A    between atoms: C_18  and  C_22
REMARK   10  A    between atoms: C_19  and  C_20
REMARK   11  A    between atoms: C_20  and  C_23
REMARK   12  A    between atoms: C_23  and  C_24
REMARK                            x       y       z     vdW  Elec       q    Type
REMARK                         _______ _______ _______ _____ _____    ______ ____
ROOT
ATOM      3  N   UNL     1      -6.186 -12.561  19.172  0.00  0.00    -0.316 NA
ATOM      6  C   UNL     1      -6.580 -11.157  16.607  0.00  0.00    +0.004 C 
ATOM      7  C   UNL     1      -5.192 -11.309  17.272  0.00  0.00    +0.012 C 
ATOM      8  C   UNL     1      -7.498 -12.290  17.097  0.00  0.00    +0.019 C 
ATOM      9  C   UNL     1      -5.306 -11.452  18.799  0.00  0.00    +0.085 C 
ATOM     12  C   UNL     1      -7.530 -12.398  18.621  0.00  0.00    +0.081 C 
ATOM     25  H   UNL     1      -6.244 -12.619  20.189  0.00  0.00    +0.122 HD
ENDROOT
BRANCH   6  10
ATOM     10  C   UNL     1      -7.234  -9.790  16.833  0.00  0.00    +0.100 C 
BRANCH  10  14
ATOM      1  O   UNL     1      -8.031  -9.749  14.573  0.00  0.00    -0.276 OA
ATOM      4  N   UNL     1      -9.389  -8.766  16.174  0.00  0.00    -0.302 N 
ATOM     14  C   UNL     1      -8.241  -9.442  15.748  0.00  0.00    +0.216 C 
BRANCH   4  17
ATOM     17  C   UNL     1     -10.445  -8.363  15.254  0.00  0.00    +0.104 C 
ATOM     21  C   UNL     1     -10.820  -6.908  15.442  0.00  0.00    +0.024 C 
ENDBRANCH   4  17
BRANCH   4  18
ATOM     18  C   UNL     1      -9.616  -8.411  17.574  0.00  0.00    +0.104 C 
ATOM     22  C   UNL     1     -10.597  -9.359  18.233  0.00  0.00    +0.024 C 
ENDBRANCH   4  18
ENDBRANCH  10  14
ENDBRANCH   6  10
BRANCH   7  11
ATOM     11  C   UNL     1      -4.227 -10.179  16.910  0.00  0.00    +0.064 C 
BRANCH  11  13
ATOM      2  O   UNL     1      -1.460 -11.252  14.873  0.00  0.00    -0.359 OA
ATOM      5  N   UNL     1      -2.036 -10.934  16.097  0.00  0.00    -0.083 NA
ATOM     13  C   UNL     1      -3.293 -10.589  15.809  0.00  0.00    +0.084 A 
ATOM     15  C   UNL     1      -3.566 -10.668  14.432  0.00  0.00    +0.071 A 
ATOM     16  C   UNL     1      -2.382 -11.090  13.889  0.00  0.00    +0.138 A 
BRANCH  16  19
ATOM     19  C   UNL     1      -1.938 -11.385  12.521  0.00  0.00    +0.077 C 
BRANCH  19  20
ATOM     20  C   UNL     1      -2.058 -10.172  11.570  0.00  0.00    +0.007 C 
BRANCH  20  23
ATOM     23  C   UNL     1      -3.163 -10.348  10.529  0.00  0.00    -0.003 C 
ATOM     24  C   UNL     1      -3.779  -9.015  10.139  0.00  0.00    +0.004 C 
ENDBRANCH  20  23
ENDBRANCH  19  20
ENDBRANCH  16  19
ENDBRANCH  11  13
ENDBRANCH   7  11
TORSDOF 9
ENDMDL
MODEL 3
REMARK VINA RESULT:      -5.3      3.381      8.255
REMARK  Name = 26742967
REMARK  12 active torsions:
REMARK  status: ('A' for Active; 'I' for Inactive)
REMARK    1  A    between atoms: N_4  and  C_17
REMARK    2  A    between atoms: N_4  and  C_18
REMARK    3  A    between atoms: C_6  and  C_10
REMARK    4  A    between atoms: C_7  and  C_11
REMARK    5  A    between atoms: C_10  and  C_14
REMARK    6  A    between atoms: C_11  and  C_13
REMARK    7  A    between atoms: C_16  and  C_19
REMARK    8  A    between atoms: C_17  and  C_21
REMARK    9  A    between atoms: C_18  and  C_22
REMARK   10  A    between atoms: C_19  and  C_20
REMARK   11  A    between atoms: C_20  and  C_23
REMARK   12  A    between atoms: C_23  and  C_24
REMARK                            x       y       z     vdW  Elec       q    Type
REMARK                         _______ _______ _______ _____ _____    ______ ____
ROOT
ATOM      3  N   UNL     1      13.165  10.341   4.259  0.00  0.00    -0.316 NA
ATOM      6  C   UNL     1      12.728   7.720   5.542  0.00  0.00    +0.004 C 
ATOM      7  C   UNL     1      12.271   8.031   4.097  0.00  0.00    +0.012 C 
ATOM      8  C   UNL     1      13.893   8.655   5.911  0.00  0.00    +0.019 C 
ATOM      9  C   UNL     1      12.001   9.532   3.897  0.00  0.00    +0.085 C 
ATOM     12  C   UNL     1      13.568  10.125   5.647  0.00  0.00    +0.081 C 
ATOM     25  H   UNL     1      12.947  11.328   4.122  0.00  0.00    +0.122 HD
ENDROOT
BRANCH   6  10
ATOM     10  C   UNL     1      11.608   7.808   6.584  0.00  0.00    +0.100 C 
BRANCH  10  14
ATOM      1  O   UNL     1      12.338   5.860   7.773  0.00  0.00    -0.276 OA
ATOM      4  N   UNL     1      10.057   6.063   7.406  0.00  0.00    -0.302 N 
ATOM     14  C   UNL     1      11.386   6.491   7.309  0.00  0.00    +0.216 C 
BRANCH   4  17
ATOM     17  C   UNL     1       9.683   4.821   8.071  0.00  0.00    +0.104 C 
ATOM     21  C   UNL     1       9.310   5.056   9.519  0.00  0.00    +0.024 C 
ENDBRANCH   4  17
BRANCH   4  18
ATOM     18  C   UNL     1       8.945   6.828   6.848  0.00  0.00    +0.104 C 
ATOM     22  C   UNL     1       8.290   6.095   5.695  0.00  0.00    +0.024 C 
ENDBRANCH   4  18
ENDBRANCH  10  14
ENDBRANCH   6  10
BRANCH   7  11
ATOM     11  C   UNL     1      11.059   7.205   3.663  0.00  0.00    +0.064 C 
BRANCH  11  13
ATOM      2  O   UNL     1      11.399   3.726   2.803  0.00  0.00    -0.359 OA
ATOM      5  N   UNL     1      10.751   4.778   3.439  0.00  0.00    -0.083 NA
ATOM     13  C   UNL     1      11.472   5.862   3.137  0.00  0.00    +0.084 A 
ATOM     15  C   UNL     1      12.576   5.557   2.321  0.00  0.00    +0.071 A 
ATOM     16  C   UNL     1      12.483   4.203   2.140  0.00  0.00    +0.138 A 
BRANCH  16  19
ATOM     19  C   UNL     1      13.288   3.218   1.407  0.00  0.00    +0.077 C 
BRANCH  19  20
ATOM     20  C   UNL     1      14.792   3.575   1.364  0.00  0.00    +0.007 C 
BRANCH  20  23
ATOM     23  C   UNL     1      15.230   4.107   0.000  0.00  0.00    -0.003 C 
ATOM     24  C   UNL     1      15.898   5.468   0.121  0.00  0.00    +0.004 C 
ENDBRANCH  20  23
ENDBRANCH  19  20
ENDBRANCH  16  19
ENDBRANCH  11  13
ENDBRANCH   7  11
TORSDOF 9
ENDMDL
MODEL 4
REMARK VINA RESULT:      -5.3     27.945     32.450
REMARK  Name = 26742967
REMARK  12 active torsions:
REMARK  status: ('A' for Active; 'I' for Inactive)
REMARK    1  A    between atoms: N_4  and  C_17
REMARK    2  A    between atoms: N_4  and  C_18
REMARK    3  A    between atoms: C_6  and  C_10
REMARK    4  A    between atoms: C_7  and  C_11
REMARK    5  A    between atoms: C_10  and  C_14
REMARK    6  A    between atoms: C_11  and  C_13
REMARK    7  A    between atoms: C_16  and  C_19
REMARK    8  A    between atoms: C_17  and  C_21
REMARK    9  A    between atoms: C_18  and  C_22
REMARK   10  A    between atoms: C_19  and  C_20
REMARK   11  A    between atoms: C_20  and  C_23
REMARK   12  A    between atoms: C_23  and  C_24
REMARK                            x       y       z     vdW  Elec       q    Type
REMARK                         _______ _______ _______ _____ _____    ______ ____
ROOT
ATOM      3  N   UNL     1     -15.621   6.331  22.409  0.00  0.00    -0.316 NA
ATOM      6  C   UNL     1     -13.109   7.377  21.269  0.00  0.00    +0.004 C 
ATOM      7  C   UNL     1     -14.036   8.226  22.171  0.00  0.00    +0.012 C 
ATOM      8  C   UNL     1     -13.339   5.887  21.575  0.00  0.00    +0.019 C 
ATOM      9  C   UNL     1     -15.497   7.753  22.090  0.00  0.00    +0.085 C 
ATOM     12  C   UNL     1     -14.816   5.500  21.515  0.00  0.00    +0.081 C 
ATOM     25  H   UNL     1     -16.600   6.052  22.336  0.00  0.00    +0.122 HD
ENDROOT
BRANCH   6  10
ATOM     10  C   UNL     1     -13.270   7.657  19.770  0.00  0.00    +0.100 C 
BRANCH  10  14
ATOM      1  O   UNL     1     -11.256   6.653  18.947  0.00  0.00    -0.276 OA
ATOM      4  N   UNL     1     -11.559   8.907  18.492  0.00  0.00    -0.302 N 
ATOM     14  C   UNL     1     -11.938   7.676  19.038  0.00  0.00    +0.216 C 
BRANCH   4  17
ATOM     17  C   UNL     1     -10.310   9.086  17.762  0.00  0.00    +0.104 C 
ATOM     21  C   UNL     1     -10.506   8.898  16.273  0.00  0.00    +0.024 C 
ENDBRANCH   4  17
BRANCH   4  18
ATOM     18  C   UNL     1     -12.384  10.106  18.614  0.00  0.00    +0.104 C 
ATOM     22  C   UNL     1     -11.571  11.294  19.086  0.00  0.00    +0.024 C 
ENDBRANCH   4  18
ENDBRANCH  10  14
ENDBRANCH   6  10
BRANCH   7  11
ATOM     11  C   UNL     1     -13.940   9.726  21.885  0.00  0.00    +0.064 C 
BRANCH  11  13
ATOM      2  O   UNL     1     -11.666  11.702  23.856  0.00  0.00    -0.359 OA
ATOM      5  N   UNL     1     -12.124  11.194  22.646  0.00  0.00    -0.083 NA
ATOM     13  C   UNL     1     -13.180  10.441  22.964  0.00  0.00    +0.084 A 
ATOM     15  C   UNL     1     -13.433  10.434  24.347  0.00  0.00    +0.071 A 
ATOM     16  C   UNL     1     -12.454  11.242  24.861  0.00  0.00    +0.138 A 
BRANCH  16  19
ATOM     19  C   UNL     1     -12.110  11.683  26.218  0.00  0.00    +0.077 C 
BRANCH  19  20
ATOM     20  C   UNL     1     -12.316  10.583  27.284  0.00  0.00    +0.007 C 
BRANCH  20  23
ATOM     23  C   UNL     1     -11.147   9.600  27.349  0.00  0.00    -0.003 C 
ATOM     24  C   UNL     1      -9.846  10.253  26.909  0.00  0.00    +0.004 C 
ENDBRANCH  20  23
ENDBRANCH  19  20
ENDBRANCH  16  19
ENDBRANCH  11  13
ENDBRANCH   7  11
TORSDOF 9
ENDMDL
MODEL 5
REMARK VINA RESULT:      -5.2     25.291     28.751
REMARK  Name = 26742967
REMARK  12 active torsions:
REMARK  status: ('A' for Active; 'I' for Inactive)
REMARK    1  A    between atoms: N_4  and  C_17
REMARK    2  A    between atoms: N_4  and  C_18
REMARK    3  A    between atoms: C_6  and  C_10
REMARK    4  A    between atoms: C_7  and  C_11
REMARK    5  A    between atoms: C_10  and  C_14
REMARK    6  A    between atoms: C_11  and  C_13
REMARK    7  A    between atoms: C_16  and  C_19
REMARK    8  A    between atoms: C_17  and  C_21
REMARK    9  A    between atoms: C_18  and  C_22
REMARK   10  A    between atoms: C_19  and  C_20
REMARK   11  A    between atoms: C_20  and  C_23
REMARK   12  A    between atoms: C_23  and  C_24
REMARK                            x       y       z     vdW  Elec       q    Type
REMARK                         _______ _______ _______ _____ _____    ______ ____
ROOT
ATOM      3  N   UNL     1      -6.182 -13.649  18.122  0.00  0.00    -0.316 NA
ATOM      6  C   UNL     1      -7.140 -11.218  16.751  0.00  0.00    +0.004 C 
ATOM      7  C   UNL     1      -5.644 -11.608  16.814  0.00  0.00    +0.012 C 
ATOM      8  C   UNL     1      -7.996 -12.485  16.914  0.00  0.00    +0.019 C 
ATOM      9  C   UNL     1      -5.331 -12.460  18.056  0.00  0.00    +0.085 C 
ATOM     12  C   UNL     1      -7.602 -13.301  18.144  0.00  0.00    +0.081 C 
ATOM     25  H   UNL     1      -5.953 -14.183  18.960  0.00  0.00    +0.122 HD
ENDROOT
BRANCH   6  10
ATOM     10  C   UNL     1      -7.550 -10.148  17.769  0.00  0.00    +0.100 C 
BRANCH  10  14
ATOM      1  O   UNL     1      -8.717  -8.573  16.390  0.00  0.00    -0.276 OA
ATOM      4  N   UNL     1      -9.951  -9.620  18.050  0.00  0.00    -0.302 N 
ATOM     14  C   UNL     1      -8.779  -9.370  17.329  0.00  0.00    +0.216 C 
BRANCH   4  17
ATOM     17  C   UNL     1     -11.212  -8.953  17.749  0.00  0.00    +0.104 C 
ATOM     21  C   UNL     1     -12.015  -9.720  16.721  0.00  0.00    +0.024 C 
ENDBRANCH   4  17
BRANCH   4  18
ATOM     18  C   UNL     1     -10.001 -10.570  19.159  0.00  0.00    +0.104 C 
ATOM     22  C   UNL     1     -10.965 -10.115  20.236  0.00  0.00    +0.024 C 
ENDBRANCH   4  18
ENDBRANCH  10  14
ENDBRANCH   6  10
BRANCH   7  11
ATOM     11  C   UNL     1      -4.707 -10.401  16.742  0.00  0.00    +0.064 C 
BRANCH  11  13
ATOM      2  O   UNL     1      -1.656 -10.917  14.902  0.00  0.00    -0.359 OA
ATOM      5  N   UNL     1      -2.367 -10.760  16.086  0.00  0.00    -0.083 NA
ATOM     13  C   UNL     1      -3.638 -10.600  15.707  0.00  0.00    +0.084 A 
ATOM     15  C   UNL     1      -3.788 -10.646  14.310  0.00  0.00    +0.071 A 
ATOM     16  C   UNL     1      -2.514 -10.848  13.852  0.00  0.00    +0.138 A 
BRANCH  16  19
ATOM     19  C   UNL     1      -1.925 -10.996  12.515  0.00  0.00    +0.077 C 
BRANCH  19  20
ATOM     20  C   UNL     1      -2.961 -10.841  11.377  0.00  0.00    +0.007 C 
BRANCH  20  23
ATOM     23  C   UNL     1      -2.797  -9.530  10.608  0.00  0.00    -0.003 C 
ATOM     24  C   UNL     1      -4.143  -8.925  10.245  0.00  0.00    +0.004 C 
ENDBRANCH  20  23
ENDBRANCH  19  20
ENDBRANCH  16  19
ENDBRANCH  11  13
ENDBRANCH   7  11
TORSDOF 9
ENDMDL
MODEL 6
REMARK VINA RESULT:      -5.1     25.196     28.632
REMARK  Name = 26742967
REMARK  12 active torsions:
REMARK  status: ('A' for Active; 'I' for Inactive)
REMARK    1  A    between atoms: N_4  and  C_17
REMARK    2  A    between atoms: N_4  and  C_18
REMARK    3  A    between atoms: C_6  and  C_10
REMARK    4  A    between atoms: C_7  and  C_11
REMARK    5  A    between atoms: C_10  and  C_14
REMARK    6  A    between atoms: C_11  and  C_13
REMARK    7  A    between atoms: C_16  and  C_19
REMARK    8  A    between atoms: C_17  and  C_21
REMARK    9  A    between atoms: C_18  and  C_22
REMARK   10  A    between atoms: C_19  and  C_20
REMARK   11  A    between atoms: C_20  and  C_23
REMARK   12  A    between atoms: C_23  and  C_24
REMARK                            x       y       z     vdW  Elec       q    Type
REMARK                         _______ _______ _______ _____ _____    ______ ____
ROOT
ATOM      3  N   UNL     1      -6.876  -9.175  15.990  0.00  0.00    -0.316 NA
ATOM      6  C   UNL     1      -5.797 -10.748  18.240  0.00  0.00    +0.004 C 
ATOM      7  C   UNL     1      -4.940 -10.341  17.017  0.00  0.00    +0.012 C 
ATOM      8  C   UNL     1      -6.962  -9.756  18.389  0.00  0.00    +0.019 C 
ATOM      9  C   UNL     1      -5.804 -10.143  15.760  0.00  0.00    +0.085 C 
ATOM     12  C   UNL     1      -7.749  -9.580  17.091  0.00  0.00    +0.081 C 
ATOM     25  H   UNL     1      -7.431  -9.077  15.140  0.00  0.00    +0.122 HD
ENDROOT
BRANCH   6  10
ATOM     10  C   UNL     1      -6.312 -12.191  18.188  0.00  0.00    +0.100 C 
BRANCH  10  14
ATOM      1  O   UNL     1      -7.072 -12.182  20.461  0.00  0.00    -0.276 OA
ATOM      4  N   UNL     1      -8.496 -13.119  18.890  0.00  0.00    -0.302 N 
ATOM     14  C   UNL     1      -7.314 -12.489  19.292  0.00  0.00    +0.216 C 
BRANCH   4  17
ATOM     17  C   UNL     1      -9.553 -13.471  19.830  0.00  0.00    +0.104 C 
ATOM     21  C   UNL     1      -9.329 -14.842  20.431  0.00  0.00    +0.024 C 
ENDBRANCH   4  17
BRANCH   4  18
ATOM     18  C   UNL     1      -8.761 -13.474  17.497  0.00  0.00    +0.104 C 
ATOM     22  C   UNL     1      -9.890 -12.645  16.920  0.00  0.00    +0.024 C 
ENDBRANCH   4  18
ENDBRANCH  10  14
ENDBRANCH   6  10
BRANCH   7  11
ATOM     11  C   UNL     1      -3.797 -11.317  16.735  0.00  0.00    +0.064 C 
BRANCH  11  13
ATOM      2  O   UNL     1      -1.272  -9.946  14.567  0.00  0.00    -0.359 OA
ATOM      5  N   UNL     1      -1.788 -10.236  15.824  0.00  0.00    -0.083 NA
ATOM     13  C   UNL     1      -2.950 -10.850  15.587  0.00  0.00    +0.084 A 
ATOM     15  C   UNL     1      -3.218 -10.974  14.213  0.00  0.00    +0.071 A 
ATOM     16  C   UNL     1      -2.132 -10.391  13.616  0.00  0.00    +0.138 A 
BRANCH  16  19
ATOM     19  C   UNL     1      -1.739 -10.164  12.220  0.00  0.00    +0.077 C 
BRANCH  19  20
ATOM     20  C   UNL     1      -2.883 -10.440  11.216  0.00  0.00    +0.007 C 
BRANCH  20  23
ATOM     23  C   UNL     1      -3.091  -9.289  10.232  0.00  0.00    -0.003 C 
ATOM     24  C   UNL     1      -4.566  -9.071   9.934  0.00  0.00    +0.004 C 
ENDBRANCH  20  23
ENDBRANCH  19  20
ENDBRANCH  16  19
ENDBRANCH  11  13
ENDBRANCH   7  11
TORSDOF 9
ENDMDL
MODEL 7
REMARK VINA RESULT:      -5.1     24.962     28.332
REMARK  Name = 26742967
REMARK  12 active torsions:
REMARK  status: ('A' for Active; 'I' for Inactive)
REMARK    1  A    between atoms: N_4  and  C_17
REMARK    2  A    between atoms: N_4  and  C_18
REMARK    3  A    between atoms: C_6  and  C_10
REMARK    4  A    between atoms: C_7  and  C_11
REMARK    5  A    between atoms: C_10  and  C_14
REMARK    6  A    between atoms: C_11  and  C_13
REMARK    7  A    between atoms: C_16  and  C_19
REMARK    8  A    between atoms: C_17  and  C_21
REMARK    9  A    between atoms: C_18  and  C_22
REMARK   10  A    between atoms: C_19  and  C_20
REMARK   11  A    between atoms: C_20  and  C_23
REMARK   12  A    between atoms: C_23  and  C_24
REMARK                            x       y       z     vdW  Elec       q    Type
REMARK                         _______ _______ _______ _____ _____    ______ ____
ROOT
ATOM      3  N   UNL     1      -3.183 -11.651  17.815  0.00  0.00    -0.316 NA
ATOM      6  C   UNL     1      -6.117 -11.614  17.509  0.00  0.00    +0.004 C 
ATOM      7  C   UNL     1      -5.152 -11.210  16.369  0.00  0.00    +0.012 C 
ATOM      8  C   UNL     1      -5.383 -12.558  18.477  0.00  0.00    +0.019 C 
ATOM      9  C   UNL     1      -3.814 -10.684  16.917  0.00  0.00    +0.085 C 
ATOM     12  C   UNL     1      -4.045 -11.987  18.946  0.00  0.00    +0.081 C 
ATOM     25  H   UNL     1      -2.305 -11.265  18.164  0.00  0.00    +0.122 HD
ENDROOT
BRANCH   6  10
ATOM     10  C   UNL     1      -6.725 -10.426  18.263  0.00  0.00    +0.100 C 
BRANCH  10  14
ATOM      1  O   UNL     1      -8.088 -11.328  20.015  0.00  0.00    -0.276 OA
ATOM      4  N   UNL     1      -9.199 -10.421  18.193  0.00  0.00    -0.302 N 
ATOM     14  C   UNL     1      -8.053 -10.772  18.915  0.00  0.00    +0.216 C 
BRANCH   4  17
ATOM     17  C   UNL     1     -10.545 -10.687  18.684  0.00  0.00    +0.104 C 
ATOM     21  C   UNL     1     -11.452  -9.490  18.495  0.00  0.00    +0.024 C 
ENDBRANCH   4  17
BRANCH   4  18
ATOM     18  C   UNL     1      -9.133  -9.762  16.890  0.00  0.00    +0.104 C 
ATOM     22  C   UNL     1      -9.398 -10.737  15.762  0.00  0.00    +0.024 C 
ENDBRANCH   4  18
ENDBRANCH  10  14
ENDBRANCH   6  10
BRANCH   7  11
ATOM     11  C   UNL     1      -5.765 -10.204  15.394  0.00  0.00    +0.064 C 
BRANCH  11  13
ATOM      2  O   UNL     1      -5.510 -11.035  11.901  0.00  0.00    -0.359 OA
ATOM      5  N   UNL     1      -6.231 -10.879  13.079  0.00  0.00    -0.083 NA
ATOM     13  C   UNL     1      -5.334 -10.477  13.983  0.00  0.00    +0.084 A 
ATOM     15  C   UNL     1      -4.042 -10.364  13.438  0.00  0.00    +0.071 A 
ATOM     16  C   UNL     1      -4.208 -10.725  12.128  0.00  0.00    +0.138 A 
BRANCH  16  19
ATOM     19  C   UNL     1      -3.298 -10.837  10.982  0.00  0.00    +0.077 C 
BRANCH  19  20
ATOM     20  C   UNL     1      -3.017  -9.480  10.296  0.00  0.00    +0.007 C 
BRANCH  20  23
ATOM     23  C   UNL     1      -4.086  -9.108   9.270  0.00  0.00    -0.003 C 
ATOM     24  C   UNL     1      -5.120  -8.163   9.860  0.00  0.00    +0.004 C 
ENDBRANCH  20  23
ENDBRANCH  19  20
ENDBRANCH  16  19
ENDBRANCH  11  13
ENDBRANCH   7  11
TORSDOF 9
ENDMDL
MODEL 8
REMARK VINA RESULT:      -5.1     39.162     41.306
REMARK  Name = 26742967
REMARK  12 active torsions:
REMARK  status: ('A' for Active; 'I' for Inactive)
REMARK    1  A    between atoms: N_4  and  C_17
REMARK    2  A    between atoms: N_4  and  C_18
REMARK    3  A    between atoms: C_6  and  C_10
REMARK    4  A    between atoms: C_7  and  C_11
REMARK    5  A    between atoms: C_10  and  C_14
REMARK    6  A    between atoms: C_11  and  C_13
REMARK    7  A    between atoms: C_16  and  C_19
REMARK    8  A    between atoms: C_17  and  C_21
REMARK    9  A    between atoms: C_18  and  C_22
REMARK   10  A    between atoms: C_19  and  C_20
REMARK   11  A    between atoms: C_20  and  C_23
REMARK   12  A    between atoms: C_23  and  C_24
REMARK                            x       y       z     vdW  Elec       q    Type
REMARK                         _______ _______ _______ _____ _____    ______ ____
ROOT
ATOM      3  N   UNL     1     -13.221   9.776  30.728  0.00  0.00    -0.316 NA
ATOM      6  C   UNL     1     -12.528   8.111  33.063  0.00  0.00    +0.004 C 
ATOM      7  C   UNL     1     -13.799   7.873  32.214  0.00  0.00    +0.012 C 
ATOM      8  C   UNL     1     -11.478   8.834  32.202  0.00  0.00    +0.019 C 
ATOM      9  C   UNL     1     -14.279   9.167  31.534  0.00  0.00    +0.085 C 
ATOM     12  C   UNL     1     -12.037  10.085  31.527  0.00  0.00    +0.081 C 
ATOM     25  H   UNL     1     -13.573  10.634  30.302  0.00  0.00    +0.122 HD
ENDROOT
BRANCH   6  10
ATOM     10  C   UNL     1     -12.782   8.875  34.367  0.00  0.00    +0.100 C 
BRANCH  10  14
ATOM      1  O   UNL     1     -12.775   7.153  36.034  0.00  0.00    -0.276 OA
ATOM      4  N   UNL     1     -11.050   8.699  36.126  0.00  0.00    -0.302 N 
ATOM     14  C   UNL     1     -12.217   8.154  35.580  0.00  0.00    +0.216 C 
BRANCH   4  17
ATOM     17  C   UNL     1     -10.388   8.124  37.290  0.00  0.00    +0.104 C 
ATOM     21  C   UNL     1     -10.749   8.868  38.559  0.00  0.00    +0.024 C 
ENDBRANCH   4  17
BRANCH   4  18
ATOM     18  C   UNL     1     -10.406   9.888  35.571  0.00  0.00    +0.104 C 
ATOM     22  C   UNL     1      -8.932   9.651  35.313  0.00  0.00    +0.024 C 
ENDBRANCH   4  18
ENDBRANCH  10  14
ENDBRANCH   6  10
BRANCH   7  11
ATOM     11  C   UNL     1     -14.937   7.229  33.007  0.00  0.00    +0.064 C 
BRANCH  11  13
ATOM      2  O   UNL     1     -14.718   3.828  34.168  0.00  0.00    -0.359 OA
ATOM      5  N   UNL     1     -15.052   5.167  34.337  0.00  0.00    -0.083 NA
ATOM     13  C   UNL     1     -14.713   5.756  33.187  0.00  0.00    +0.084 A 
ATOM     15  C   UNL     1     -14.166   4.848  32.264  0.00  0.00    +0.071 A 
ATOM     16  C   UNL     1     -14.192   3.651  32.929  0.00  0.00    +0.138 A 
BRANCH  16  19
ATOM     19  C   UNL     1     -13.782   2.285  32.581  0.00  0.00    +0.077 C 
BRANCH  19  20
ATOM     20  C   UNL     1     -14.824   1.542  31.713  0.00  0.00    +0.007 C 
BRANCH  20  23
ATOM     23  C   UNL     1     -14.357   1.348  30.271  0.00  0.00    -0.003 C 
ATOM     24  C   UNL     1     -13.674   0.003  30.083  0.00  0.00    +0.004 C 
ENDBRANCH  20  23
ENDBRANCH  19  20
ENDBRANCH  16  19
ENDBRANCH  11  13
ENDBRANCH   7  11
TORSDOF 9
ENDMDL
MODEL 9
REMARK VINA RESULT:      -5.1     29.640     34.806
REMARK  Name = 26742967
REMARK  12 active torsions:
REMARK  status: ('A' for Active; 'I' for Inactive)
REMARK    1  A    between atoms: N_4  and  C_17
REMARK    2  A    between atoms: N_4  and  C_18
REMARK    3  A    between atoms: C_6  and  C_10
REMARK    4  A    between atoms: C_7  and  C_11
REMARK    5  A    between atoms: C_10  and  C_14
REMARK    6  A    between atoms: C_11  and  C_13
REMARK    7  A    between atoms: C_16  and  C_19
REMARK    8  A    between atoms: C_17  and  C_21
REMARK    9  A    between atoms: C_18  and  C_22
REMARK   10  A    between atoms: C_19  and  C_20
REMARK   11  A    between atoms: C_20  and  C_23
REMARK   12  A    between atoms: C_23  and  C_24
REMARK                            x       y       z     vdW  Elec       q    Type
REMARK                         _______ _______ _______ _____ _____    ______ ____
ROOT
ATOM      3  N   UNL     1     -17.847   6.948  21.721  0.00  0.00    -0.316 NA
ATOM      6  C   UNL     1     -15.062   6.079  21.286  0.00  0.00    +0.004 C 
ATOM      7  C   UNL     1     -15.974   5.453  22.367  0.00  0.00    +0.012 C 
ATOM      8  C   UNL     1     -15.940   6.679  20.175  0.00  0.00    +0.019 C 
ATOM      9  C   UNL     1     -17.054   6.441  22.841  0.00  0.00    +0.085 C 
ATOM     12  C   UNL     1     -17.015   7.617  20.723  0.00  0.00    +0.081 C 
ATOM     25  H   UNL     1     -18.545   7.605  22.072  0.00  0.00    +0.122 HD
ENDROOT
BRANCH   6  10
ATOM     10  C   UNL     1     -14.078   7.123  21.826  0.00  0.00    +0.100 C 
BRANCH  10  14
ATOM      1  O   UNL     1     -12.006   6.063  21.256  0.00  0.00    -0.276 OA
ATOM      4  N   UNL     1     -12.371   8.177  20.378  0.00  0.00    -0.302 N 
ATOM     14  C   UNL     1     -12.725   7.057  21.136  0.00  0.00    +0.216 C 
BRANCH   4  17
ATOM     17  C   UNL     1     -11.107   8.266  19.658  0.00  0.00    +0.104 C 
ATOM     21  C   UNL     1     -11.237   7.749  18.241  0.00  0.00    +0.024 C 
ENDBRANCH   4  17
BRANCH   4  18
ATOM     18  C   UNL     1     -13.241   9.345  20.250  0.00  0.00    +0.104 C 
ATOM     22  C   UNL     1     -12.631  10.565  20.909  0.00  0.00    +0.024 C 
ENDBRANCH   4  18
ENDBRANCH  10  14
ENDBRANCH   6  10
BRANCH   7  11
ATOM     11  C   UNL     1     -15.194   4.898  23.560  0.00  0.00    +0.064 C 
BRANCH  11  13
ATOM      2  O   UNL     1     -16.817   1.716  24.004  0.00  0.00    -0.359 OA
ATOM      5  N   UNL     1     -16.356   2.762  23.214  0.00  0.00    -0.083 NA
ATOM     13  C   UNL     1     -15.807   3.626  24.071  0.00  0.00    +0.084 A 
ATOM     15  C   UNL     1     -15.891   3.184  25.403  0.00  0.00    +0.071 A 
ATOM     16  C   UNL     1     -16.534   1.979  25.305  0.00  0.00    +0.138 A 
BRANCH  16  19
ATOM     19  C   UNL     1     -16.955   0.969  26.284  0.00  0.00    +0.077 C 
BRANCH  19  20
ATOM     20  C   UNL     1     -17.408   1.582  27.630  0.00  0.00    +0.007 C 
BRANCH  20  23
ATOM     23  C   UNL     1     -16.502   1.177  28.793  0.00  0.00    -0.003 C 
ATOM     24  C   UNL     1     -15.433   2.225  29.058  0.00  0.00    +0.004 C 
ENDBRANCH  20  23
ENDBRANCH  19  20
ENDBRANCH  16  19
ENDBRANCH  11  13
ENDBRANCH   7  11
TORSDOF 9
ENDMDL
MODEL 10
REMARK VINA RESULT:      -5.0      2.456      8.498
REMARK  Name = 26742967
REMARK  12 active torsions:
REMARK  status: ('A' for Active; 'I' for Inactive)
REMARK    1  A    between atoms: N_4  and  C_17
REMARK    2  A    between atoms: N_4  and  C_18
REMARK    3  A    between atoms: C_6  and  C_10
REMARK    4  A    between atoms: C_7  and  C_11
REMARK    5  A    between atoms: C_10  and  C_14
REMARK    6  A    between atoms: C_11  and  C_13
REMARK    7  A    between atoms: C_16  and  C_19
REMARK    8  A    between atoms: C_17  and  C_21
REMARK    9  A    between atoms: C_18  and  C_22
REMARK   10  A    between atoms: C_19  and  C_20
REMARK   11  A    between atoms: C_20  and  C_23
REMARK   12  A    between atoms: C_23  and  C_24
REMARK                            x       y       z     vdW  Elec       q    Type
REMARK                         _______ _______ _______ _____ _____    ______ ____
ROOT
ATOM      3  N   UNL     1       9.684   8.609   2.266  0.00  0.00    -0.316 NA
ATOM      6  C   UNL     1      10.473   6.585   4.262  0.00  0.00    +0.004 C 
ATOM      7  C   UNL     1      10.410   6.284   2.746  0.00  0.00    +0.012 C 
ATOM      8  C   UNL     1      10.682   8.095   4.466  0.00  0.00    +0.019 C 
ATOM      9  C   UNL     1       9.399   7.193   2.028  0.00  0.00    +0.085 C 
ATOM     12  C   UNL     1       9.668   8.935   3.690  0.00  0.00    +0.081 C 
ATOM     25  H   UNL     1       8.990   9.179   1.782  0.00  0.00    +0.122 HD
ENDROOT
BRANCH   6  10
ATOM     10  C   UNL     1       9.251   6.094   5.048  0.00  0.00    +0.100 C 
BRANCH  10  14
ATOM      1  O   UNL     1       9.990   3.942   5.798  0.00  0.00    -0.276 OA
ATOM      4  N   UNL     1       9.505   5.507   7.438  0.00  0.00    -0.302 N 
ATOM     14  C   UNL     1       9.619   5.074   6.113  0.00  0.00    +0.216 C 
BRANCH   4  17
ATOM     17  C   UNL     1       9.819   4.646   8.572  0.00  0.00    +0.104 C 
ATOM     21  C   UNL     1       8.906   4.921   9.748  0.00  0.00    +0.024 C 
ENDBRANCH   4  17
BRANCH   4  18
ATOM     18  C   UNL     1       9.061   6.855   7.788  0.00  0.00    +0.104 C 
ATOM     22  C   UNL     1      10.233   7.804   7.935  0.00  0.00    +0.024 C 
ENDBRANCH   4  18
ENDBRANCH  10  14
ENDBRANCH   6  10
BRANCH   7  11
ATOM     11  C   UNL     1      10.122   4.813   2.440  0.00  0.00    +0.064 C 
BRANCH  11  13
ATOM      2  O   UNL     1      10.736   3.922  -0.994  0.00  0.00    -0.359 OA
ATOM      5  N   UNL     1       9.898   4.306   0.047  0.00  0.00    -0.083 NA
ATOM     13  C   UNL     1      10.696   4.409   1.113  0.00  0.00    +0.084 A 
ATOM     15  C   UNL     1      12.034   4.104   0.809  0.00  0.00    +0.071 A 
ATOM     16  C   UNL     1      12.006   3.805  -0.527  0.00  0.00    +0.138 A 
BRANCH  16  19
ATOM     19  C   UNL     1      13.028   3.404  -1.501  0.00  0.00    +0.077 C 
BRANCH  19  20
ATOM     20  C   UNL     1      14.099   4.493  -1.739  0.00  0.00    +0.007 C 
BRANCH  20  23
ATOM     23  C   UNL     1      15.412   4.192  -1.015  0.00  0.00    -0.003 C 
ATOM     24  C   UNL     1      15.668   5.184   0.108  0.00  0.00    +0.004 C 
ENDBRANCH  20  23
ENDBRANCH  19  20
ENDBRANCH  16  19
ENDBRANCH  11  13
ENDBRANCH   7  11
TORSDOF 9
ENDMDL
