MODEL 1
REMARK VINA RESULT:      -5.9      0.000      0.000
REMARK  Name = 56775627
REMARK  12 active torsions:
REMARK  status: ('A' for Active; 'I' for Inactive)
REMARK    1  A    between atoms: O_4  and  C_24
REMARK    2  A    between atoms: N_5  and  C_8
REMARK    3  A    between atoms: N_5  and  C_13
REMARK    4  A    between atoms: N_7  and  C_17
REMARK    5  A    between atoms: N_7  and  C_21
REMARK    6  A    between atoms: N_7  and  C_22
REMARK    7  A    between atoms: C_8  and  C_11
REMARK    8  A    between atoms: C_11  and  C_12
REMARK    9  A    between atoms: C_13  and  C_15
REMARK   10  A    between atoms: C_16  and  C_17
REMARK   11  A    between atoms: C_19  and  C_24
REMARK   12  A    between atoms: C_21  and  C_23
REMARK                            x       y       z     vdW  Elec       q    Type
REMARK                         _______ _______ _______ _____ _____    ______ ____
ROOT
ATOM     11  C   UNL     1      10.918  12.175  22.668  0.00  0.00    +0.085 C 
ENDROOT
BRANCH  11  12
ATOM      2  O   UNL     1      13.524  13.819  20.863  0.00  0.00    -0.358 OA
ATOM      6  N   UNL     1      12.502  13.803  21.805  0.00  0.00    -0.083 NA
ATOM     12  C   UNL     1      12.027  12.555  21.778  0.00  0.00    +0.086 A 
ATOM     14  C   UNL     1      12.702  11.746  20.849  0.00  0.00    +0.072 A 
ATOM     16  C   UNL     1      13.633  12.587  20.300  0.00  0.00    +0.151 A 
BRANCH  16  17
ATOM     17  C   UNL     1      14.700  12.421  19.250  0.00  0.00    +0.161 C 
BRANCH  17   7
ATOM      7  N   UNL     1      14.132  12.069  17.949  0.00  0.00    -0.294 NA
ATOM     22  C   UNL     1      14.658  12.951  16.907  0.00  0.00    +0.105 C 
BRANCH   7  21
ATOM     21  C   UNL     1      14.420  10.672  17.627  0.00  0.00    +0.119 C 
BRANCH  21  23
ATOM     23  C   UNL     1      13.167   9.900  17.306  0.00  0.00    -0.033 A 
ATOM     25  C   UNL     1      12.652   9.916  16.010  0.00  0.00    +0.005 A 
ATOM     26  C   UNL     1      12.523   9.171  18.304  0.00  0.00    +0.005 A 
ATOM     27  C   UNL     1      11.491   9.202  15.712  0.00  0.00    +0.000 A 
ATOM     28  C   UNL     1      11.362   8.455  18.007  0.00  0.00    +0.000 A 
ATOM     29  C   UNL     1      10.847   8.471  16.710  0.00  0.00    +0.000 A 
ENDBRANCH  21  23
ENDBRANCH   7  21
ENDBRANCH  17   7
ENDBRANCH  16  17
ENDBRANCH  11  12
BRANCH  11   8
ATOM      1  O   UNL     1      12.407  12.298  25.700  0.00  0.00    -0.376 OA
ATOM      8  C   UNL     1      11.439  11.530  23.960  0.00  0.00    +0.072 C 
ATOM      9  C   UNL     1      12.865  11.830  24.411  0.00  0.00    +0.184 C 
ATOM     10  C   UNL     1      11.027  12.125  25.301  0.00  0.00    +0.184 C 
BRANCH   8   5
ATOM      5  N   UNL     1      11.228  10.090  24.000  0.00  0.00    -0.300 NA
ATOM     30  H   UNL     1      10.705   9.761  24.812  0.00  0.00    +0.123 HD
BRANCH   5  13
ATOM     13  C   UNL     1      10.544   9.656  22.784  0.00  0.00    +0.156 C 
BRANCH  13  15
ATOM      3  O   UNL     1      12.573   8.542  22.036  0.00  0.00    -0.461 OA
ATOM     15  C   UNL     1      11.222   8.470  22.152  0.00  0.00    +0.119 A 
ATOM     18  C   UNL     1      10.756   7.280  21.643  0.00  0.00    +0.046 A 
ATOM     19  C   UNL     1      12.976   7.385  21.448  0.00  0.00    +0.131 A 
ATOM     20  C   UNL     1      11.895   6.575  21.186  0.00  0.00    +0.047 A 
BRANCH  19  24
ATOM     24  C   UNL     1      14.421   7.239  21.219  0.00  0.00    +0.230 C 
BRANCH  24   4
ATOM      4  O   UNL     1      14.707   5.943  20.686  0.00  0.00    -0.387 OA
ATOM     31  H   UNL     1      15.671   5.893  20.566  0.00  0.00    +0.210 HD
ENDBRANCH  24   4
ENDBRANCH  19  24
ENDBRANCH  13  15
ENDBRANCH   5  13
ENDBRANCH   8   5
ENDBRANCH  11   8
TORSDOF 11
ENDMDL
MODEL 2
REMARK VINA RESULT:      -5.9     26.557     28.528
REMARK  Name = 56775627
REMARK  12 active torsions:
REMARK  status: ('A' for Active; 'I' for Inactive)
REMARK    1  A    between atoms: O_4  and  C_24
REMARK    2  A    between atoms: N_5  and  C_8
REMARK    3  A    between atoms: N_5  and  C_13
REMARK    4  A    between atoms: N_7  and  C_17
REMARK    5  A    between atoms: N_7  and  C_21
REMARK    6  A    between atoms: N_7  and  C_22
REMARK    7  A    between atoms: C_8  and  C_11
REMARK    8  A    between atoms: C_11  and  C_12
REMARK    9  A    between atoms: C_13  and  C_15
REMARK   10  A    between atoms: C_16  and  C_17
REMARK   11  A    between atoms: C_19  and  C_24
REMARK   12  A    between atoms: C_21  and  C_23
REMARK                            x       y       z     vdW  Elec       q    Type
REMARK                         _______ _______ _______ _____ _____    ______ ____
ROOT
ATOM     11  C   UNL     1      -8.270 -10.773  14.554  0.00  0.00    +0.085 C 
ENDROOT
BRANCH  11  12
ATOM      2  O   UNL     1      -5.843  -9.242  12.429  0.00  0.00    -0.358 OA
ATOM      6  N   UNL     1      -6.263  -9.736  13.658  0.00  0.00    -0.083 NA
ATOM     12  C   UNL     1      -7.507 -10.174  13.447  0.00  0.00    +0.086 A 
ATOM     14  C   UNL     1      -7.922  -9.985  12.118  0.00  0.00    +0.072 A 
ATOM     16  C   UNL     1      -6.840  -9.396  11.520  0.00  0.00    +0.151 A 
BRANCH  16  17
ATOM     17  C   UNL     1      -6.555  -8.913  10.122  0.00  0.00    +0.161 C 
BRANCH  17   7
ATOM      7  N   UNL     1      -6.093  -9.996   9.255  0.00  0.00    -0.294 NA
ATOM     22  C   UNL     1      -6.922 -10.076   8.052  0.00  0.00    +0.105 C 
BRANCH   7  21
ATOM     21  C   UNL     1      -4.690  -9.799   8.894  0.00  0.00    +0.119 C 
BRANCH  21  23
ATOM     23  C   UNL     1      -3.760 -10.258   9.987  0.00  0.00    -0.033 A 
ATOM     25  C   UNL     1      -2.801  -9.384  10.499  0.00  0.00    +0.005 A 
ATOM     26  C   UNL     1      -3.859 -11.556  10.486  0.00  0.00    +0.005 A 
ATOM     27  C   UNL     1      -1.940  -9.809  11.510  0.00  0.00    +0.000 A 
ATOM     28  C   UNL     1      -2.999 -11.981  11.499  0.00  0.00    +0.000 A 
ATOM     29  C   UNL     1      -2.039 -11.107  12.011  0.00  0.00    +0.000 A 
ENDBRANCH  21  23
ENDBRANCH   7  21
ENDBRANCH  17   7
ENDBRANCH  16  17
ENDBRANCH  11  12
BRANCH  11   8
ATOM      1  O   UNL     1     -10.547  -8.930  16.241  0.00  0.00    -0.376 OA
ATOM      8  C   UNL     1      -8.671  -9.713  15.588  0.00  0.00    +0.072 C 
ATOM      9  C   UNL     1      -9.630  -8.602  15.172  0.00  0.00    +0.184 C 
ATOM     10  C   UNL     1      -9.730 -10.059  16.629  0.00  0.00    +0.184 C 
BRANCH   8   5
ATOM      5  N   UNL     1      -7.527  -9.116  16.262  0.00  0.00    -0.300 NA
ATOM     30  H   UNL     1      -7.583  -8.103  16.376  0.00  0.00    +0.123 HD
BRANCH   5  13
ATOM     13  C   UNL     1      -7.348  -9.733  17.575  0.00  0.00    +0.156 C 
BRANCH  13  15
ATOM      3  O   UNL     1      -5.080 -10.075  16.763  0.00  0.00    -0.461 OA
ATOM     15  C   UNL     1      -6.007 -10.405  17.700  0.00  0.00    +0.119 A 
ATOM     18  C   UNL     1      -5.490 -11.316  18.591  0.00  0.00    +0.046 A 
ATOM     19  C   UNL     1      -3.959 -10.784  17.058  0.00  0.00    +0.131 A 
ATOM     20  C   UNL     1      -4.160 -11.563  18.174  0.00  0.00    +0.047 A 
BRANCH  19  24
ATOM     24  C   UNL     1      -2.808 -10.585  16.165  0.00  0.00    +0.230 C 
BRANCH  24   4
ATOM      4  O   UNL     1      -1.628 -11.144  16.749  0.00  0.00    -0.387 OA
ATOM     31  H   UNL     1      -1.598 -12.080  16.485  0.00  0.00    +0.210 HD
ENDBRANCH  24   4
ENDBRANCH  19  24
ENDBRANCH  13  15
ENDBRANCH   5  13
ENDBRANCH   8   5
ENDBRANCH  11   8
TORSDOF 11
ENDMDL
MODEL 3
REMARK VINA RESULT:      -5.7      2.078      3.649
REMARK  Name = 56775627
REMARK  12 active torsions:
REMARK  status: ('A' for Active; 'I' for Inactive)
REMARK    1  A    between atoms: O_4  and  C_24
REMARK    2  A    between atoms: N_5  and  C_8
REMARK    3  A    between atoms: N_5  and  C_13
REMARK    4  A    between atoms: N_7  and  C_17
REMARK    5  A    between atoms: N_7  and  C_21
REMARK    6  A    between atoms: N_7  and  C_22
REMARK    7  A    between atoms: C_8  and  C_11
REMARK    8  A    between atoms: C_11  and  C_12
REMARK    9  A    between atoms: C_13  and  C_15
REMARK   10  A    between atoms: C_16  and  C_17
REMARK   11  A    between atoms: C_19  and  C_24
REMARK   12  A    between atoms: C_21  and  C_23
REMARK                            x       y       z     vdW  Elec       q    Type
REMARK                         _______ _______ _______ _____ _____    ______ ____
ROOT
ATOM     11  C   UNL     1      11.298  11.759  22.377  0.00  0.00    +0.085 C 
ENDROOT
BRANCH  11  12
ATOM      2  O   UNL     1      11.165   8.389  21.201  0.00  0.00    -0.358 OA
ATOM      6  N   UNL     1      10.870   9.378  22.132  0.00  0.00    -0.083 NA
ATOM     12  C   UNL     1      11.419  10.491  21.637  0.00  0.00    +0.086 A 
ATOM     14  C   UNL     1      12.066  10.269  20.410  0.00  0.00    +0.072 A 
ATOM     16  C   UNL     1      11.877   8.932  20.180  0.00  0.00    +0.151 A 
BRANCH  16  17
ATOM     17  C   UNL     1      12.284   7.996  19.072  0.00  0.00    +0.161 C 
BRANCH  17   7
ATOM      7  N   UNL     1      13.394   8.533  18.287  0.00  0.00    -0.294 NA
ATOM     22  C   UNL     1      14.285   7.454  17.859  0.00  0.00    +0.105 C 
BRANCH   7  21
ATOM     21  C   UNL     1      12.892   9.269  17.127  0.00  0.00    +0.119 C 
BRANCH  21  23
ATOM     23  C   UNL     1      13.786  10.426  16.767  0.00  0.00    -0.033 A 
ATOM     25  C   UNL     1      13.870  10.857  15.443  0.00  0.00    +0.005 A 
ATOM     26  C   UNL     1      14.528  11.068  17.758  0.00  0.00    +0.005 A 
ATOM     27  C   UNL     1      14.698  11.928  15.110  0.00  0.00    +0.000 A 
ATOM     28  C   UNL     1      15.356  12.141  17.425  0.00  0.00    +0.000 A 
ATOM     29  C   UNL     1      15.440  12.571  16.101  0.00  0.00    +0.000 A 
ENDBRANCH  21  23
ENDBRANCH   7  21
ENDBRANCH  17   7
ENDBRANCH  16  17
ENDBRANCH  11  12
BRANCH  11   8
ATOM      1  O   UNL     1      11.769  12.717  25.584  0.00  0.00    -0.376 OA
ATOM      8  C   UNL     1      12.007  11.677  23.735  0.00  0.00    +0.072 C 
ATOM      9  C   UNL     1      12.525  12.960  24.376  0.00  0.00    +0.184 C 
ATOM     10  C   UNL     1      11.167  11.538  25.000  0.00  0.00    +0.184 C 
BRANCH   8   5
ATOM      5  N   UNL     1      13.066  10.678  23.763  0.00  0.00    -0.300 NA
ATOM     30  H   UNL     1      12.908   9.876  23.152  0.00  0.00    +0.123 HD
BRANCH   5  13
ATOM     13  C   UNL     1      14.342  11.300  23.413  0.00  0.00    +0.156 C 
BRANCH  13  15
ATOM      3  O   UNL     1      14.878   9.172  22.361  0.00  0.00    -0.461 OA
ATOM     15  C   UNL     1      15.076  10.516  22.358  0.00  0.00    +0.119 A 
ATOM     18  C   UNL     1      15.941  10.874  21.350  0.00  0.00    +0.046 A 
ATOM     19  C   UNL     1      15.623   8.666  21.344  0.00  0.00    +0.131 A 
ATOM     20  C   UNL     1      16.296   9.673  20.691  0.00  0.00    +0.047 A 
BRANCH  19  24
ATOM     24  C   UNL     1      15.564   7.209  21.155  0.00  0.00    +0.230 C 
BRANCH  24   4
ATOM      4  O   UNL     1      15.549   6.547  22.422  0.00  0.00    -0.387 OA
ATOM     31  H   UNL     1      16.394   6.752  22.859  0.00  0.00    +0.210 HD
ENDBRANCH  24   4
ENDBRANCH  19  24
ENDBRANCH  13  15
ENDBRANCH   5  13
ENDBRANCH   8   5
ENDBRANCH  11   8
TORSDOF 11
ENDMDL
MODEL 4
REMARK VINA RESULT:      -5.7     14.493     17.963
REMARK  Name = 56775627
REMARK  12 active torsions:
REMARK  status: ('A' for Active; 'I' for Inactive)
REMARK    1  A    between atoms: O_4  and  C_24
REMARK    2  A    between atoms: N_5  and  C_8
REMARK    3  A    between atoms: N_5  and  C_13
REMARK    4  A    between atoms: N_7  and  C_17
REMARK    5  A    between atoms: N_7  and  C_21
REMARK    6  A    between atoms: N_7  and  C_22
REMARK    7  A    between atoms: C_8  and  C_11
REMARK    8  A    between atoms: C_11  and  C_12
REMARK    9  A    between atoms: C_13  and  C_15
REMARK   10  A    between atoms: C_16  and  C_17
REMARK   11  A    between atoms: C_19  and  C_24
REMARK   12  A    between atoms: C_21  and  C_23
REMARK                            x       y       z     vdW  Elec       q    Type
REMARK                         _______ _______ _______ _____ _____    ______ ____
ROOT
ATOM     11  C   UNL     1      13.882   8.397   3.875  0.00  0.00    +0.085 C 
ENDROOT
BRANCH  11  12
ATOM      2  O   UNL     1      11.559   6.089   5.299  0.00  0.00    -0.358 OA
ATOM      6  N   UNL     1      12.217   6.660   4.216  0.00  0.00    -0.083 NA
ATOM     12  C   UNL     1      13.020   7.584   4.749  0.00  0.00    +0.086 A 
ATOM     14  C   UNL     1      12.915   7.641   6.149  0.00  0.00    +0.072 A 
ATOM     16  C   UNL     1      11.984   6.681   6.445  0.00  0.00    +0.151 A 
BRANCH  16  17
ATOM     17  C   UNL     1      11.373   6.181   7.727  0.00  0.00    +0.161 C 
BRANCH  17   7
ATOM      7  N   UNL     1      10.014   5.681   7.523  0.00  0.00    -0.294 NA
ATOM     22  C   UNL     1       9.771   4.508   8.363  0.00  0.00    +0.105 C 
BRANCH   7  21
ATOM     21  C   UNL     1       9.035   6.727   7.813  0.00  0.00    +0.119 C 
BRANCH  21  23
ATOM     23  C   UNL     1       8.679   7.519   6.582  0.00  0.00    -0.033 A 
ATOM     25  C   UNL     1       8.717   8.913   6.614  0.00  0.00    +0.005 A 
ATOM     26  C   UNL     1       8.312   6.858   5.411  0.00  0.00    +0.005 A 
ATOM     27  C   UNL     1       8.387   9.646   5.475  0.00  0.00    +0.000 A 
ATOM     28  C   UNL     1       7.983   7.591   4.270  0.00  0.00    +0.000 A 
ATOM     29  C   UNL     1       8.021   8.985   4.303  0.00  0.00    +0.000 A 
ENDBRANCH  21  23
ENDBRANCH   7  21
ENDBRANCH  17   7
ENDBRANCH  16  17
ENDBRANCH  11  12
BRANCH  11   8
ATOM      1  O   UNL     1      17.254   8.357   3.643  0.00  0.00    -0.376 OA
ATOM      8  C   UNL     1      15.224   7.699   3.616  0.00  0.00    +0.072 C 
ATOM      9  C   UNL     1      16.211   8.335   2.642  0.00  0.00    +0.184 C 
ATOM     10  C   UNL     1      16.343   7.844   4.641  0.00  0.00    +0.184 C 
BRANCH   8   5
ATOM      5  N   UNL     1      15.075   6.290   3.279  0.00  0.00    -0.300 NA
ATOM     30  H   UNL     1      14.275   5.833   3.717  0.00  0.00    +0.123 HD
BRANCH   5  13
ATOM     13  C   UNL     1      14.977   6.136   1.829  0.00  0.00    +0.156 C 
BRANCH  13  15
ATOM      3  O   UNL     1      12.925   5.282   0.838  0.00  0.00    -0.461 OA
ATOM     15  C   UNL     1      14.100   4.973   1.447  0.00  0.00    +0.119 A 
ATOM     18  C   UNL     1      14.229   3.611   1.585  0.00  0.00    +0.046 A 
ATOM     19  C   UNL     1      12.298   4.104   0.584  0.00  0.00    +0.131 A 
ATOM     20  C   UNL     1      13.059   3.046   1.024  0.00  0.00    +0.047 A 
BRANCH  19  24
ATOM     24  C   UNL     1      10.989   4.193  -0.081  0.00  0.00    +0.230 C 
BRANCH  24   4
ATOM      4  O   UNL     1       9.938   4.084   0.882  0.00  0.00    -0.387 OA
ATOM     31  H   UNL     1       9.761   4.982   1.212  0.00  0.00    +0.210 HD
ENDBRANCH  24   4
ENDBRANCH  19  24
ENDBRANCH  13  15
ENDBRANCH   5  13
ENDBRANCH   8   5
ENDBRANCH  11   8
TORSDOF 11
ENDMDL
MODEL 5
REMARK VINA RESULT:      -5.7     26.379     28.701
REMARK  Name = 56775627
REMARK  12 active torsions:
REMARK  status: ('A' for Active; 'I' for Inactive)
REMARK    1  A    between atoms: O_4  and  C_24
REMARK    2  A    between atoms: N_5  and  C_8
REMARK    3  A    between atoms: N_5  and  C_13
REMARK    4  A    between atoms: N_7  and  C_17
REMARK    5  A    between atoms: N_7  and  C_21
REMARK    6  A    between atoms: N_7  and  C_22
REMARK    7  A    between atoms: C_8  and  C_11
REMARK    8  A    between atoms: C_11  and  C_12
REMARK    9  A    between atoms: C_13  and  C_15
REMARK   10  A    between atoms: C_16  and  C_17
REMARK   11  A    between atoms: C_19  and  C_24
REMARK   12  A    between atoms: C_21  and  C_23
REMARK                            x       y       z     vdW  Elec       q    Type
REMARK                         _______ _______ _______ _____ _____    ______ ____
ROOT
ATOM     11  C   UNL     1     -14.497   6.037  34.013  0.00  0.00    +0.085 C 
ENDROOT
BRANCH  11  12
ATOM      2  O   UNL     1     -12.697   8.371  31.998  0.00  0.00    -0.358 OA
ATOM      6  N   UNL     1     -12.831   7.140  32.629  0.00  0.00    -0.083 NA
ATOM     12  C   UNL     1     -14.020   7.193  33.236  0.00  0.00    +0.086 A 
ATOM     14  C   UNL     1     -14.674   8.419  33.026  0.00  0.00    +0.072 A 
ATOM     16  C   UNL     1     -13.800   9.123  32.242  0.00  0.00    +0.151 A 
BRANCH  16  17
ATOM     17  C   UNL     1     -13.825  10.499  31.628  0.00  0.00    +0.161 C 
BRANCH  17   7
ATOM      7  N   UNL     1     -13.865  10.443  30.168  0.00  0.00    -0.294 NA
ATOM     22  C   UNL     1     -15.250  10.427  29.695  0.00  0.00    +0.105 C 
BRANCH   7  21
ATOM     21  C   UNL     1     -13.144  11.577  29.593  0.00  0.00    +0.119 C 
BRANCH  21  23
ATOM     23  C   UNL     1     -12.381  11.187  28.354  0.00  0.00    -0.033 A 
ATOM     25  C   UNL     1     -12.726  11.739  27.120  0.00  0.00    +0.005 A 
ATOM     26  C   UNL     1     -11.330  10.275  28.441  0.00  0.00    +0.005 A 
ATOM     27  C   UNL     1     -12.020  11.377  25.973  0.00  0.00    +0.000 A 
ATOM     28  C   UNL     1     -10.623   9.914  27.294  0.00  0.00    +0.000 A 
ATOM     29  C   UNL     1     -10.968  10.466  26.060  0.00  0.00    +0.000 A 
ENDBRANCH  21  23
ENDBRANCH   7  21
ENDBRANCH  17   7
ENDBRANCH  16  17
ENDBRANCH  11  12
BRANCH  11   8
ATOM      1  O   UNL     1     -16.699   4.446  32.000  0.00  0.00    -0.376 OA
ATOM      8  C   UNL     1     -14.916   4.884  33.090  0.00  0.00    +0.072 C 
ATOM      9  C   UNL     1     -16.244   4.179  33.347  0.00  0.00    +0.184 C 
ATOM     10  C   UNL     1     -15.503   5.209  31.721  0.00  0.00    +0.184 C 
BRANCH   8   5
ATOM      5  N   UNL     1     -13.875   3.880  32.929  0.00  0.00    -0.300 NA
ATOM     30  H   UNL     1     -13.988   3.054  33.519  0.00  0.00    +0.123 HD
BRANCH   5  13
ATOM     13  C   UNL     1     -13.804   3.460  31.531  0.00  0.00    +0.156 C 
BRANCH  13  15
ATOM      3  O   UNL     1     -13.565   1.373  30.304  0.00  0.00    -0.461 OA
ATOM     15  C   UNL     1     -14.133   2.000  31.367  0.00  0.00    +0.119 A 
ATOM     18  C   UNL     1     -14.914   1.124  32.083  0.00  0.00    +0.046 A 
ATOM     19  C   UNL     1     -13.988   0.082  30.342  0.00  0.00    +0.131 A 
ATOM     20  C   UNL     1     -14.820  -0.122  31.419  0.00  0.00    +0.047 A 
BRANCH  19  24
ATOM     24  C   UNL     1     -13.493  -0.798  29.274  0.00  0.00    +0.230 C 
BRANCH  24   4
ATOM      4  O   UNL     1     -12.309  -1.477  29.703  0.00  0.00    -0.387 OA
ATOM     31  H   UNL     1     -12.286  -1.420  30.674  0.00  0.00    +0.210 HD
ENDBRANCH  24   4
ENDBRANCH  19  24
ENDBRANCH  13  15
ENDBRANCH   5  13
ENDBRANCH   8   5
ENDBRANCH  11   8
TORSDOF 11
ENDMDL
MODEL 6
REMARK VINA RESULT:      -5.7     27.948     29.935
REMARK  Name = 56775627
REMARK  12 active torsions:
REMARK  status: ('A' for Active; 'I' for Inactive)
REMARK    1  A    between atoms: O_4  and  C_24
REMARK    2  A    between atoms: N_5  and  C_8
REMARK    3  A    between atoms: N_5  and  C_13
REMARK    4  A    between atoms: N_7  and  C_17
REMARK    5  A    between atoms: N_7  and  C_21
REMARK    6  A    between atoms: N_7  and  C_22
REMARK    7  A    between atoms: C_8  and  C_11
REMARK    8  A    between atoms: C_11  and  C_12
REMARK    9  A    between atoms: C_13  and  C_15
REMARK   10  A    between atoms: C_16  and  C_17
REMARK   11  A    between atoms: C_19  and  C_24
REMARK   12  A    between atoms: C_21  and  C_23
REMARK                            x       y       z     vdW  Elec       q    Type
REMARK                         _______ _______ _______ _____ _____    ______ ____
ROOT
ATOM     11  C   UNL     1     -16.046   3.287  26.156  0.00  0.00    +0.085 C 
ENDROOT
BRANCH  11  12
ATOM      2  O   UNL     1     -16.885   2.430  22.793  0.00  0.00    -0.358 OA
ATOM      6  N   UNL     1     -16.397   2.115  24.056  0.00  0.00    -0.083 NA
ATOM     12  C   UNL     1     -16.483   3.252  24.751  0.00  0.00    +0.086 A 
ATOM     14  C   UNL     1     -17.012   4.307  23.988  0.00  0.00    +0.072 A 
ATOM     16  C   UNL     1     -17.249   3.738  22.765  0.00  0.00    +0.151 A 
BRANCH  16  17
ATOM     17  C   UNL     1     -17.805   4.253  21.464  0.00  0.00    +0.161 C 
BRANCH  17   7
ATOM      7  N   UNL     1     -16.754   4.773  20.591  0.00  0.00    -0.294 NA
ATOM     22  C   UNL     1     -17.199   4.767  19.197  0.00  0.00    +0.105 C 
BRANCH   7  21
ATOM     21  C   UNL     1     -16.373   6.125  20.998  0.00  0.00    +0.119 C 
BRANCH  21  23
ATOM     23  C   UNL     1     -14.878   6.308  21.004  0.00  0.00    -0.033 A 
ATOM     25  C   UNL     1     -14.291   7.278  20.192  0.00  0.00    +0.005 A 
ATOM     26  C   UNL     1     -14.080   5.508  21.821  0.00  0.00    +0.005 A 
ATOM     27  C   UNL     1     -12.907   7.448  20.196  0.00  0.00    +0.000 A 
ATOM     28  C   UNL     1     -12.696   5.677  21.827  0.00  0.00    +0.000 A 
ATOM     29  C   UNL     1     -12.109   6.648  21.015  0.00  0.00    +0.000 A 
ENDBRANCH  21  23
ENDBRANCH   7  21
ENDBRANCH  17   7
ENDBRANCH  16  17
ENDBRANCH  11  12
BRANCH  11   8
ATOM      1  O   UNL     1     -19.235   4.108  26.920  0.00  0.00    -0.376 OA
ATOM      8  C   UNL     1     -17.247   3.354  27.109  0.00  0.00    +0.072 C 
ATOM      9  C   UNL     1     -17.965   4.686  27.299  0.00  0.00    +0.184 C 
ATOM     10  C   UNL     1     -18.600   2.841  26.630  0.00  0.00    +0.184 C 
BRANCH   8   5
ATOM      5  N   UNL     1     -16.965   2.782  28.418  0.00  0.00    -0.300 NA
ATOM     30  H   UNL     1     -17.652   2.098  28.738  0.00  0.00    +0.123 HD
BRANCH   5  13
ATOM     13  C   UNL     1     -15.642   2.163  28.413  0.00  0.00    +0.156 C 
BRANCH  13  15
ATOM      3  O   UNL     1     -15.280   2.342  30.812  0.00  0.00    -0.461 OA
ATOM     15  C   UNL     1     -15.320   1.517  29.734  0.00  0.00    +0.119 A 
ATOM     18  C   UNL     1     -15.045   0.222  30.107  0.00  0.00    +0.046 A 
ATOM     19  C   UNL     1     -14.977   1.566  31.886  0.00  0.00    +0.131 A 
ATOM     20  C   UNL     1     -14.822   0.253  31.504  0.00  0.00    +0.047 A 
BRANCH  19  24
ATOM     24  C   UNL     1     -14.879   2.255  33.181  0.00  0.00    +0.230 C 
BRANCH  24   4
ATOM      4  O   UNL     1     -14.845   1.301  34.246  0.00  0.00    -0.387 OA
ATOM     31  H   UNL     1     -13.911   1.072  34.391  0.00  0.00    +0.210 HD
ENDBRANCH  24   4
ENDBRANCH  19  24
ENDBRANCH  13  15
ENDBRANCH   5  13
ENDBRANCH   8   5
ENDBRANCH  11   8
TORSDOF 11
ENDMDL
MODEL 7
REMARK VINA RESULT:      -5.6     13.073     16.204
REMARK  Name = 56775627
REMARK  12 active torsions:
REMARK  status: ('A' for Active; 'I' for Inactive)
REMARK    1  A    between atoms: O_4  and  C_24
REMARK    2  A    between atoms: N_5  and  C_8
REMARK    3  A    between atoms: N_5  and  C_13
REMARK    4  A    between atoms: N_7  and  C_17
REMARK    5  A    between atoms: N_7  and  C_21
REMARK    6  A    between atoms: N_7  and  C_22
REMARK    7  A    between atoms: C_8  and  C_11
REMARK    8  A    between atoms: C_11  and  C_12
REMARK    9  A    between atoms: C_13  and  C_15
REMARK   10  A    between atoms: C_16  and  C_17
REMARK   11  A    between atoms: C_19  and  C_24
REMARK   12  A    between atoms: C_21  and  C_23
REMARK                            x       y       z     vdW  Elec       q    Type
REMARK                         _______ _______ _______ _____ _____    ______ ____
ROOT
ATOM     11  C   UNL     1      10.206   6.660   2.655  0.00  0.00    +0.085 C 
ENDROOT
BRANCH  11  12
ATOM      2  O   UNL     1      11.692   9.711   3.766  0.00  0.00    -0.358 OA
ATOM      6  N   UNL     1      11.685   8.559   2.988  0.00  0.00    -0.083 NA
ATOM     12  C   UNL     1      10.546   7.937   3.303  0.00  0.00    +0.086 A 
ATOM     14  C   UNL     1       9.801   8.641   4.264  0.00  0.00    +0.072 A 
ATOM     16  C   UNL     1      10.564   9.748   4.521  0.00  0.00    +0.151 A 
BRANCH  16  17
ATOM     17  C   UNL     1      10.403  10.937   5.431  0.00  0.00    +0.161 C 
BRANCH  17   7
ATOM      7  N   UNL     1      11.574  11.132   6.285  0.00  0.00    -0.294 NA
ATOM     22  C   UNL     1      11.444  12.368   7.057  0.00  0.00    +0.105 C 
BRANCH   7  21
ATOM     21  C   UNL     1      11.751   9.989   7.179  0.00  0.00    +0.119 C 
BRANCH  21  23
ATOM     23  C   UNL     1      13.012   9.225   6.870  0.00  0.00    -0.033 A 
ATOM     25  C   UNL     1      13.019   7.832   6.943  0.00  0.00    +0.005 A 
ATOM     26  C   UNL     1      14.172   9.910   6.512  0.00  0.00    +0.005 A 
ATOM     27  C   UNL     1      14.186   7.124   6.657  0.00  0.00    +0.000 A 
ATOM     28  C   UNL     1      15.340   9.203   6.225  0.00  0.00    +0.000 A 
ATOM     29  C   UNL     1      15.346   7.810   6.297  0.00  0.00    +0.000 A 
ENDBRANCH  21  23
ENDBRANCH   7  21
ENDBRANCH  17   7
ENDBRANCH  16  17
ENDBRANCH  11  12
BRANCH  11   8
ATOM      1  O   UNL     1      12.197   3.977   2.137  0.00  0.00    -0.376 OA
ATOM      8  C   UNL     1      11.128   5.531   3.136  0.00  0.00    +0.072 C 
ATOM      9  C   UNL     1      10.857   4.106   2.666  0.00  0.00    +0.184 C 
ATOM     10  C   UNL     1      12.488   5.354   2.472  0.00  0.00    +0.184 C 
BRANCH   8   5
ATOM      5  N   UNL     1      11.305   5.522   4.581  0.00  0.00    -0.300 NA
ATOM     30  H   UNL     1      11.330   6.447   5.011  0.00  0.00    +0.123 HD
BRANCH   5  13
ATOM     13  C   UNL     1      10.244   4.735   5.206  0.00  0.00    +0.156 C 
BRANCH  13  15
ATOM      3  O   UNL     1       9.777   4.364   7.565  0.00  0.00    -0.461 OA
ATOM     15  C   UNL     1       9.869   5.274   6.560  0.00  0.00    +0.119 A 
ATOM     18  C   UNL     1       9.587   6.537   7.026  0.00  0.00    +0.046 A 
ATOM     19  C   UNL     1       9.432   5.053   8.684  0.00  0.00    +0.131 A 
ATOM     20  C   UNL     1       9.304   6.394   8.405  0.00  0.00    +0.047 A 
BRANCH  19  24
ATOM     24  C   UNL     1       9.273   4.262   9.913  0.00  0.00    +0.230 C 
BRANCH  24   4
ATOM      4  O   UNL     1      10.225   4.679  10.895  0.00  0.00    -0.387 OA
ATOM     31  H   UNL     1       9.821   5.416  11.386  0.00  0.00    +0.210 HD
ENDBRANCH  24   4
ENDBRANCH  19  24
ENDBRANCH  13  15
ENDBRANCH   5  13
ENDBRANCH   8   5
ENDBRANCH  11   8
TORSDOF 11
ENDMDL
MODEL 8
REMARK VINA RESULT:      -5.5      2.305      4.175
REMARK  Name = 56775627
REMARK  12 active torsions:
REMARK  status: ('A' for Active; 'I' for Inactive)
REMARK    1  A    between atoms: O_4  and  C_24
REMARK    2  A    between atoms: N_5  and  C_8
REMARK    3  A    between atoms: N_5  and  C_13
REMARK    4  A    between atoms: N_7  and  C_17
REMARK    5  A    between atoms: N_7  and  C_21
REMARK    6  A    between atoms: N_7  and  C_22
REMARK    7  A    between atoms: C_8  and  C_11
REMARK    8  A    between atoms: C_11  and  C_12
REMARK    9  A    between atoms: C_13  and  C_15
REMARK   10  A    between atoms: C_16  and  C_17
REMARK   11  A    between atoms: C_19  and  C_24
REMARK   12  A    between atoms: C_21  and  C_23
REMARK                            x       y       z     vdW  Elec       q    Type
REMARK                         _______ _______ _______ _____ _____    ______ ____
ROOT
ATOM     11  C   UNL     1      11.094  11.648  22.516  0.00  0.00    +0.085 C 
ENDROOT
BRANCH  11  12
ATOM      2  O   UNL     1      11.348   8.123  22.003  0.00  0.00    -0.358 OA
ATOM      6  N   UNL     1      10.996   9.232  22.763  0.00  0.00    -0.083 NA
ATOM     12  C   UNL     1      11.332  10.284  22.014  0.00  0.00    +0.086 A 
ATOM     14  C   UNL     1      11.895   9.906  20.783  0.00  0.00    +0.072 A 
ATOM     16  C   UNL     1      11.882   8.538  20.826  0.00  0.00    +0.151 A 
BRANCH  16  17
ATOM     17  C   UNL     1      12.323   7.460  19.871  0.00  0.00    +0.161 C 
BRANCH  17   7
ATOM      7  N   UNL     1      13.700   7.659  19.422  0.00  0.00    -0.294 NA
ATOM     22  C   UNL     1      14.566   6.603  19.947  0.00  0.00    +0.105 C 
BRANCH   7  21
ATOM     21  C   UNL     1      13.763   7.690  17.962  0.00  0.00    +0.119 C 
BRANCH  21  23
ATOM     23  C   UNL     1      14.054   9.073  17.442  0.00  0.00    -0.033 A 
ATOM     25  C   UNL     1      14.644  10.022  18.276  0.00  0.00    +0.005 A 
ATOM     26  C   UNL     1      13.735   9.404  16.126  0.00  0.00    +0.005 A 
ATOM     27  C   UNL     1      14.914  11.303  17.795  0.00  0.00    +0.000 A 
ATOM     28  C   UNL     1      14.006  10.685  15.643  0.00  0.00    +0.000 A 
ATOM     29  C   UNL     1      14.596  11.634  16.478  0.00  0.00    +0.000 A 
ENDBRANCH  21  23
ENDBRANCH   7  21
ENDBRANCH  17   7
ENDBRANCH  16  17
ENDBRANCH  11  12
BRANCH  11   8
ATOM      1  O   UNL     1      11.466  13.141  25.526  0.00  0.00    -0.376 OA
ATOM      8  C   UNL     1      11.836  11.889  23.837  0.00  0.00    +0.072 C 
ATOM      9  C   UNL     1      12.143  13.321  24.261  0.00  0.00    +0.184 C 
ATOM     10  C   UNL     1      11.060  11.806  25.147  0.00  0.00    +0.184 C 
BRANCH   8   5
ATOM      5  N   UNL     1      13.050  11.094  23.959  0.00  0.00    -0.300 NA
ATOM     30  H   UNL     1      13.001  10.176  23.514  0.00  0.00    +0.123 HD
BRANCH   5  13
ATOM     13  C   UNL     1      14.183  11.832  23.407  0.00  0.00    +0.156 C 
BRANCH  13  15
ATOM      3  O   UNL     1      16.198  11.534  22.077  0.00  0.00    -0.461 OA
ATOM     15  C   UNL     1      15.117  10.935  22.639  0.00  0.00    +0.119 A 
ATOM     18  C   UNL     1      15.117   9.587  22.369  0.00  0.00    +0.046 A 
ATOM     19  C   UNL     1      16.897  10.558  21.441  0.00  0.00    +0.131 A 
ATOM     20  C   UNL     1      16.273   9.341  21.591  0.00  0.00    +0.047 A 
BRANCH  19  24
ATOM     24  C   UNL     1      18.125  10.980  20.751  0.00  0.00    +0.230 C 
BRANCH  24   4
ATOM      4  O   UNL     1      17.813  11.918  19.718  0.00  0.00    -0.387 OA
ATOM     31  H   UNL     1      16.858  12.094  19.775  0.00  0.00    +0.210 HD
ENDBRANCH  24   4
ENDBRANCH  19  24
ENDBRANCH  13  15
ENDBRANCH   5  13
ENDBRANCH   8   5
ENDBRANCH  11   8
TORSDOF 11
ENDMDL
MODEL 9
REMARK VINA RESULT:      -5.5     26.151     28.815
REMARK  Name = 56775627
REMARK  12 active torsions:
REMARK  status: ('A' for Active; 'I' for Inactive)
REMARK    1  A    between atoms: O_4  and  C_24
REMARK    2  A    between atoms: N_5  and  C_8
REMARK    3  A    between atoms: N_5  and  C_13
REMARK    4  A    between atoms: N_7  and  C_17
REMARK    5  A    between atoms: N_7  and  C_21
REMARK    6  A    between atoms: N_7  and  C_22
REMARK    7  A    between atoms: C_8  and  C_11
REMARK    8  A    between atoms: C_11  and  C_12
REMARK    9  A    between atoms: C_13  and  C_15
REMARK   10  A    between atoms: C_16  and  C_17
REMARK   11  A    between atoms: C_19  and  C_24
REMARK   12  A    between atoms: C_21  and  C_23
REMARK                            x       y       z     vdW  Elec       q    Type
REMARK                         _______ _______ _______ _____ _____    ______ ____
ROOT
ATOM     11  C   UNL     1      -7.575 -11.340  17.293  0.00  0.00    +0.085 C 
ENDROOT
BRANCH  11  12
ATOM      2  O   UNL     1      -4.670 -10.206  15.552  0.00  0.00    -0.358 OA
ATOM      6  N   UNL     1      -5.933 -10.005  16.096  0.00  0.00    -0.083 NA
ATOM     12  C   UNL     1      -6.274 -11.185  16.620  0.00  0.00    +0.086 A 
ATOM     14  C   UNL     1      -5.277 -12.159  16.439  0.00  0.00    +0.072 A 
ATOM     16  C   UNL     1      -4.290 -11.493  15.763  0.00  0.00    +0.151 A 
BRANCH  16  17
ATOM     17  C   UNL     1      -2.936 -11.889  15.236  0.00  0.00    +0.161 C 
BRANCH  17   7
ATOM      7  N   UNL     1      -2.425 -10.921  14.266  0.00  0.00    -0.294 NA
ATOM     22  C   UNL     1      -1.363 -10.112  14.864  0.00  0.00    +0.105 C 
BRANCH   7  21
ATOM     21  C   UNL     1      -1.933 -11.606  13.072  0.00  0.00    +0.119 C 
BRANCH  21  23
ATOM     23  C   UNL     1      -2.644 -11.143  11.827  0.00  0.00    -0.033 A 
ATOM     25  C   UNL     1      -2.495  -9.829  11.386  0.00  0.00    +0.005 A 
ATOM     26  C   UNL     1      -3.452 -12.030  11.116  0.00  0.00    +0.005 A 
ATOM     27  C   UNL     1      -3.153  -9.400  10.234  0.00  0.00    +0.000 A 
ATOM     28  C   UNL     1      -4.110 -11.602   9.962  0.00  0.00    +0.000 A 
ATOM     29  C   UNL     1      -3.960 -10.287   9.521  0.00  0.00    +0.000 A 
ENDBRANCH  21  23
ENDBRANCH   7  21
ENDBRANCH  17   7
ENDBRANCH  16  17
ENDBRANCH  11  12
BRANCH  11   8
ATOM      1  O   UNL     1      -6.017 -11.416  20.292  0.00  0.00    -0.376 OA
ATOM      8  C   UNL     1      -7.470 -10.999  18.786  0.00  0.00    +0.072 C 
ATOM      9  C   UNL     1      -7.173 -12.117  19.779  0.00  0.00    +0.184 C 
ATOM     10  C   UNL     1      -6.187 -10.367  19.311  0.00  0.00    +0.184 C 
BRANCH   8   5
ATOM      5  N   UNL     1      -8.607 -10.230  19.272  0.00  0.00    -0.300 NA
ATOM     30  H   UNL     1      -8.596  -9.244  19.005  0.00  0.00    +0.123 HD
BRANCH   5  13
ATOM     13  C   UNL     1      -9.851 -10.836  18.806  0.00  0.00    +0.156 C 
BRANCH  13  15
ATOM      3  O   UNL     1     -10.072  -8.850  17.418  0.00  0.00    -0.461 OA
ATOM     15  C   UNL     1     -10.720  -9.846  18.077  0.00  0.00    +0.119 A 
ATOM     18  C   UNL     1     -12.081  -9.719  17.926  0.00  0.00    +0.046 A 
ATOM     19  C   UNL     1     -11.029  -8.080  16.839  0.00  0.00    +0.131 A 
ATOM     20  C   UNL     1     -12.282  -8.573  17.121  0.00  0.00    +0.047 A 
BRANCH  19  24
ATOM     24  C   UNL     1     -10.555  -6.926  16.061  0.00  0.00    +0.230 C 
BRANCH  24   4
ATOM      4  O   UNL     1     -11.069  -5.712  16.616  0.00  0.00    -0.387 OA
ATOM     31  H   UNL     1     -10.418  -5.015  16.424  0.00  0.00    +0.210 HD
ENDBRANCH  24   4
ENDBRANCH  19  24
ENDBRANCH  13  15
ENDBRANCH   5  13
ENDBRANCH   8   5
ENDBRANCH  11   8
TORSDOF 11
ENDMDL
MODEL 10
REMARK VINA RESULT:      -5.4     14.044     16.680
REMARK  Name = 56775627
REMARK  12 active torsions:
REMARK  status: ('A' for Active; 'I' for Inactive)
REMARK    1  A    between atoms: O_4  and  C_24
REMARK    2  A    between atoms: N_5  and  C_8
REMARK    3  A    between atoms: N_5  and  C_13
REMARK    4  A    between atoms: N_7  and  C_17
REMARK    5  A    between atoms: N_7  and  C_21
REMARK    6  A    between atoms: N_7  and  C_22
REMARK    7  A    between atoms: C_8  and  C_11
REMARK    8  A    between atoms: C_11  and  C_12
REMARK    9  A    between atoms: C_13  and  C_15
REMARK   10  A    between atoms: C_16  and  C_17
REMARK   11  A    between atoms: C_19  and  C_24
REMARK   12  A    between atoms: C_21  and  C_23
REMARK                            x       y       z     vdW  Elec       q    Type
REMARK                         _______ _______ _______ _____ _____    ______ ____
ROOT
ATOM     11  C   UNL     1      14.605   8.276   4.861  0.00  0.00    +0.085 C 
ENDROOT
BRANCH  11  12
ATOM      2  O   UNL     1      13.147   6.405   7.530  0.00  0.00    -0.358 OA
ATOM      6  N   UNL     1      14.237   6.834   6.783  0.00  0.00    -0.083 NA
ATOM     12  C   UNL     1      13.720   7.633   5.846  0.00  0.00    +0.086 A 
ATOM     14  C   UNL     1      12.323   7.746   5.951  0.00  0.00    +0.072 A 
ATOM     16  C   UNL     1      12.013   6.956   7.025  0.00  0.00    +0.151 A 
BRANCH  16  17
ATOM     17  C   UNL     1      10.725   6.598   7.720  0.00  0.00    +0.161 C 
BRANCH  17   7
ATOM      7  N   UNL     1      10.177   5.333   7.232  0.00  0.00    -0.294 NA
ATOM     22  C   UNL     1       9.771   4.486   8.354  0.00  0.00    +0.105 C 
BRANCH   7  21
ATOM     21  C   UNL     1       9.044   5.577   6.341  0.00  0.00    +0.119 C 
BRANCH  21  23
ATOM     23  C   UNL     1       9.481   5.748   4.910  0.00  0.00    -0.033 A 
ATOM     25  C   UNL     1       9.075   6.867   4.185  0.00  0.00    +0.005 A 
ATOM     26  C   UNL     1      10.293   4.786   4.311  0.00  0.00    +0.005 A 
ATOM     27  C   UNL     1       9.480   7.025   2.860  0.00  0.00    +0.000 A 
ATOM     28  C   UNL     1      10.700   4.943   2.986  0.00  0.00    +0.000 A 
ATOM     29  C   UNL     1      10.293   6.064   2.261  0.00  0.00    +0.000 A 
ENDBRANCH  21  23
ENDBRANCH   7  21
ENDBRANCH  17   7
ENDBRANCH  16  17
ENDBRANCH  11  12
BRANCH  11   8
ATOM      1  O   UNL     1      15.352  11.427   5.831  0.00  0.00    -0.376 OA
ATOM      8  C   UNL     1      15.511   9.320   5.528  0.00  0.00    +0.072 C 
ATOM      9  C   UNL     1      15.858  10.593   4.763  0.00  0.00    +0.184 C 
ATOM     10  C   UNL     1      14.913  10.262   6.567  0.00  0.00    +0.184 C 
BRANCH   8   5
ATOM      5  N   UNL     1      16.737   8.747   6.065  0.00  0.00    -0.300 NA
ATOM     30  H   UNL     1      16.855   7.749   5.880  0.00  0.00    +0.123 HD
BRANCH   5  13
ATOM     13  C   UNL     1      17.893   9.468   5.538  0.00  0.00    +0.156 C 
BRANCH  13  15
ATOM      3  O   UNL     1      19.614   8.120   4.469  0.00  0.00    -0.461 OA
ATOM     15  C   UNL     1      19.154   8.652   5.632  0.00  0.00    +0.119 A 
ATOM     18  C   UNL     1      19.979   8.310   6.678  0.00  0.00    +0.046 A 
ATOM     19  C   UNL     1      20.744   7.431   4.776  0.00  0.00    +0.131 A 
ATOM     20  C   UNL     1      21.012   7.517   6.123  0.00  0.00    +0.047 A 
BRANCH  19  24
ATOM     24  C   UNL     1      21.423   6.762   3.657  0.00  0.00    +0.230 C 
BRANCH  24   4
ATOM      4  O   UNL     1      22.371   5.812   4.152  0.00  0.00    -0.387 OA
ATOM     31  H   UNL     1      21.971   5.395   4.935  0.00  0.00    +0.210 HD
ENDBRANCH  24   4
ENDBRANCH  19  24
ENDBRANCH  13  15
ENDBRANCH   5  13
ENDBRANCH   8   5
ENDBRANCH  11   8
TORSDOF 11
ENDMDL
