REMARK  Name = 51137074
REMARK  2 active torsions:
REMARK  status: ('A' for Active; 'I' for Inactive)
REMARK    1  A    between atoms: N_2  and  C_4
REMARK    2  A    between atoms: C_9  and  C_12
REMARK                            x       y       z     vdW  Elec       q    Type
REMARK                         _______ _______ _______ _____ _____    ______ ____
ROOT
ATOM      2  N   UNL     1       2.860  -0.404  -0.114  0.00  0.00    -0.299 NA
ATOM      7  C   UNL     1       1.629  -0.102   0.620  0.00  0.00    +0.095 C 
ATOM      9  C   UNL     1       0.657  -1.174   0.110  0.00  0.00    +0.060 C 
ATOM     10  C   UNL     1       2.422  -0.678  -1.484  0.00  0.00    +0.085 C 
ATOM     11  C   UNL     1       1.199  -1.562  -1.278  0.00  0.00    +0.027 C 
ENDROOT
BRANCH   9  12
ATOM      1  S   UNL     1      -1.922  -1.583   1.064  0.00  0.00    -0.072 S 
ATOM      3  N   UNL     1      -1.241   0.313  -0.547  0.00  0.00    -0.244 NA
ATOM     12  C   UNL     1      -0.784  -0.718   0.123  0.00  0.00    +0.084 A 
ATOM     13  C   UNL     1      -3.158  -0.498   0.547  0.00  0.00    +0.039 A 
ATOM     14  C   UNL     1      -2.602   0.453  -0.314  0.00  0.00    +0.078 A 
ATOM     15  C   UNL     1      -4.522  -0.488   0.880  0.00  0.00    +0.017 A 
ATOM     16  C   UNL     1      -3.443   1.447  -0.861  0.00  0.00    +0.029 A 
ATOM     17  C   UNL     1      -5.332   0.506   0.326  0.00  0.00    +0.001 A 
ATOM     18  C   UNL     1      -4.802   1.462  -0.533  0.00  0.00    +0.002 A 
ENDBRANCH   9  12
BRANCH   2   4
ATOM      4  C   UNL     1       3.780   0.739  -0.082  0.00  0.00    +0.057 C 
ATOM      5  C   UNL     1       4.340   0.912   1.346  0.00  0.00    +0.019 C 
ATOM      6  C   UNL     1       5.193   0.279  -0.498  0.00  0.00    +0.019 C 
ATOM      8  C   UNL     1       5.727   1.097   0.696  0.00  0.00    +0.003 C 
ENDBRANCH   2   4
TORSDOF 2
