REMARK  Name = 71693713
REMARK  9 active torsions:
REMARK  status: ('A' for Active; 'I' for Inactive)
REMARK    1  A    between atoms: O_3  and  C_16
REMARK    2  A    between atoms: N_6  and  C_8
REMARK    3  A    between atoms: N_7  and  C_23
REMARK    4  A    between atoms: C_9  and  C_16
REMARK    5  A    between atoms: C_10  and  C_18
REMARK    6  A    between atoms: C_24  and  C_25
REMARK    7  A    between atoms: C_24  and  C_26
REMARK    8  A    between atoms: C_25  and  C_27
REMARK    9  A    between atoms: C_25  and  C_28
REMARK                            x       y       z     vdW  Elec       q    Type
REMARK                         _______ _______ _______ _____ _____    ______ ____
ROOT
ATOM      1  O   UNL     1      -1.680   2.369  -1.206  0.00  0.00    -0.361 OA
ATOM      4  O   UNL     1      -4.506   0.537  -1.811  0.00  0.00    -0.273 OA
ATOM      6  N   UNL     1      -3.019   0.335  -0.023  0.00  0.00    -0.288 N 
ATOM      9  C   UNL     1      -2.100   1.045   0.873  0.00  0.00    +0.135 C 
ATOM     10  C   UNL     1      -1.194   2.039   0.100  0.00  0.00    +0.171 C 
ATOM     13  C   UNL     1      -3.621   0.996  -1.091  0.00  0.00    +0.242 C 
ATOM     17  C   UNL     1      -3.089   2.394  -1.298  0.00  0.00    +0.256 C 
ENDROOT
BRANCH   6   8
ATOM      2  O   UNL     1      -4.971  -3.356  -0.235  0.00  0.00    -0.380 OA
ATOM      8  C   UNL     1      -3.383  -1.019   0.312  0.00  0.00    +0.081 C 
ATOM     11  C   UNL     1      -4.861  -1.115   0.694  0.00  0.00    +0.050 C 
ATOM     12  C   UNL     1      -3.071  -1.970  -0.843  0.00  0.00    +0.050 C 
ATOM     14  C   UNL     1      -5.265  -2.567   0.917  0.00  0.00    +0.161 C 
ATOM     15  C   UNL     1      -3.575  -3.374  -0.535  0.00  0.00    +0.161 C 
ENDBRANCH   6   8
BRANCH  10  18
ATOM     18  C   UNL     1       0.208   1.484  -0.073  0.00  0.00    -0.017 A 
ATOM     19  C   UNL     1       0.405   0.293  -0.771  0.00  0.00    +0.008 A 
ATOM     20  C   UNL     1       1.299   2.166   0.466  0.00  0.00    +0.008 A 
ATOM     21  C   UNL     1       1.694  -0.217  -0.931  0.00  0.00    +0.023 A 
ATOM     22  C   UNL     1       2.587   1.656   0.306  0.00  0.00    +0.023 A 
ATOM     23  C   UNL     1       2.785   0.465  -0.392  0.00  0.00    +0.033 A 
BRANCH  23   7
ATOM      5  O   UNL     1       5.429   1.541   0.535  0.00  0.00    -0.275 OA
ATOM      7  N   UNL     1       4.074  -0.045  -0.552  0.00  0.00    -0.285 N 
ATOM     26  C   UNL     1       5.285   0.493  -0.087  0.00  0.00    +0.217 C 
ATOM     30  H   UNL     1       4.127  -0.904  -1.094  0.00  0.00    +0.155 HD
BRANCH  26  24
ATOM     24  C   UNL     1       6.468  -0.385  -0.482  0.00  0.00    +0.099 C 
BRANCH  24  25
ATOM     25  C   UNL     1       6.381  -1.823   0.053  0.00  0.00    -0.008 C 
ATOM     27  C   UNL     1       6.327  -1.812   1.582  0.00  0.00    +0.008 C 
ATOM     28  C   UNL     1       7.572  -2.664  -0.415  0.00  0.00    +0.008 C 
ENDBRANCH  24  25
ENDBRANCH  26  24
ENDBRANCH  23   7
ENDBRANCH  10  18
BRANCH   9  16
ATOM     16  C   UNL     1      -2.873   1.755   1.992  0.00  0.00    +0.181 C 
BRANCH  16   3
ATOM      3  O   UNL     1      -3.305   0.779   2.918  0.00  0.00    -0.393 OA
ATOM     29  H   UNL     1      -3.792   1.243   3.620  0.00  0.00    +0.209 HD
ENDBRANCH  16   3
ENDBRANCH   9  16
TORSDOF 7
