MODEL 1
REMARK VINA RESULT:      -6.8      0.000      0.000
REMARK  Name = 11911799
REMARK  7 active torsions:
REMARK  status: ('A' for Active; 'I' for Inactive)
REMARK    1  A    between atoms: O_4  and  C_21
REMARK    2  A    between atoms: O_4  and  C_24
REMARK    3  A    between atoms: N_6  and  C_12
REMARK    4  A    between atoms: N_7  and  C_13
REMARK    5  A    between atoms: N_7  and  C_16
REMARK    6  A    between atoms: C_16  and  C_19
REMARK    7  A    between atoms: C_18  and  C_21
REMARK                            x       y       z     vdW  Elec       q    Type
REMARK                         _______ _______ _______ _____ _____    ______ ____
ROOT
ATOM      1  O   UNL     1      13.992   8.857  20.885  0.00  0.00    -0.370 OA
ATOM      2  O   UNL     1      11.789   6.500  20.179  0.00  0.00    -0.370 OA
ATOM     10  C   UNL     1      12.308   7.719  19.628  0.00  0.00    +0.175 C 
ATOM     11  C   UNL     1      12.575   8.653  20.798  0.00  0.00    +0.168 C 
ATOM     12  C   UNL     1      13.660   7.473  18.983  0.00  0.00    +0.166 C 
ATOM     13  C   UNL     1      12.076   7.906  22.021  0.00  0.00    +0.111 C 
ATOM     14  C   UNL     1      14.647   7.875  20.073  0.00  0.00    +0.189 C 
ATOM     15  C   UNL     1      11.193   6.828  21.437  0.00  0.00    +0.181 C 
ENDROOT
BRANCH  12   6
ATOM      6  N   UNL     1      13.839   8.206  17.726  0.00  0.00    -0.243 N 
ATOM      8  N   UNL     1      13.544   7.628  16.554  0.00  0.00    -0.065 NA
ATOM      9  N   UNL     1      13.803   8.519  15.604  0.00  0.00    -0.123 NA
ATOM     17  C   UNL     1      14.294   9.475  17.568  0.00  0.00    +0.145 A 
ATOM     18  C   UNL     1      14.263   9.656  16.208  0.00  0.00    +0.189 A 
BRANCH  18  21
ATOM      5  O   UNL     1      15.597  11.570  15.801  0.00  0.00    -0.243 OA
ATOM     21  C   UNL     1      14.643  10.830  15.488  0.00  0.00    +0.361 C 
BRANCH  21   4
ATOM      4  O   UNL     1      13.856  11.103  14.384  0.00  0.00    -0.463 OA
ATOM     24  C   UNL     1      13.700  12.476  14.010  0.00  0.00    +0.280 C 
ENDBRANCH  21   4
ENDBRANCH  18  21
ENDBRANCH  12   6
BRANCH  13   7
ATOM      7  N   UNL     1      11.296   8.796  22.904  0.00  0.00    -0.302 NA
ATOM     25  H   UNL     1      11.842   8.981  23.746  0.00  0.00    +0.123 HD
BRANCH   7  16
ATOM     16  C   UNL     1      10.989  10.049  22.231  0.00  0.00    +0.156 C 
BRANCH  16  19
ATOM      3  O   UNL     1      11.059  10.771  24.521  0.00  0.00    -0.467 OA
ATOM     19  C   UNL     1      10.985  11.158  23.232  0.00  0.00    +0.119 A 
ATOM     20  C   UNL     1      10.919  12.508  23.101  0.00  0.00    +0.046 A 
ATOM     22  C   UNL     1      10.955  13.015  24.422  0.00  0.00    +0.041 A 
ATOM     23  C   UNL     1      11.042  11.919  25.249  0.00  0.00    +0.195 A 
ENDBRANCH  16  19
ENDBRANCH   7  16
ENDBRANCH  13   7
TORSDOF 6
ENDMDL
MODEL 2
REMARK VINA RESULT:      -6.0     27.801     30.664
REMARK  Name = 11911799
REMARK  7 active torsions:
REMARK  status: ('A' for Active; 'I' for Inactive)
REMARK    1  A    between atoms: O_4  and  C_21
REMARK    2  A    between atoms: O_4  and  C_24
REMARK    3  A    between atoms: N_6  and  C_12
REMARK    4  A    between atoms: N_7  and  C_13
REMARK    5  A    between atoms: N_7  and  C_16
REMARK    6  A    between atoms: C_16  and  C_19
REMARK    7  A    between atoms: C_18  and  C_21
REMARK                            x       y       z     vdW  Elec       q    Type
REMARK                         _______ _______ _______ _____ _____    ______ ____
ROOT
ATOM      1  O   UNL     1     -16.203   4.234  25.903  0.00  0.00    -0.370 OA
ATOM      2  O   UNL     1     -17.716   1.692  24.434  0.00  0.00    -0.370 OA
ATOM     10  C   UNL     1     -16.713   1.948  25.429  0.00  0.00    +0.175 C 
ATOM     11  C   UNL     1     -15.941   3.176  24.971  0.00  0.00    +0.168 C 
ATOM     12  C   UNL     1     -17.363   2.339  26.744  0.00  0.00    +0.166 C 
ATOM     13  C   UNL     1     -16.518   3.520  23.610  0.00  0.00    +0.111 C 
ATOM     14  C   UNL     1     -17.323   3.863  26.716  0.00  0.00    +0.189 C 
ATOM     15  C   UNL     1     -17.245   2.257  23.208  0.00  0.00    +0.181 C 
ENDROOT
BRANCH  12   6
ATOM      6  N   UNL     1     -16.696   1.754  27.911  0.00  0.00    -0.243 N 
ATOM      8  N   UNL     1     -17.015   0.521  28.328  0.00  0.00    -0.065 NA
ATOM      9  N   UNL     1     -16.260   0.262  29.389  0.00  0.00    -0.123 NA
ATOM     17  C   UNL     1     -15.736   2.321  28.684  0.00  0.00    +0.145 A 
ATOM     18  C   UNL     1     -15.471   1.354  29.621  0.00  0.00    +0.189 A 
BRANCH  18  21
ATOM      5  O   UNL     1     -13.444   2.045  30.633  0.00  0.00    -0.243 OA
ATOM     21  C   UNL     1     -14.528   1.430  30.691  0.00  0.00    +0.361 C 
BRANCH  21   4
ATOM      4  O   UNL     1     -14.905   0.752  31.836  0.00  0.00    -0.463 OA
ATOM     24  C   UNL     1     -14.770   1.440  33.084  0.00  0.00    +0.280 C 
ENDBRANCH  21   4
ENDBRANCH  18  21
ENDBRANCH  12   6
BRANCH  13   7
ATOM      7  N   UNL     1     -15.447   3.835  22.645  0.00  0.00    -0.302 NA
ATOM     25  H   UNL     1     -15.408   3.092  21.946  0.00  0.00    +0.123 HD
BRANCH   7  16
ATOM     16  C   UNL     1     -15.700   5.111  21.994  0.00  0.00    +0.156 C 
BRANCH  16  19
ATOM      3  O   UNL     1     -14.486   6.792  20.779  0.00  0.00    -0.467 OA
ATOM     19  C   UNL     1     -14.397   5.734  21.609  0.00  0.00    +0.119 A 
ATOM     20  C   UNL     1     -13.111   5.441  21.935  0.00  0.00    +0.046 A 
ATOM     22  C   UNL     1     -12.324   6.397  21.251  0.00  0.00    +0.041 A 
ATOM     23  C   UNL     1     -13.207   7.197  20.563  0.00  0.00    +0.195 A 
ENDBRANCH  16  19
ENDBRANCH   7  16
ENDBRANCH  13   7
TORSDOF 6
ENDMDL
MODEL 3
REMARK VINA RESULT:      -6.0     25.450     28.032
REMARK  Name = 11911799
REMARK  7 active torsions:
REMARK  status: ('A' for Active; 'I' for Inactive)
REMARK    1  A    between atoms: O_4  and  C_21
REMARK    2  A    between atoms: O_4  and  C_24
REMARK    3  A    between atoms: N_6  and  C_12
REMARK    4  A    between atoms: N_7  and  C_13
REMARK    5  A    between atoms: N_7  and  C_16
REMARK    6  A    between atoms: C_16  and  C_19
REMARK    7  A    between atoms: C_18  and  C_21
REMARK                            x       y       z     vdW  Elec       q    Type
REMARK                         _______ _______ _______ _____ _____    ______ ____
ROOT
ATOM      1  O   UNL     1      -4.388 -11.891  14.698  0.00  0.00    -0.370 OA
ATOM      2  O   UNL     1      -1.938 -10.917  16.687  0.00  0.00    -0.370 OA
ATOM     10  C   UNL     1      -3.324 -10.640  16.434  0.00  0.00    +0.175 C 
ATOM     11  C   UNL     1      -3.531 -10.765  14.933  0.00  0.00    +0.168 C 
ATOM     12  C   UNL     1      -4.198 -11.713  17.059  0.00  0.00    +0.166 C 
ATOM     13  C   UNL     1      -2.148 -11.030  14.364  0.00  0.00    +0.111 C 
ATOM     14  C   UNL     1      -4.466 -12.666  15.900  0.00  0.00    +0.189 C 
ATOM     15  C   UNL     1      -1.223 -10.616  15.487  0.00  0.00    +0.181 C 
ENDROOT
BRANCH  12   6
ATOM      6  N   UNL     1      -5.416 -11.175  17.673  0.00  0.00    -0.243 N 
ATOM      8  N   UNL     1      -5.407 -10.758  18.946  0.00  0.00    -0.065 NA
ATOM      9  N   UNL     1      -6.633 -10.330  19.224  0.00  0.00    -0.123 NA
ATOM     17  C   UNL     1      -6.636 -11.030  17.098  0.00  0.00    +0.145 A 
ATOM     18  C   UNL     1      -7.399 -10.489  18.103  0.00  0.00    +0.189 A 
BRANCH  18  21
ATOM      5  O   UNL     1      -9.643 -10.495  18.861  0.00  0.00    -0.243 OA
ATOM     21  C   UNL     1      -8.780 -10.132  18.036  0.00  0.00    +0.361 C 
BRANCH  21   4
ATOM      4  O   UNL     1      -9.112  -9.329  16.959  0.00  0.00    -0.463 OA
ATOM     24  C   UNL     1      -9.706  -8.058  17.244  0.00  0.00    +0.280 C 
ENDBRANCH  21   4
ENDBRANCH  18  21
ENDBRANCH  12   6
BRANCH  13   7
ATOM      7  N   UNL     1      -1.905 -10.212  13.161  0.00  0.00    -0.302 NA
ATOM     25  H   UNL     1      -0.902 -10.039  13.080  0.00  0.00    +0.123 HD
BRANCH   7  16
ATOM     16  C   UNL     1      -2.384 -10.894  11.968  0.00  0.00    +0.156 C 
BRANCH  16  19
ATOM      3  O   UNL     1      -4.529  -9.822  11.812  0.00  0.00    -0.467 OA
ATOM     19  C   UNL     1      -3.325  -9.996  11.232  0.00  0.00    +0.119 A 
ATOM     20  C   UNL     1      -3.208  -9.305  10.069  0.00  0.00    +0.046 A 
ATOM     22  C   UNL     1      -4.445  -8.639   9.902  0.00  0.00    +0.041 A 
ATOM     23  C   UNL     1      -5.214  -8.984  10.990  0.00  0.00    +0.195 A 
ENDBRANCH  16  19
ENDBRANCH   7  16
ENDBRANCH  13   7
TORSDOF 6
ENDMDL
MODEL 4
REMARK VINA RESULT:      -6.0     28.217     31.065
REMARK  Name = 11911799
REMARK  7 active torsions:
REMARK  status: ('A' for Active; 'I' for Inactive)
REMARK    1  A    between atoms: O_4  and  C_21
REMARK    2  A    between atoms: O_4  and  C_24
REMARK    3  A    between atoms: N_6  and  C_12
REMARK    4  A    between atoms: N_7  and  C_13
REMARK    5  A    between atoms: N_7  and  C_16
REMARK    6  A    between atoms: C_16  and  C_19
REMARK    7  A    between atoms: C_18  and  C_21
REMARK                            x       y       z     vdW  Elec       q    Type
REMARK                         _______ _______ _______ _____ _____    ______ ____
ROOT
ATOM      1  O   UNL     1     -16.926   3.249  26.367  0.00  0.00    -0.370 OA
ATOM      2  O   UNL     1     -17.831   0.110  25.880  0.00  0.00    -0.370 OA
ATOM     10  C   UNL     1     -16.755   0.867  26.455  0.00  0.00    +0.175 C 
ATOM     11  C   UNL     1     -16.570   2.101  25.586  0.00  0.00    +0.168 C 
ATOM     12  C   UNL     1     -17.151   1.387  27.826  0.00  0.00    +0.166 C 
ATOM     13  C   UNL     1     -17.546   1.924  24.437  0.00  0.00    +0.111 C 
ATOM     14  C   UNL     1     -17.624   2.808  27.539  0.00  0.00    +0.189 C 
ATOM     15  C   UNL     1     -17.891   0.453  24.494  0.00  0.00    +0.181 C 
ENDROOT
BRANCH  12   6
ATOM      6  N   UNL     1     -16.062   1.316  28.804  0.00  0.00    -0.243 N 
ATOM      8  N   UNL     1     -15.438   0.154  29.041  0.00  0.00    -0.065 NA
ATOM      9  N   UNL     1     -14.510   0.392  29.961  0.00  0.00    -0.123 NA
ATOM     17  C   UNL     1     -15.560   2.326  29.557  0.00  0.00    +0.145 A 
ATOM     18  C   UNL     1     -14.571   1.717  30.288  0.00  0.00    +0.189 A 
BRANCH  18  21
ATOM      5  O   UNL     1     -12.935   3.273  31.004  0.00  0.00    -0.243 OA
ATOM     21  C   UNL     1     -13.714   2.330  31.252  0.00  0.00    +0.361 C 
BRANCH  21   4
ATOM      4  O   UNL     1     -13.804   1.792  32.523  0.00  0.00    -0.463 OA
ATOM     24  C   UNL     1     -15.003   2.048  33.263  0.00  0.00    +0.280 C 
ENDBRANCH  21   4
ENDBRANCH  18  21
ENDBRANCH  12   6
BRANCH  13   7
ATOM      7  N   UNL     1     -16.913   2.261  23.147  0.00  0.00    -0.302 NA
ATOM     25  H   UNL     1     -17.358   1.712  22.411  0.00  0.00    +0.123 HD
BRANCH   7  16
ATOM     16  C   UNL     1     -17.056   3.680  22.858  0.00  0.00    +0.156 C 
BRANCH  16  19
ATOM      3  O   UNL     1     -15.268   4.684  21.606  0.00  0.00    -0.467 OA
ATOM     19  C   UNL     1     -15.704   4.315  22.827  0.00  0.00    +0.119 A 
ATOM     20  C   UNL     1     -14.804   4.600  23.804  0.00  0.00    +0.046 A 
ATOM     22  C   UNL     1     -13.708   5.201  23.140  0.00  0.00    +0.041 A 
ATOM     23  C   UNL     1     -14.040   5.230  21.805  0.00  0.00    +0.195 A 
ENDBRANCH  16  19
ENDBRANCH   7  16
ENDBRANCH  13   7
TORSDOF 6
ENDMDL
MODEL 5
REMARK VINA RESULT:      -5.7     26.153     29.133
REMARK  Name = 11911799
REMARK  7 active torsions:
REMARK  status: ('A' for Active; 'I' for Inactive)
REMARK    1  A    between atoms: O_4  and  C_21
REMARK    2  A    between atoms: O_4  and  C_24
REMARK    3  A    between atoms: N_6  and  C_12
REMARK    4  A    between atoms: N_7  and  C_13
REMARK    5  A    between atoms: N_7  and  C_16
REMARK    6  A    between atoms: C_16  and  C_19
REMARK    7  A    between atoms: C_18  and  C_21
REMARK                            x       y       z     vdW  Elec       q    Type
REMARK                         _______ _______ _______ _____ _____    ______ ____
ROOT
ATOM      1  O   UNL     1      -7.473 -13.123  17.817  0.00  0.00    -0.370 OA
ATOM      2  O   UNL     1      -5.714 -11.239  19.882  0.00  0.00    -0.370 OA
ATOM     10  C   UNL     1      -6.745 -11.115  18.890  0.00  0.00    +0.175 C 
ATOM     11  C   UNL     1      -6.434 -12.134  17.804  0.00  0.00    +0.168 C 
ATOM     12  C   UNL     1      -8.086 -11.530  19.469  0.00  0.00    +0.166 C 
ATOM     13  C   UNL     1      -5.111 -12.756  18.212  0.00  0.00    +0.111 C 
ATOM     14  C   UNL     1      -8.224 -12.983  19.028  0.00  0.00    +0.189 C 
ATOM     15  C   UNL     1      -4.564 -11.779  19.228  0.00  0.00    +0.181 C 
ENDROOT
BRANCH  12   6
ATOM      6  N   UNL     1      -9.191 -10.673  19.029  0.00  0.00    -0.243 N 
ATOM      8  N   UNL     1     -10.285 -10.532  19.789  0.00  0.00    -0.065 NA
ATOM      9  N   UNL     1     -11.103  -9.708  19.144  0.00  0.00    -0.123 NA
ATOM     17  C   UNL     1      -9.271  -9.952  17.882  0.00  0.00    +0.145 A 
ATOM     18  C   UNL     1     -10.498  -9.344  17.974  0.00  0.00    +0.189 A 
BRANCH  18  21
ATOM      5  O   UNL     1     -11.876  -8.820  16.120  0.00  0.00    -0.243 OA
ATOM     21  C   UNL     1     -11.092  -8.461  17.022  0.00  0.00    +0.361 C 
BRANCH  21   4
ATOM      4  O   UNL     1     -10.730  -7.134  17.170  0.00  0.00    -0.463 OA
ATOM     24  C   UNL     1     -11.210  -6.208  16.189  0.00  0.00    +0.280 C 
ENDBRANCH  21   4
ENDBRANCH  18  21
ENDBRANCH  12   6
BRANCH  13   7
ATOM      7  N   UNL     1      -4.201 -12.871  17.057  0.00  0.00    -0.302 NA
ATOM     25  H   UNL     1      -4.251 -13.823  16.693  0.00  0.00    +0.123 HD
BRANCH   7  16
ATOM     16  C   UNL     1      -4.569 -11.926  16.014  0.00  0.00    +0.156 C 
BRANCH  16  19
ATOM      3  O   UNL     1      -2.400 -10.988  16.450  0.00  0.00    -0.467 OA
ATOM     19  C   UNL     1      -3.340 -11.237  15.517  0.00  0.00    +0.119 A 
ATOM     20  C   UNL     1      -2.972 -10.800  14.285  0.00  0.00    +0.046 A 
ATOM     22  C   UNL     1      -1.689 -10.227  14.458  0.00  0.00    +0.041 A 
ATOM     23  C   UNL     1      -1.386 -10.367  15.793  0.00  0.00    +0.195 A 
ENDBRANCH  16  19
ENDBRANCH   7  16
ENDBRANCH  13   7
TORSDOF 6
ENDMDL
MODEL 6
REMARK VINA RESULT:      -5.6     28.376     29.786
REMARK  Name = 11911799
REMARK  7 active torsions:
REMARK  status: ('A' for Active; 'I' for Inactive)
REMARK    1  A    between atoms: O_4  and  C_21
REMARK    2  A    between atoms: O_4  and  C_24
REMARK    3  A    between atoms: N_6  and  C_12
REMARK    4  A    between atoms: N_7  and  C_13
REMARK    5  A    between atoms: N_7  and  C_16
REMARK    6  A    between atoms: C_16  and  C_19
REMARK    7  A    between atoms: C_18  and  C_21
REMARK                            x       y       z     vdW  Elec       q    Type
REMARK                         _______ _______ _______ _____ _____    ______ ____
ROOT
ATOM      1  O   UNL     1     -10.884  -7.153  17.217  0.00  0.00    -0.370 OA
ATOM      2  O   UNL     1     -11.203  -9.005  14.501  0.00  0.00    -0.370 OA
ATOM     10  C   UNL     1     -10.194  -8.585  15.432  0.00  0.00    +0.175 C 
ATOM     11  C   UNL     1     -10.528  -7.155  15.828  0.00  0.00    +0.168 C 
ATOM     12  C   UNL     1     -10.288  -9.397  16.712  0.00  0.00    +0.166 C 
ATOM     13  C   UNL     1     -11.728  -6.780  14.978  0.00  0.00    +0.111 C 
ATOM     14  C   UNL     1     -11.112  -8.505  17.634  0.00  0.00    +0.189 C 
ATOM     15  C   UNL     1     -11.723  -7.825  13.885  0.00  0.00    +0.181 C 
ENDROOT
BRANCH  12   6
ATOM      6  N   UNL     1      -8.977  -9.758  17.260  0.00  0.00    -0.243 N 
ATOM      8  N   UNL     1      -7.855  -9.269  16.715  0.00  0.00    -0.065 NA
ATOM      9  N   UNL     1      -6.837  -9.763  17.411  0.00  0.00    -0.123 NA
ATOM     17  C   UNL     1      -8.718 -10.574  18.312  0.00  0.00    +0.145 A 
ATOM     18  C   UNL     1      -7.348 -10.565  18.393  0.00  0.00    +0.189 A 
BRANCH  18  21
ATOM      5  O   UNL     1      -6.144 -10.788  20.420  0.00  0.00    -0.243 OA
ATOM     21  C   UNL     1      -6.538 -11.266  19.337  0.00  0.00    +0.361 C 
BRANCH  21   4
ATOM      4  O   UNL     1      -6.204 -12.554  18.960  0.00  0.00    -0.463 OA
ATOM     24  C   UNL     1      -4.972 -12.735  18.254  0.00  0.00    +0.280 C 
ENDBRANCH  21   4
ENDBRANCH  18  21
ENDBRANCH  12   6
BRANCH  13   7
ATOM      7  N   UNL     1     -11.572  -5.429  14.407  0.00  0.00    -0.302 NA
ATOM     25  H   UNL     1     -10.761  -5.427  13.787  0.00  0.00    +0.123 HD
BRANCH   7  16
ATOM     16  C   UNL     1     -12.761  -5.043  13.662  0.00  0.00    +0.156 C 
BRANCH  16  19
ATOM      3  O   UNL     1     -12.133  -5.554  11.400  0.00  0.00    -0.467 OA
ATOM     19  C   UNL     1     -12.360  -4.577  12.300  0.00  0.00    +0.119 A 
ATOM     20  C   UNL     1     -12.173  -3.338  11.776  0.00  0.00    +0.046 A 
ATOM     22  C   UNL     1     -11.796  -3.554  10.429  0.00  0.00    +0.041 A 
ATOM     23  C   UNL     1     -11.787  -4.919  10.250  0.00  0.00    +0.195 A 
ENDBRANCH  16  19
ENDBRANCH   7  16
ENDBRANCH  13   7
TORSDOF 6
ENDMDL
MODEL 7
REMARK VINA RESULT:      -5.5     28.184     30.774
REMARK  Name = 11911799
REMARK  7 active torsions:
REMARK  status: ('A' for Active; 'I' for Inactive)
REMARK    1  A    between atoms: O_4  and  C_21
REMARK    2  A    between atoms: O_4  and  C_24
REMARK    3  A    between atoms: N_6  and  C_12
REMARK    4  A    between atoms: N_7  and  C_13
REMARK    5  A    between atoms: N_7  and  C_16
REMARK    6  A    between atoms: C_16  and  C_19
REMARK    7  A    between atoms: C_18  and  C_21
REMARK                            x       y       z     vdW  Elec       q    Type
REMARK                         _______ _______ _______ _____ _____    ______ ____
ROOT
ATOM      1  O   UNL     1     -13.374   3.932  31.703  0.00  0.00    -0.370 OA
ATOM      2  O   UNL     1     -16.092   3.793  33.574  0.00  0.00    -0.370 OA
ATOM     10  C   UNL     1     -15.687   3.608  32.209  0.00  0.00    +0.175 C 
ATOM     11  C   UNL     1     -14.602   4.637  31.929  0.00  0.00    +0.168 C 
ATOM     12  C   UNL     1     -15.023   2.254  32.035  0.00  0.00    +0.166 C 
ATOM     13  C   UNL     1     -14.507   5.465  33.197  0.00  0.00    +0.111 C 
ATOM     14  C   UNL     1     -13.537   2.576  32.138  0.00  0.00    +0.189 C 
ATOM     15  C   UNL     1     -15.795   5.147  33.921  0.00  0.00    +0.181 C 
ENDROOT
BRANCH  12   6
ATOM      6  N   UNL     1     -15.396   1.589  30.783  0.00  0.00    -0.243 N 
ATOM      8  N   UNL     1     -14.849   0.412  30.451  0.00  0.00    -0.065 NA
ATOM      9  N   UNL     1     -15.369   0.057  29.281  0.00  0.00    -0.123 NA
ATOM     17  C   UNL     1     -16.276   2.024  29.846  0.00  0.00    +0.145 A 
ATOM     18  C   UNL     1     -16.245   1.034  28.896  0.00  0.00    +0.189 A 
BRANCH  18  21
ATOM      5  O   UNL     1     -16.485   0.883  26.545  0.00  0.00    -0.243 OA
ATOM     21  C   UNL     1     -16.992   0.986  27.680  0.00  0.00    +0.361 C 
BRANCH  21   4
ATOM      4  O   UNL     1     -18.363   1.064  27.848  0.00  0.00    -0.463 OA
ATOM     24  C   UNL     1     -19.137  -0.085  27.488  0.00  0.00    +0.280 C 
ENDBRANCH  21   4
ENDBRANCH  18  21
ENDBRANCH  12   6
BRANCH  13   7
ATOM      7  N   UNL     1     -14.427   6.905  32.884  0.00  0.00    -0.302 NA
ATOM     25  H   UNL     1     -15.194   7.386  33.357  0.00  0.00    +0.123 HD
BRANCH   7  16
ATOM     16  C   UNL     1     -13.155   7.458  33.323  0.00  0.00    +0.156 C 
BRANCH  16  19
ATOM      3  O   UNL     1     -13.598   9.079  31.606  0.00  0.00    -0.467 OA
ATOM     19  C   UNL     1     -12.648   8.410  32.289  0.00  0.00    +0.119 A 
ATOM     20  C   UNL     1     -11.394   8.743  31.889  0.00  0.00    +0.046 A 
ATOM     22  C   UNL     1     -11.570   9.705  30.866  0.00  0.00    +0.041 A 
ATOM     23  C   UNL     1     -12.929   9.875  30.732  0.00  0.00    +0.195 A 
ENDBRANCH  16  19
ENDBRANCH   7  16
ENDBRANCH  13   7
TORSDOF 6
ENDMDL
MODEL 8
REMARK VINA RESULT:      -5.4     27.578     30.909
REMARK  Name = 11911799
REMARK  7 active torsions:
REMARK  status: ('A' for Active; 'I' for Inactive)
REMARK    1  A    between atoms: O_4  and  C_21
REMARK    2  A    between atoms: O_4  and  C_24
REMARK    3  A    between atoms: N_6  and  C_12
REMARK    4  A    between atoms: N_7  and  C_13
REMARK    5  A    between atoms: N_7  and  C_16
REMARK    6  A    between atoms: C_16  and  C_19
REMARK    7  A    between atoms: C_18  and  C_21
REMARK                            x       y       z     vdW  Elec       q    Type
REMARK                         _______ _______ _______ _____ _____    ______ ____
ROOT
ATOM      1  O   UNL     1     -13.568   4.777  32.970  0.00  0.00    -0.370 OA
ATOM      2  O   UNL     1     -16.475   5.872  34.092  0.00  0.00    -0.370 OA
ATOM     10  C   UNL     1     -15.104   5.775  34.505  0.00  0.00    +0.175 C 
ATOM     11  C   UNL     1     -14.568   4.464  33.949  0.00  0.00    +0.168 C 
ATOM     12  C   UNL     1     -14.277   6.866  33.849  0.00  0.00    +0.166 C 
ATOM     13  C   UNL     1     -15.761   3.798  33.288  0.00  0.00    +0.111 C 
ATOM     14  C   UNL     1     -13.669   6.167  32.639  0.00  0.00    +0.189 C 
ATOM     15  C   UNL     1     -16.943   4.539  33.872  0.00  0.00    +0.181 C 
ENDROOT
BRANCH  12   6
ATOM      6  N   UNL     1     -13.282   7.454  34.751  0.00  0.00    -0.243 N 
ATOM      8  N   UNL     1     -13.028   6.891  35.940  0.00  0.00    -0.065 NA
ATOM      9  N   UNL     1     -12.096   7.632  36.530  0.00  0.00    -0.123 NA
ATOM     17  C   UNL     1     -12.530   8.563  34.541  0.00  0.00    +0.145 A 
ATOM     18  C   UNL     1     -11.780   8.660  35.687  0.00  0.00    +0.189 A 
BRANCH  18  21
ATOM      5  O   UNL     1     -10.405   9.919  37.147  0.00  0.00    -0.243 OA
ATOM     21  C   UNL     1     -10.809   9.660  35.995  0.00  0.00    +0.361 C 
BRANCH  21   4
ATOM      4  O   UNL     1     -10.327  10.349  34.897  0.00  0.00    -0.463 OA
ATOM     24  C   UNL     1      -9.038   9.975  34.398  0.00  0.00    +0.280 C 
ENDBRANCH  21   4
ENDBRANCH  18  21
ENDBRANCH  12   6
BRANCH  13   7
ATOM      7  N   UNL     1     -15.824   2.364  33.631  0.00  0.00    -0.302 NA
ATOM     25  H   UNL     1     -16.506   1.912  33.022  0.00  0.00    +0.123 HD
BRANCH   7  16
ATOM     16  C   UNL     1     -14.522   1.737  33.464  0.00  0.00    +0.156 C 
BRANCH  16  19
ATOM      3  O   UNL     1     -14.973   0.024  31.840  0.00  0.00    -0.467 OA
ATOM     19  C   UNL     1     -14.399   1.222  32.066  0.00  0.00    +0.119 A 
ATOM     20  C   UNL     1     -13.811   1.731  30.953  0.00  0.00    +0.046 A 
ATOM     22  C   UNL     1     -14.034   0.769  29.938  0.00  0.00    +0.041 A 
ATOM     23  C   UNL     1     -14.746  -0.249  30.529  0.00  0.00    +0.195 A 
ENDBRANCH  16  19
ENDBRANCH   7  16
ENDBRANCH  13   7
TORSDOF 6
ENDMDL
MODEL 9
REMARK VINA RESULT:      -5.3     26.151     29.010
REMARK  Name = 11911799
REMARK  7 active torsions:
REMARK  status: ('A' for Active; 'I' for Inactive)
REMARK    1  A    between atoms: O_4  and  C_21
REMARK    2  A    between atoms: O_4  and  C_24
REMARK    3  A    between atoms: N_6  and  C_12
REMARK    4  A    between atoms: N_7  and  C_13
REMARK    5  A    between atoms: N_7  and  C_16
REMARK    6  A    between atoms: C_16  and  C_19
REMARK    7  A    between atoms: C_18  and  C_21
REMARK                            x       y       z     vdW  Elec       q    Type
REMARK                         _______ _______ _______ _____ _____    ______ ____
ROOT
ATOM      1  O   UNL     1      -6.286 -11.402  16.073  0.00  0.00    -0.370 OA
ATOM      2  O   UNL     1      -4.569 -11.855  18.858  0.00  0.00    -0.370 OA
ATOM     10  C   UNL     1      -5.703 -11.120  18.374  0.00  0.00    +0.175 C 
ATOM     11  C   UNL     1      -5.384 -10.708  16.945  0.00  0.00    +0.168 C 
ATOM     12  C   UNL     1      -6.917 -12.027  18.277  0.00  0.00    +0.166 C 
ATOM     13  C   UNL     1      -3.960 -11.177  16.708  0.00  0.00    +0.111 C 
ATOM     14  C   UNL     1      -6.921 -12.452  16.813  0.00  0.00    +0.189 C 
ATOM     15  C   UNL     1      -3.434 -11.421  18.104  0.00  0.00    +0.181 C 
ENDROOT
BRANCH  12   6
ATOM      6  N   UNL     1      -8.157 -11.374  18.704  0.00  0.00    -0.243 N 
ATOM      8  N   UNL     1      -8.460 -11.276  20.006  0.00  0.00    -0.065 NA
ATOM      9  N   UNL     1      -9.626 -10.647  20.088  0.00  0.00    -0.123 NA
ATOM     17  C   UNL     1      -9.111 -10.816  17.916  0.00  0.00    +0.145 A 
ATOM     18  C   UNL     1     -10.039 -10.357  18.817  0.00  0.00    +0.189 A 
BRANCH  18  21
ATOM      5  O   UNL     1     -12.206  -9.547  19.326  0.00  0.00    -0.243 OA
ATOM     21  C   UNL     1     -11.260  -9.678  18.522  0.00  0.00    +0.361 C 
BRANCH  21   4
ATOM      4  O   UNL     1     -11.331  -9.157  17.243  0.00  0.00    -0.463 OA
ATOM     24  C   UNL     1     -11.073  -7.758  17.087  0.00  0.00    +0.280 C 
ENDBRANCH  21   4
ENDBRANCH  18  21
ENDBRANCH  12   6
BRANCH  13   7
ATOM      7  N   UNL     1      -3.165 -10.135  16.028  0.00  0.00    -0.302 NA
ATOM     25  H   UNL     1      -2.741  -9.533  16.734  0.00  0.00    +0.123 HD
BRANCH   7  16
ATOM     16  C   UNL     1      -2.126 -10.735  15.205  0.00  0.00    +0.156 C 
BRANCH  16  19
ATOM      3  O   UNL     1      -3.813 -10.325  13.544  0.00  0.00    -0.467 OA
ATOM     19  C   UNL     1      -2.524 -10.645  13.767  0.00  0.00    +0.119 A 
ATOM     20  C   UNL     1      -1.830 -10.827  12.613  0.00  0.00    +0.046 A 
ATOM     22  C   UNL     1      -2.764 -10.601  11.574  0.00  0.00    +0.041 A 
ATOM     23  C   UNL     1      -3.956 -10.298  12.193  0.00  0.00    +0.195 A 
ENDBRANCH  16  19
ENDBRANCH   7  16
ENDBRANCH  13   7
TORSDOF 6
ENDMDL
MODEL 10
REMARK VINA RESULT:      -5.3     25.025     26.501
REMARK  Name = 11911799
REMARK  7 active torsions:
REMARK  status: ('A' for Active; 'I' for Inactive)
REMARK    1  A    between atoms: O_4  and  C_21
REMARK    2  A    between atoms: O_4  and  C_24
REMARK    3  A    between atoms: N_6  and  C_12
REMARK    4  A    between atoms: N_7  and  C_13
REMARK    5  A    between atoms: N_7  and  C_16
REMARK    6  A    between atoms: C_16  and  C_19
REMARK    7  A    between atoms: C_18  and  C_21
REMARK                            x       y       z     vdW  Elec       q    Type
REMARK                         _______ _______ _______ _____ _____    ______ ____
ROOT
ATOM      1  O   UNL     1     -13.617   9.065  20.575  0.00  0.00    -0.370 OA
ATOM      2  O   UNL     1     -12.035   6.239  21.219  0.00  0.00    -0.370 OA
ATOM     10  C   UNL     1     -12.345   7.096  20.110  0.00  0.00    +0.175 C 
ATOM     11  C   UNL     1     -13.739   7.653  20.360  0.00  0.00    +0.168 C 
ATOM     12  C   UNL     1     -11.420   8.300  20.099  0.00  0.00    +0.166 C 
ATOM     13  C   UNL     1     -14.215   6.968  21.628  0.00  0.00    +0.111 C 
ATOM     14  C   UNL     1     -12.238   9.378  20.800  0.00  0.00    +0.189 C 
ATOM     15  C   UNL     1     -13.277   5.789  21.764  0.00  0.00    +0.181 C 
ENDROOT
BRANCH  12   6
ATOM      6  N   UNL     1     -10.982   8.675  18.751  0.00  0.00    -0.243 N 
ATOM      8  N   UNL     1     -10.042   9.614  18.579  0.00  0.00    -0.065 NA
ATOM      9  N   UNL     1      -9.854   9.741  17.270  0.00  0.00    -0.123 NA
ATOM     17  C   UNL     1     -11.424   8.174  17.570  0.00  0.00    +0.145 A 
ATOM     18  C   UNL     1     -10.692   8.867  16.637  0.00  0.00    +0.189 A 
BRANCH  18  21
ATOM      5  O   UNL     1     -11.260   9.578  14.451  0.00  0.00    -0.243 OA
ATOM     21  C   UNL     1     -10.760   8.730  15.218  0.00  0.00    +0.361 C 
BRANCH  21   4
ATOM      4  O   UNL     1     -10.218   7.555  14.729  0.00  0.00    -0.463 OA
ATOM     24  C   UNL     1     -10.323   7.316  13.321  0.00  0.00    +0.280 C 
ENDBRANCH  21   4
ENDBRANCH  18  21
ENDBRANCH  12   6
BRANCH  13   7
ATOM      7  N   UNL     1     -15.611   6.509  21.490  0.00  0.00    -0.302 NA
ATOM     25  H   UNL     1     -16.233   7.254  21.803  0.00  0.00    +0.123 HD
BRANCH   7  16
ATOM     16  C   UNL     1     -15.907   6.169  20.107  0.00  0.00    +0.156 C 
BRANCH  16  19
ATOM      3  O   UNL     1     -17.148   4.449  21.237  0.00  0.00    -0.467 OA
ATOM     19  C   UNL     1     -16.954   5.103  20.074  0.00  0.00    +0.119 A 
ATOM     20  C   UNL     1     -17.767   4.650  19.086  0.00  0.00    +0.046 A 
ATOM     22  C   UNL     1     -18.540   3.622  19.678  0.00  0.00    +0.041 A 
ATOM     23  C   UNL     1     -18.126   3.540  20.987  0.00  0.00    +0.195 A 
ENDBRANCH  16  19
ENDBRANCH   7  16
ENDBRANCH  13   7
TORSDOF 6
ENDMDL
