REMARK  Name = 56774034
REMARK  12 active torsions:
REMARK  status: ('A' for Active; 'I' for Inactive)
REMARK    1  A    between atoms: N_3  and  C_9
REMARK    2  A    between atoms: N_5  and  C_18
REMARK    3  A    between atoms: N_6  and  C_19
REMARK    4  A    between atoms: N_6  and  C_22
REMARK    5  A    between atoms: N_6  and  C_23
REMARK    6  A    between atoms: C_7  and  C_12
REMARK    7  A    between atoms: C_7  and  C_13
REMARK    8  A    between atoms: C_8  and  C_11
REMARK    9  A    between atoms: C_11  and  C_14
REMARK   10  A    between atoms: C_17  and  C_19
REMARK   11  A    between atoms: C_18  and  C_20
REMARK   12  A    between atoms: C_18  and  C_21
REMARK                            x       y       z     vdW  Elec       q    Type
REMARK                         _______ _______ _______ _____ _____    ______ ____
ROOT
ATOM      7  C   UNL     1      -1.317   1.580   0.205  0.00  0.00    -0.013 C 
ATOM      8  C   UNL     1       0.202   1.366   0.380  0.00  0.00    +0.004 C 
ATOM      9  C   UNL     1      -1.511   0.212   0.892  0.00  0.00    +0.081 C 
ATOM     10  C   UNL     1      -0.093  -0.149   0.403  0.00  0.00    +0.027 C 
ATOM     12  C   UNL     1      -1.847   2.784   0.952  0.00  0.00    +0.013 C 
ATOM     13  C   UNL     1      -1.821   1.594  -1.226  0.00  0.00    +0.013 C 
ENDROOT
BRANCH   9   3
ATOM      2  O   UNL     1      -4.365   0.584   1.122  0.00  0.00    -0.253 OA
ATOM      3  N   UNL     1      -2.567  -0.643   0.325  0.00  0.00    -0.296 N 
ATOM      5  N   UNL     1      -4.713  -1.333  -0.141  0.00  0.00    -0.297 N 
ATOM     15  C   UNL     1      -3.925  -0.377   0.492  0.00  0.00    +0.300 C 
ATOM     24  H   UNL     1      -2.318  -1.472  -0.209  0.00  0.00    +0.151 HD
ATOM     25  H   UNL     1      -4.253  -2.046  -0.700  0.00  0.00    +0.150 HD
BRANCH   5  18
ATOM     18  C   UNL     1      -6.156  -1.292  -0.121  0.00  0.00    +0.068 C 
ATOM     20  C   UNL     1      -6.682  -0.456  -1.281  0.00  0.00    +0.027 C 
ATOM     21  C   UNL     1      -6.727  -2.703  -0.154  0.00  0.00    +0.027 C 
ENDBRANCH   5  18
ENDBRANCH   9   3
BRANCH   8  11
ATOM     11  C   UNL     1       1.099   1.821  -0.748  0.00  0.00    +0.063 C 
BRANCH  11  14
ATOM      1  O   UNL     1       4.550   1.227   0.121  0.00  0.00    -0.358 OA
ATOM      4  N   UNL     1       3.393   1.996   0.135  0.00  0.00    -0.083 NA
ATOM     14  C   UNL     1       2.497   1.285  -0.555  0.00  0.00    +0.084 A 
ATOM     16  C   UNL     1       3.027   0.070  -1.024  0.00  0.00    +0.072 A 
ATOM     17  C   UNL     1       4.320   0.082  -0.571  0.00  0.00    +0.151 A 
BRANCH  17  19
ATOM     19  C   UNL     1       5.445  -0.853  -0.684  0.00  0.00    +0.161 C 
BRANCH  19   6
ATOM      6  N   UNL     1       5.325  -2.017   0.211  0.00  0.00    -0.301 NA
ATOM     22  C   UNL     1       5.736  -1.653   1.562  0.00  0.00    +0.105 C 
ATOM     23  C   UNL     1       6.129  -3.124  -0.297  0.00  0.00    +0.105 C 
ENDBRANCH  19   6
ENDBRANCH  17  19
ENDBRANCH  11  14
ENDBRANCH   8  11
TORSDOF 6
