MODEL 1
REMARK VINA RESULT:      -8.1      0.000      0.000
REMARK  Name = 45360600
REMARK  9 active torsions:
REMARK  status: ('A' for Active; 'I' for Inactive)
REMARK    1  A    between atoms: S_2  and  N_12
REMARK    2  A    between atoms: S_2  and  C_25
REMARK    3  A    between atoms: O_5  and  C_14
REMARK    4  A    between atoms: O_6  and  C_15
REMARK    5  A    between atoms: N_11  and  C_24
REMARK    6  A    between atoms: N_12  and  C_18
REMARK    7  A    between atoms: C_13  and  C_17
REMARK    8  A    between atoms: C_16  and  C_18
REMARK    9  A    between atoms: C_17  and  C_19
REMARK                            x       y       z     vdW  Elec       q    Type
REMARK                         _______ _______ _______ _____ _____    ______ ____
ROOT
ATOM      4  O   UNL     1      11.019   8.850  20.061  0.00  0.00    -0.366 OA
ATOM     13  C   UNL     1      11.694   7.587  19.912  0.00  0.00    +0.158 C 
ATOM     14  C   UNL     1      12.135   7.191  21.311  0.00  0.00    +0.175 C 
ATOM     15  C   UNL     1      10.989   7.716  22.151  0.00  0.00    +0.175 C 
ATOM     16  C   UNL     1      10.654   9.027  21.449  0.00  0.00    +0.165 C 
ENDROOT
BRANCH  14   5
ATOM      5  O   UNL     1      12.325   5.797  21.432  0.00  0.00    -0.387 OA
ATOM     36  H   UNL     1      12.902   5.648  22.200  0.00  0.00    +0.210 HD
ENDBRANCH  14   5
BRANCH  15   6
ATOM      6  O   UNL     1       9.858   6.853  22.041  0.00  0.00    -0.387 OA
ATOM     37  H   UNL     1       9.460   7.007  21.167  0.00  0.00    +0.210 HD
ENDBRANCH  15   6
BRANCH  13  17
ATOM     17  C   UNL     1      12.846   7.734  18.935  0.00  0.00    +0.130 C 
BRANCH  17  19
ATOM      7  O   UNL     1      13.648   9.818  19.745  0.00  0.00    -0.276 OA
ATOM     10  N   UNL     1      15.144   8.041  19.778  0.00  0.00    -0.298 N 
ATOM     11  N   UNL     1      17.676   6.866  20.547  0.00  0.00    -0.327 N 
ATOM     19  C   UNL     1      13.907   8.633  19.524  0.00  0.00    +0.218 C 
ATOM     20  C   UNL     1      15.450   6.633  19.515  0.00  0.00    +0.126 C 
ATOM     21  C   UNL     1      16.221   8.843  20.353  0.00  0.00    +0.126 C 
ATOM     22  C   UNL     1      16.949   6.369  19.376  0.00  0.00    +0.124 C 
ATOM     23  C   UNL     1      17.123   8.017  21.267  0.00  0.00    +0.124 C 
BRANCH  11  24
ATOM      3  F   UNL     1      22.440   4.570  22.134  0.00  0.00    -0.205 F 
ATOM     24  C   UNL     1      18.878   6.287  20.948  0.00  0.00    +0.030 A 
ATOM     26  C   UNL     1      19.465   5.292  20.167  0.00  0.00    +0.026 A 
ATOM     27  C   UNL     1      19.493   6.702  22.129  0.00  0.00    +0.026 A 
ATOM     30  C   UNL     1      20.669   4.712  20.568  0.00  0.00    +0.040 A 
ATOM     31  C   UNL     1      20.697   6.122  22.529  0.00  0.00    +0.040 A 
ATOM     32  C   UNL     1      21.284   5.127  21.749  0.00  0.00    +0.124 A 
ENDBRANCH  11  24
ENDBRANCH  17  19
ENDBRANCH  13  17
BRANCH  16  18
ATOM     18  C   UNL     1      11.443  10.212  21.990  0.00  0.00    +0.140 C 
BRANCH  18  12
ATOM     12  N   UNL     1      11.307  10.264  23.458  0.00  0.00    -0.187 NA
ATOM     38  H   UNL     1      10.633   9.573  23.817  0.00  0.00    +0.148 HD
BRANCH  12   2
ATOM      2  S   UNL     1      11.299  11.763  24.262  0.00  0.00    +0.058 S 
ATOM      8  O   UNL     1      10.699  12.761  23.396  0.00  0.00    -0.153 OA
ATOM      9  O   UNL     1      10.807  11.580  25.614  0.00  0.00    -0.153 OA
BRANCH   2  25
ATOM      1 CL   UNL     1      17.431  13.071  24.593  0.00  0.00    -0.084 Cl
ATOM     25  C   UNL     1      13.026  12.132  24.355  0.00  0.00    +0.105 A 
ATOM     28  C   UNL     1      13.771  11.706  25.455  0.00  0.00    +0.030 A 
ATOM     29  C   UNL     1      13.642  12.848  23.329  0.00  0.00    +0.030 A 
ATOM     33  C   UNL     1      15.133  11.997  25.528  0.00  0.00    +0.022 A 
ATOM     34  C   UNL     1      15.004  13.137  23.403  0.00  0.00    +0.022 A 
ATOM     35  C   UNL     1      15.750  12.712  24.503  0.00  0.00    +0.041 A 
ENDBRANCH   2  25
ENDBRANCH  12   2
ENDBRANCH  18  12
ENDBRANCH  16  18
TORSDOF 9
ENDMDL
MODEL 2
REMARK VINA RESULT:      -7.5     28.038     31.261
REMARK  Name = 45360600
REMARK  9 active torsions:
REMARK  status: ('A' for Active; 'I' for Inactive)
REMARK    1  A    between atoms: S_2  and  N_12
REMARK    2  A    between atoms: S_2  and  C_25
REMARK    3  A    between atoms: O_5  and  C_14
REMARK    4  A    between atoms: O_6  and  C_15
REMARK    5  A    between atoms: N_11  and  C_24
REMARK    6  A    between atoms: N_12  and  C_18
REMARK    7  A    between atoms: C_13  and  C_17
REMARK    8  A    between atoms: C_16  and  C_18
REMARK    9  A    between atoms: C_17  and  C_19
REMARK                            x       y       z     vdW  Elec       q    Type
REMARK                         _______ _______ _______ _____ _____    ______ ____
ROOT
ATOM      4  O   UNL     1      -6.878  -9.429  17.075  0.00  0.00    -0.366 OA
ATOM     13  C   UNL     1      -8.145  -9.775  17.665  0.00  0.00    +0.158 C 
ATOM     14  C   UNL     1      -7.914 -11.092  18.389  0.00  0.00    +0.175 C 
ATOM     15  C   UNL     1      -6.496 -10.917  18.891  0.00  0.00    +0.175 C 
ATOM     16  C   UNL     1      -5.834 -10.187  17.728  0.00  0.00    +0.165 C 
ENDROOT
BRANCH  14   5
ATOM      5  O   UNL     1      -8.853 -11.299  19.422  0.00  0.00    -0.387 OA
ATOM     36  H   UNL     1      -9.599 -11.794  19.043  0.00  0.00    +0.210 HD
ENDBRANCH  14   5
BRANCH  15   6
ATOM      6  O   UNL     1      -6.475 -10.053  20.026  0.00  0.00    -0.387 OA
ATOM     37  H   UNL     1      -6.696  -9.158  19.714  0.00  0.00    +0.210 HD
ENDBRANCH  15   6
BRANCH  13  17
ATOM     17  C   UNL     1      -9.207  -9.860  16.583  0.00  0.00    +0.130 C 
BRANCH  17  19
ATOM      7  O   UNL     1     -10.904  -9.469  18.198  0.00  0.00    -0.276 OA
ATOM     10  N   UNL     1     -11.120  -8.359  16.167  0.00  0.00    -0.298 N 
ATOM     11  N   UNL     1     -12.404  -6.398  14.469  0.00  0.00    -0.327 N 
ATOM     19  C   UNL     1     -10.484  -9.216  17.066  0.00  0.00    +0.218 C 
ATOM     20  C   UNL     1     -10.620  -8.060  14.825  0.00  0.00    +0.126 C 
ATOM     21  C   UNL     1     -12.359  -7.693  16.563  0.00  0.00    +0.126 C 
ATOM     22  C   UNL     1     -11.712  -7.550  13.885  0.00  0.00    +0.124 C 
ATOM     23  C   UNL     1     -12.490  -6.310  15.930  0.00  0.00    +0.124 C 
BRANCH  11  24
ATOM      3  F   UNL     1     -14.753  -2.557  11.273  0.00  0.00    -0.205 F 
ATOM     24  C   UNL     1     -12.996  -5.429  13.663  0.00  0.00    +0.030 A 
ATOM     26  C   UNL     1     -14.386  -5.354  13.571  0.00  0.00    +0.026 A 
ATOM     27  C   UNL     1     -12.200  -4.533  12.948  0.00  0.00    +0.026 A 
ATOM     30  C   UNL     1     -14.980  -4.384  12.763  0.00  0.00    +0.040 A 
ATOM     31  C   UNL     1     -12.794  -3.563  12.142  0.00  0.00    +0.040 A 
ATOM     32  C   UNL     1     -14.184  -3.489  12.049  0.00  0.00    +0.124 A 
ENDBRANCH  11  24
ENDBRANCH  17  19
ENDBRANCH  13  17
BRANCH  16  18
ATOM     18  C   UNL     1      -5.231 -11.132  16.697  0.00  0.00    +0.140 C 
BRANCH  18  12
ATOM     12  N   UNL     1      -4.168 -10.432  15.951  0.00  0.00    -0.187 NA
ATOM     38  H   UNL     1      -4.505  -9.572  15.495  0.00  0.00    +0.148 HD
BRANCH  12   2
ATOM      2  S   UNL     1      -3.026 -11.321  15.056  0.00  0.00    +0.058 S 
ATOM      8  O   UNL     1      -1.692 -10.932  15.474  0.00  0.00    -0.153 OA
ATOM      9  O   UNL     1      -3.408 -12.720  15.046  0.00  0.00    -0.153 OA
BRANCH   2  25
ATOM      1 CL   UNL     1      -3.873  -9.040   9.269  0.00  0.00    -0.084 Cl
ATOM     25  C   UNL     1      -3.265 -10.679  13.426  0.00  0.00    +0.105 A 
ATOM     28  C   UNL     1      -4.551 -10.385  12.974  0.00  0.00    +0.030 A 
ATOM     29  C   UNL     1      -2.166 -10.466  12.593  0.00  0.00    +0.030 A 
ATOM     33  C   UNL     1      -4.739  -9.879  11.688  0.00  0.00    +0.022 A 
ATOM     34  C   UNL     1      -2.355  -9.959  11.308  0.00  0.00    +0.022 A 
ATOM     35  C   UNL     1      -3.641  -9.666  10.855  0.00  0.00    +0.041 A 
ENDBRANCH   2  25
ENDBRANCH  12   2
ENDBRANCH  18  12
ENDBRANCH  16  18
TORSDOF 9
ENDMDL
MODEL 3
REMARK VINA RESULT:      -7.5     27.637     30.721
REMARK  Name = 45360600
REMARK  9 active torsions:
REMARK  status: ('A' for Active; 'I' for Inactive)
REMARK    1  A    between atoms: S_2  and  N_12
REMARK    2  A    between atoms: S_2  and  C_25
REMARK    3  A    between atoms: O_5  and  C_14
REMARK    4  A    between atoms: O_6  and  C_15
REMARK    5  A    between atoms: N_11  and  C_24
REMARK    6  A    between atoms: N_12  and  C_18
REMARK    7  A    between atoms: C_13  and  C_17
REMARK    8  A    between atoms: C_16  and  C_18
REMARK    9  A    between atoms: C_17  and  C_19
REMARK                            x       y       z     vdW  Elec       q    Type
REMARK                         _______ _______ _______ _____ _____    ______ ____
ROOT
ATOM      4  O   UNL     1      -4.393 -11.313  18.905  0.00  0.00    -0.366 OA
ATOM     13  C   UNL     1      -5.745 -11.783  19.052  0.00  0.00    +0.158 C 
ATOM     14  C   UNL     1      -6.156 -12.289  17.680  0.00  0.00    +0.175 C 
ATOM     15  C   UNL     1      -4.855 -12.873  17.170  0.00  0.00    +0.175 C 
ATOM     16  C   UNL     1      -3.830 -11.875  17.697  0.00  0.00    +0.165 C 
ENDROOT
BRANCH  14   5
ATOM      5  O   UNL     1      -7.202 -13.235  17.755  0.00  0.00    -0.387 OA
ATOM     36  H   UNL     1      -7.179 -13.759  16.937  0.00  0.00    +0.210 HD
ENDBRANCH  14   5
BRANCH  15   6
ATOM      6  O   UNL     1      -4.602 -14.135  17.786  0.00  0.00    -0.387 OA
ATOM     37  H   UNL     1      -4.166 -13.960  18.638  0.00  0.00    +0.210 HD
ENDBRANCH  15   6
BRANCH  13  17
ATOM     17  C   UNL     1      -6.624 -10.659  19.569  0.00  0.00    +0.130 C 
BRANCH  17  19
ATOM      7  O   UNL     1      -8.519 -12.008  20.048  0.00  0.00    -0.276 OA
ATOM     10  N   UNL     1      -8.842 -10.241  18.573  0.00  0.00    -0.298 N 
ATOM     11  N   UNL     1     -10.566  -8.530  16.999  0.00  0.00    -0.327 N 
ATOM     19  C   UNL     1      -8.078 -11.038  19.427  0.00  0.00    +0.218 C 
ATOM     20  C   UNL     1      -8.317  -9.090  17.836  0.00  0.00    +0.126 C 
ATOM     21  C   UNL     1     -10.260 -10.540  18.387  0.00  0.00    +0.126 C 
ATOM     22  C   UNL     1      -9.166  -8.730  16.617  0.00  0.00    +0.124 C 
ATOM     23  C   UNL     1     -11.083  -9.276  18.150  0.00  0.00    +0.124 C 
BRANCH  11  24
ATOM      3  F   UNL     1     -13.857  -5.166  14.110  0.00  0.00    -0.205 F 
ATOM     24  C   UNL     1     -11.397  -7.682  16.270  0.00  0.00    +0.030 A 
ATOM     26  C   UNL     1     -10.873  -6.530  15.684  0.00  0.00    +0.026 A 
ATOM     27  C   UNL     1     -12.751  -7.984  16.127  0.00  0.00    +0.026 A 
ATOM     30  C   UNL     1     -11.705  -5.679  14.954  0.00  0.00    +0.040 A 
ATOM     31  C   UNL     1     -13.582  -7.135  15.396  0.00  0.00    +0.040 A 
ATOM     32  C   UNL     1     -13.058  -5.982  14.811  0.00  0.00    +0.124 A 
ENDBRANCH  11  24
ENDBRANCH  17  19
ENDBRANCH  13  17
BRANCH  16  18
ATOM     18  C   UNL     1      -3.562 -10.729  16.731  0.00  0.00    +0.140 C 
BRANCH  18  12
ATOM     12  N   UNL     1      -3.469 -11.256  15.356  0.00  0.00    -0.187 NA
ATOM     38  H   UNL     1      -3.935 -12.168  15.250  0.00  0.00    +0.148 HD
BRANCH  12   2
ATOM      2  S   UNL     1      -2.028 -11.076  14.469  0.00  0.00    +0.058 S 
ATOM      8  O   UNL     1      -1.230 -10.026  15.072  0.00  0.00    -0.153 OA
ATOM      9  O   UNL     1      -1.449 -12.383  14.223  0.00  0.00    -0.153 OA
BRANCH   2  25
ATOM      1 CL   UNL     1      -4.161  -8.846   9.001  0.00  0.00    -0.084 Cl
ATOM     25  C   UNL     1      -2.629 -10.448  12.929  0.00  0.00    +0.105 A 
ATOM     28  C   UNL     1      -4.002 -10.366  12.697  0.00  0.00    +0.030 A 
ATOM     29  C   UNL     1      -1.729 -10.034  11.946  0.00  0.00    +0.030 A 
ATOM     33  C   UNL     1      -4.475  -9.871  11.482  0.00  0.00    +0.022 A 
ATOM     34  C   UNL     1      -2.203  -9.539  10.732  0.00  0.00    +0.022 A 
ATOM     35  C   UNL     1      -3.576  -9.458  10.500  0.00  0.00    +0.041 A 
ENDBRANCH   2  25
ENDBRANCH  12   2
ENDBRANCH  18  12
ENDBRANCH  16  18
TORSDOF 9
ENDMDL
MODEL 4
REMARK VINA RESULT:      -7.4     28.369     32.135
REMARK  Name = 45360600
REMARK  9 active torsions:
REMARK  status: ('A' for Active; 'I' for Inactive)
REMARK    1  A    between atoms: S_2  and  N_12
REMARK    2  A    between atoms: S_2  and  C_25
REMARK    3  A    between atoms: O_5  and  C_14
REMARK    4  A    between atoms: O_6  and  C_15
REMARK    5  A    between atoms: N_11  and  C_24
REMARK    6  A    between atoms: N_12  and  C_18
REMARK    7  A    between atoms: C_13  and  C_17
REMARK    8  A    between atoms: C_16  and  C_18
REMARK    9  A    between atoms: C_17  and  C_19
REMARK                            x       y       z     vdW  Elec       q    Type
REMARK                         _______ _______ _______ _____ _____    ______ ____
ROOT
ATOM      4  O   UNL     1      -6.511 -11.763  17.291  0.00  0.00    -0.366 OA
ATOM     13  C   UNL     1      -7.576 -11.014  17.904  0.00  0.00    +0.158 C 
ATOM     14  C   UNL     1      -7.194  -9.552  17.744  0.00  0.00    +0.175 C 
ATOM     15  C   UNL     1      -6.516  -9.561  16.390  0.00  0.00    +0.175 C 
ATOM     16  C   UNL     1      -5.758 -10.884  16.424  0.00  0.00    +0.165 C 
ENDROOT
BRANCH  14   5
ATOM      5  O   UNL     1      -8.320  -8.702  17.800  0.00  0.00    -0.387 OA
ATOM     36  H   UNL     1      -8.744  -8.837  18.665  0.00  0.00    +0.210 HD
ENDBRANCH  14   5
BRANCH  15   6
ATOM      6  O   UNL     1      -7.488  -9.635  15.349  0.00  0.00    -0.387 OA
ATOM     37  H   UNL     1      -7.906 -10.511  15.404  0.00  0.00    +0.210 HD
ENDBRANCH  15   6
BRANCH  13  17
ATOM     17  C   UNL     1      -7.734 -11.441  19.352  0.00  0.00    +0.130 C 
BRANCH  17  19
ATOM      7  O   UNL     1      -8.598 -13.652  19.307  0.00  0.00    -0.276 OA
ATOM     10  N   UNL     1     -10.113 -11.949  19.759  0.00  0.00    -0.298 N 
ATOM     11  N   UNL     1     -12.737 -11.033  20.569  0.00  0.00    -0.327 N 
ATOM     19  C   UNL     1      -8.845 -12.455  19.470  0.00  0.00    +0.218 C 
ATOM     20  C   UNL     1     -10.405 -10.528  19.952  0.00  0.00    +0.126 C 
ATOM     21  C   UNL     1     -11.241 -12.868  19.895  0.00  0.00    +0.126 C 
ATOM     22  C   UNL     1     -11.880 -10.191  19.732  0.00  0.00    +0.124 C 
ATOM     23  C   UNL     1     -12.260 -12.374  20.919  0.00  0.00    +0.124 C 
BRANCH  11  24
ATOM      3  F   UNL     1     -17.693  -9.280  22.257  0.00  0.00    -0.205 F 
ATOM     24  C   UNL     1     -13.987 -10.590  20.994  0.00  0.00    +0.030 A 
ATOM     26  C   UNL     1     -14.802 -11.431  21.752  0.00  0.00    +0.026 A 
ATOM     27  C   UNL     1     -14.424  -9.307  20.664  0.00  0.00    +0.026 A 
ATOM     30  C   UNL     1     -16.055 -10.989  22.179  0.00  0.00    +0.040 A 
ATOM     31  C   UNL     1     -15.675  -8.865  21.091  0.00  0.00    +0.040 A 
ATOM     32  C   UNL     1     -16.491  -9.706  21.848  0.00  0.00    +0.124 A 
ENDBRANCH  11  24
ENDBRANCH  17  19
ENDBRANCH  13  17
BRANCH  16  18
ATOM     18  C   UNL     1      -4.354 -10.753  16.999  0.00  0.00    +0.140 C 
BRANCH  18  12
ATOM     12  N   UNL     1      -3.448 -10.217  15.966  0.00  0.00    -0.187 NA
ATOM     38  H   UNL     1      -3.830  -9.384  15.497  0.00  0.00    +0.148 HD
BRANCH  12   2
ATOM      2  S   UNL     1      -2.583 -11.278  14.955  0.00  0.00    +0.058 S 
ATOM      8  O   UNL     1      -1.162 -11.073  15.160  0.00  0.00    -0.153 OA
ATOM      9  O   UNL     1      -3.151 -12.609  15.060  0.00  0.00    -0.153 OA
BRANCH   2  25
ATOM      1 CL   UNL     1      -3.961  -9.031   9.257  0.00  0.00    -0.084 Cl
ATOM     25  C   UNL     1      -2.971 -10.645  13.351  0.00  0.00    +0.105 A 
ATOM     28  C   UNL     1      -1.949 -10.380  12.440  0.00  0.00    +0.030 A 
ATOM     29  C   UNL     1      -4.300 -10.411  12.996  0.00  0.00    +0.030 A 
ATOM     33  C   UNL     1      -2.255  -9.881  11.174  0.00  0.00    +0.022 A 
ATOM     34  C   UNL     1      -4.606  -9.912  11.731  0.00  0.00    +0.022 A 
ATOM     35  C   UNL     1      -3.583  -9.647  10.820  0.00  0.00    +0.041 A 
ENDBRANCH   2  25
ENDBRANCH  12   2
ENDBRANCH  18  12
ENDBRANCH  16  18
TORSDOF 9
ENDMDL
MODEL 5
REMARK VINA RESULT:      -7.4      2.263      2.686
REMARK  Name = 45360600
REMARK  9 active torsions:
REMARK  status: ('A' for Active; 'I' for Inactive)
REMARK    1  A    between atoms: S_2  and  N_12
REMARK    2  A    between atoms: S_2  and  C_25
REMARK    3  A    between atoms: O_5  and  C_14
REMARK    4  A    between atoms: O_6  and  C_15
REMARK    5  A    between atoms: N_11  and  C_24
REMARK    6  A    between atoms: N_12  and  C_18
REMARK    7  A    between atoms: C_13  and  C_17
REMARK    8  A    between atoms: C_16  and  C_18
REMARK    9  A    between atoms: C_17  and  C_19
REMARK                            x       y       z     vdW  Elec       q    Type
REMARK                         _______ _______ _______ _____ _____    ______ ____
ROOT
ATOM      4  O   UNL     1      11.631   8.584  19.215  0.00  0.00    -0.366 OA
ATOM     13  C   UNL     1      12.402   7.378  19.366  0.00  0.00    +0.158 C 
ATOM     14  C   UNL     1      12.676   7.251  20.855  0.00  0.00    +0.175 C 
ATOM     15  C   UNL     1      11.395   7.800  21.448  0.00  0.00    +0.175 C 
ATOM     16  C   UNL     1      11.072   8.948  20.497  0.00  0.00    +0.165 C 
ENDROOT
BRANCH  14   5
ATOM      5  O   UNL     1      12.940   5.916  21.233  0.00  0.00    -0.387 OA
ATOM     36  H   UNL     1      12.614   5.801  22.141  0.00  0.00    +0.210 HD
ENDBRANCH  14   5
BRANCH  15   6
ATOM      6  O   UNL     1      10.350   6.835  21.349  0.00  0.00    -0.387 OA
ATOM     37  H   UNL     1       9.538   7.250  21.687  0.00  0.00    +0.210 HD
ENDBRANCH  15   6
BRANCH  13  17
ATOM     17  C   UNL     1      13.663   7.467  18.526  0.00  0.00    +0.130 C 
BRANCH  17  19
ATOM      7  O   UNL     1      14.401   9.550  19.396  0.00  0.00    -0.276 OA
ATOM     10  N   UNL     1      15.875   7.762  19.578  0.00  0.00    -0.298 N 
ATOM     11  N   UNL     1      18.315   6.574  20.586  0.00  0.00    -0.327 N 
ATOM     19  C   UNL     1      14.671   8.362  19.206  0.00  0.00    +0.218 C 
ATOM     20  C   UNL     1      16.193   6.351  19.352  0.00  0.00    +0.126 C 
ATOM     21  C   UNL     1      16.899   8.560  20.247  0.00  0.00    +0.126 C 
ATOM     22  C   UNL     1      17.697   6.076  19.355  0.00  0.00    +0.124 C 
ATOM     23  C   UNL     1      17.706   7.733  21.246  0.00  0.00    +0.124 C 
BRANCH  11  24
ATOM      3  F   UNL     1      22.892   4.253  22.622  0.00  0.00    -0.205 F 
ATOM     24  C   UNL     1      19.469   5.989  21.100  0.00  0.00    +0.030 A 
ATOM     26  C   UNL     1      20.082   4.941  20.415  0.00  0.00    +0.026 A 
ATOM     27  C   UNL     1      20.012   6.451  22.299  0.00  0.00    +0.026 A 
ATOM     30  C   UNL     1      21.239   4.354  20.929  0.00  0.00    +0.040 A 
ATOM     31  C   UNL     1      21.168   5.865  22.813  0.00  0.00    +0.040 A 
ATOM     32  C   UNL     1      21.781   4.816  22.128  0.00  0.00    +0.124 A 
ENDBRANCH  11  24
ENDBRANCH  17  19
ENDBRANCH  13  17
BRANCH  16  18
ATOM     18  C   UNL     1      11.700  10.268  20.922  0.00  0.00    +0.140 C 
BRANCH  18  12
ATOM     12  N   UNL     1      12.588  10.041  22.078  0.00  0.00    -0.187 NA
ATOM     38  H   UNL     1      12.159   9.438  22.794  0.00  0.00    +0.148 HD
BRANCH  12   2
ATOM      2  S   UNL     1      13.541  11.313  22.685  0.00  0.00    +0.058 S 
ATOM      8  O   UNL     1      14.167  10.886  23.922  0.00  0.00    -0.153 OA
ATOM      9  O   UNL     1      14.348  11.862  21.612  0.00  0.00    -0.153 OA
BRANCH   2  25
ATOM      1 CL   UNL     1       9.183  15.569  24.203  0.00  0.00    -0.084 Cl
ATOM     25  C   UNL     1      12.314  12.512  23.112  0.00  0.00    +0.105 A 
ATOM     28  C   UNL     1      12.395  13.806  22.600  0.00  0.00    +0.030 A 
ATOM     29  C   UNL     1      11.264  12.162  23.962  0.00  0.00    +0.030 A 
ATOM     33  C   UNL     1      11.427  14.751  22.938  0.00  0.00    +0.022 A 
ATOM     34  C   UNL     1      10.296  13.107  24.299  0.00  0.00    +0.022 A 
ATOM     35  C   UNL     1      10.378  14.402  23.787  0.00  0.00    +0.041 A 
ENDBRANCH   2  25
ENDBRANCH  12   2
ENDBRANCH  18  12
ENDBRANCH  16  18
TORSDOF 9
ENDMDL
MODEL 6
REMARK VINA RESULT:      -7.3     28.577     30.487
REMARK  Name = 45360600
REMARK  9 active torsions:
REMARK  status: ('A' for Active; 'I' for Inactive)
REMARK    1  A    between atoms: S_2  and  N_12
REMARK    2  A    between atoms: S_2  and  C_25
REMARK    3  A    between atoms: O_5  and  C_14
REMARK    4  A    between atoms: O_6  and  C_15
REMARK    5  A    between atoms: N_11  and  C_24
REMARK    6  A    between atoms: N_12  and  C_18
REMARK    7  A    between atoms: C_13  and  C_17
REMARK    8  A    between atoms: C_16  and  C_18
REMARK    9  A    between atoms: C_17  and  C_19
REMARK                            x       y       z     vdW  Elec       q    Type
REMARK                         _______ _______ _______ _____ _____    ______ ____
ROOT
ATOM      4  O   UNL     1      -6.229 -11.673  17.185  0.00  0.00    -0.366 OA
ATOM     13  C   UNL     1      -4.941 -11.489  16.569  0.00  0.00    +0.158 C 
ATOM     14  C   UNL     1      -3.984 -11.169  17.705  0.00  0.00    +0.175 C 
ATOM     15  C   UNL     1      -4.539 -12.031  18.821  0.00  0.00    +0.175 C 
ATOM     16  C   UNL     1      -6.042 -11.908  18.600  0.00  0.00    +0.165 C 
ENDROOT
BRANCH  14   5
ATOM      5  O   UNL     1      -2.647 -11.476  17.373  0.00  0.00    -0.387 OA
ATOM     36  H   UNL     1      -2.078 -11.061  18.044  0.00  0.00    +0.210 HD
ENDBRANCH  14   5
BRANCH  15   6
ATOM      6  O   UNL     1      -4.173 -13.395  18.622  0.00  0.00    -0.387 OA
ATOM     37  H   UNL     1      -4.551 -13.677  17.771  0.00  0.00    +0.210 HD
ENDBRANCH  15   6
BRANCH  13  17
ATOM     17  C   UNL     1      -5.026 -10.391  15.525  0.00  0.00    +0.130 C 
BRANCH  17  19
ATOM      7  O   UNL     1      -3.026 -11.259  14.583  0.00  0.00    -0.276 OA
ATOM     10  N   UNL     1      -4.563 -10.339  13.102  0.00  0.00    -0.298 N 
ATOM     11  N   UNL     1      -5.500  -9.815  10.414  0.00  0.00    -0.327 N 
ATOM     19  C   UNL     1      -4.109 -10.708  14.369  0.00  0.00    +0.218 C 
ATOM     20  C   UNL     1      -5.848  -9.685  12.850  0.00  0.00    +0.126 C 
ATOM     21  C   UNL     1      -3.735 -10.617  11.932  0.00  0.00    +0.126 C 
ATOM     22  C   UNL     1      -5.879  -8.932  11.520  0.00  0.00    +0.124 C 
ATOM     23  C   UNL     1      -4.578 -10.920  10.695  0.00  0.00    +0.124 C 
BRANCH  11  24
ATOM      3  F   UNL     1      -7.368  -8.942   5.292  0.00  0.00    -0.205 F 
ATOM     24  C   UNL     1      -5.972  -9.594   9.122  0.00  0.00    +0.030 A 
ATOM     26  C   UNL     1      -5.308 -10.160   8.033  0.00  0.00    +0.026 A 
ATOM     27  C   UNL     1      -7.106  -8.809   8.917  0.00  0.00    +0.026 A 
ATOM     30  C   UNL     1      -5.780  -9.940   6.738  0.00  0.00    +0.040 A 
ATOM     31  C   UNL     1      -7.578  -8.590   7.624  0.00  0.00    +0.040 A 
ATOM     32  C   UNL     1      -6.915  -9.154   6.535  0.00  0.00    +0.124 A 
ENDBRANCH  11  24
ENDBRANCH  17  19
ENDBRANCH  13  17
BRANCH  16  18
ATOM     18  C   UNL     1      -6.661 -10.737  19.351  0.00  0.00    +0.140 C 
BRANCH  18  12
ATOM     12  N   UNL     1      -7.775 -10.179  18.561  0.00  0.00    -0.187 NA
ATOM     38  H   UNL     1      -7.683  -9.165  18.407  0.00  0.00    +0.148 HD
BRANCH  12   2
ATOM      2  S   UNL     1      -9.365 -10.725  18.824  0.00  0.00    +0.058 S 
ATOM      8  O   UNL     1      -9.555 -11.983  18.127  0.00  0.00    -0.153 OA
ATOM      9  O   UNL     1      -9.681 -10.619  20.236  0.00  0.00    -0.153 OA
BRANCH   2  25
ATOM      1 CL   UNL     1     -12.730  -6.402  15.758  0.00  0.00    -0.084 Cl
ATOM     25  C   UNL     1     -10.313  -9.508  17.961  0.00  0.00    +0.105 A 
ATOM     28  C   UNL     1      -9.689  -8.365  17.461  0.00  0.00    +0.030 A 
ATOM     29  C   UNL     1     -11.684  -9.691  17.780  0.00  0.00    +0.030 A 
ATOM     33  C   UNL     1     -10.438  -7.404  16.780  0.00  0.00    +0.022 A 
ATOM     34  C   UNL     1     -12.431  -8.731  17.099  0.00  0.00    +0.022 A 
ATOM     35  C   UNL     1     -11.808  -7.587  16.599  0.00  0.00    +0.041 A 
ENDBRANCH   2  25
ENDBRANCH  12   2
ENDBRANCH  18  12
ENDBRANCH  16  18
TORSDOF 9
ENDMDL
MODEL 7
REMARK VINA RESULT:      -7.1     27.855     30.384
REMARK  Name = 45360600
REMARK  9 active torsions:
REMARK  status: ('A' for Active; 'I' for Inactive)
REMARK    1  A    between atoms: S_2  and  N_12
REMARK    2  A    between atoms: S_2  and  C_25
REMARK    3  A    between atoms: O_5  and  C_14
REMARK    4  A    between atoms: O_6  and  C_15
REMARK    5  A    between atoms: N_11  and  C_24
REMARK    6  A    between atoms: N_12  and  C_18
REMARK    7  A    between atoms: C_13  and  C_17
REMARK    8  A    between atoms: C_16  and  C_18
REMARK    9  A    between atoms: C_17  and  C_19
REMARK                            x       y       z     vdW  Elec       q    Type
REMARK                         _______ _______ _______ _____ _____    ______ ____
ROOT
ATOM      4  O   UNL     1      -4.325 -11.632  14.615  0.00  0.00    -0.366 OA
ATOM     13  C   UNL     1      -2.904 -11.637  14.846  0.00  0.00    +0.158 C 
ATOM     14  C   UNL     1      -2.675 -10.702  16.021  0.00  0.00    +0.175 C 
ATOM     15  C   UNL     1      -3.910 -10.960  16.859  0.00  0.00    +0.175 C 
ATOM     16  C   UNL     1      -4.989 -11.121  15.794  0.00  0.00    +0.165 C 
ENDROOT
BRANCH  14   5
ATOM      5  O   UNL     1      -1.469 -10.987  16.698  0.00  0.00    -0.387 OA
ATOM     36  H   UNL     1      -1.703 -11.302  17.588  0.00  0.00    +0.210 HD
ENDBRANCH  14   5
BRANCH  15   6
ATOM      6  O   UNL     1      -3.786 -12.198  17.556  0.00  0.00    -0.387 OA
ATOM     37  H   UNL     1      -4.686 -12.514  17.748  0.00  0.00    +0.210 HD
ENDBRANCH  15   6
BRANCH  13  17
ATOM     17  C   UNL     1      -2.179 -11.208  13.583  0.00  0.00    +0.130 C 
BRANCH  17  19
ATOM      7  O   UNL     1      -2.278 -13.299  12.463  0.00  0.00    -0.276 OA
ATOM     10  N   UNL     1      -3.265 -11.492  11.386  0.00  0.00    -0.298 N 
ATOM     11  N   UNL     1      -4.886 -10.377   9.263  0.00  0.00    -0.327 N 
ATOM     19  C   UNL     1      -2.574 -12.103  12.434  0.00  0.00    +0.218 C 
ATOM     20  C   UNL     1      -3.616 -10.071  11.353  0.00  0.00    +0.126 C 
ATOM     21  C   UNL     1      -3.687 -12.293  10.239  0.00  0.00    +0.126 C 
ATOM     22  C   UNL     1      -3.875  -9.558   9.936  0.00  0.00    +0.124 C 
ATOM     23  C   UNL     1      -4.999 -11.788   9.643  0.00  0.00    +0.124 C 
BRANCH  11  24
ATOM      3  F   UNL     1      -8.099  -8.262   5.302  0.00  0.00    -0.205 F 
ATOM     24  C   UNL     1      -5.697  -9.843   8.265  0.00  0.00    +0.030 A 
ATOM     26  C   UNL     1      -5.526 -10.246   6.940  0.00  0.00    +0.026 A 
ATOM     27  C   UNL     1      -6.680  -8.907   8.588  0.00  0.00    +0.026 A 
ATOM     30  C   UNL     1      -6.338  -9.712   5.939  0.00  0.00    +0.040 A 
ATOM     31  C   UNL     1      -7.491  -8.374   7.587  0.00  0.00    +0.040 A 
ATOM     32  C   UNL     1      -7.320  -8.776   6.263  0.00  0.00    +0.124 A 
ENDBRANCH  11  24
ENDBRANCH  17  19
ENDBRANCH  13  17
BRANCH  16  18
ATOM     18  C   UNL     1      -5.658  -9.806  15.419  0.00  0.00    +0.140 C 
BRANCH  18  12
ATOM     12  N   UNL     1      -6.472  -9.327  16.552  0.00  0.00    -0.187 NA
ATOM     38  H   UNL     1      -6.010  -9.474  17.461  0.00  0.00    +0.148 HD
BRANCH  12   2
ATOM      2  S   UNL     1      -8.156  -9.566  16.554  0.00  0.00    +0.058 S 
ATOM      8  O   UNL     1      -8.801  -8.384  17.095  0.00  0.00    -0.153 OA
ATOM      9  O   UNL     1      -8.567 -10.097  15.268  0.00  0.00    -0.153 OA
BRANCH   2  25
ATOM      1 CL   UNL     1      -8.800 -14.122  20.825  0.00  0.00    -0.084 Cl
ATOM     25  C   UNL     1      -8.338 -10.849  17.757  0.00  0.00    +0.105 A 
ATOM     28  C   UNL     1      -9.493 -11.631  17.774  0.00  0.00    +0.030 A 
ATOM     29  C   UNL     1      -7.325 -11.079  18.689  0.00  0.00    +0.030 A 
ATOM     33  C   UNL     1      -9.636 -12.642  18.723  0.00  0.00    +0.022 A 
ATOM     34  C   UNL     1      -7.468 -12.091  19.637  0.00  0.00    +0.022 A 
ATOM     35  C   UNL     1      -8.624 -12.873  19.654  0.00  0.00    +0.041 A 
ENDBRANCH   2  25
ENDBRANCH  12   2
ENDBRANCH  18  12
ENDBRANCH  16  18
TORSDOF 9
ENDMDL
MODEL 8
REMARK VINA RESULT:      -7.0     28.772     30.734
REMARK  Name = 45360600
REMARK  9 active torsions:
REMARK  status: ('A' for Active; 'I' for Inactive)
REMARK    1  A    between atoms: S_2  and  N_12
REMARK    2  A    between atoms: S_2  and  C_25
REMARK    3  A    between atoms: O_5  and  C_14
REMARK    4  A    between atoms: O_6  and  C_15
REMARK    5  A    between atoms: N_11  and  C_24
REMARK    6  A    between atoms: N_12  and  C_18
REMARK    7  A    between atoms: C_13  and  C_17
REMARK    8  A    between atoms: C_16  and  C_18
REMARK    9  A    between atoms: C_17  and  C_19
REMARK                            x       y       z     vdW  Elec       q    Type
REMARK                         _______ _______ _______ _____ _____    ______ ____
ROOT
ATOM      4  O   UNL     1      -7.307  -9.519  16.161  0.00  0.00    -0.366 OA
ATOM     13  C   UNL     1      -7.878  -9.515  14.840  0.00  0.00    +0.158 C 
ATOM     14  C   UNL     1      -9.380  -9.616  15.042  0.00  0.00    +0.175 C 
ATOM     15  C   UNL     1      -9.571  -8.806  16.308  0.00  0.00    +0.175 C 
ATOM     16  C   UNL     1      -8.338  -9.189  17.119  0.00  0.00    +0.165 C 
ENDROOT
BRANCH  14   5
ATOM      5  O   UNL     1     -10.098  -9.107  13.938  0.00  0.00    -0.387 OA
ATOM     36  H   UNL     1     -10.890  -8.663  14.286  0.00  0.00    +0.210 HD
ENDBRANCH  14   5
BRANCH  15   6
ATOM      6  O   UNL     1      -9.496  -7.412  16.020  0.00  0.00    -0.387 OA
ATOM     37  H   UNL     1      -9.963  -6.942  16.732  0.00  0.00    +0.210 HD
ENDBRANCH  15   6
BRANCH  13  17
ATOM     17  C   UNL     1      -7.300 -10.662  14.030  0.00  0.00    +0.130 C 
BRANCH  17  19
ATOM      7  O   UNL     1      -5.007 -10.149  13.682  0.00  0.00    -0.276 OA
ATOM     10  N   UNL     1      -6.447  -9.754  11.900  0.00  0.00    -0.298 N 
ATOM     11  N   UNL     1      -6.930  -9.074   9.129  0.00  0.00    -0.327 N 
ATOM     19  C   UNL     1      -6.141 -10.169  13.197  0.00  0.00    +0.218 C 
ATOM     20  C   UNL     1      -7.793  -9.778  11.327  0.00  0.00    +0.126 C 
ATOM     21  C   UNL     1      -5.378  -9.269  11.030  0.00  0.00    +0.126 C 
ATOM     22  C   UNL     1      -7.952  -8.820  10.147  0.00  0.00    +0.124 C 
ATOM     23  C   UNL     1      -5.637  -9.610   9.564  0.00  0.00    +0.124 C 
BRANCH  11  24
ATOM      3  F   UNL     1      -7.853  -7.927   3.807  0.00  0.00    -0.205 F 
ATOM     24  C   UNL     1      -7.164  -8.784   7.786  0.00  0.00    +0.030 A 
ATOM     26  C   UNL     1      -6.522  -9.525   6.793  0.00  0.00    +0.026 A 
ATOM     27  C   UNL     1      -8.038  -7.755   7.436  0.00  0.00    +0.026 A 
ATOM     30  C   UNL     1      -6.755  -9.235   5.448  0.00  0.00    +0.040 A 
ATOM     31  C   UNL     1      -8.271  -7.467   6.091  0.00  0.00    +0.040 A 
ATOM     32  C   UNL     1      -7.629  -8.206   5.098  0.00  0.00    +0.124 A 
ENDBRANCH  11  24
ENDBRANCH  17  19
ENDBRANCH  13  17
BRANCH  16  18
ATOM     18  C   UNL     1      -8.561 -10.410  18.002  0.00  0.00    +0.140 C 
BRANCH  18  12
ATOM     12  N   UNL     1      -7.702 -10.314  19.198  0.00  0.00    -0.187 NA
ATOM     38  H   UNL     1      -7.223  -9.405  19.270  0.00  0.00    +0.148 HD
BRANCH  12   2
ATOM      2  S   UNL     1      -6.780 -11.655  19.696  0.00  0.00    +0.058 S 
ATOM      8  O   UNL     1      -5.936 -11.262  20.808  0.00  0.00    -0.153 OA
ATOM      9  O   UNL     1      -7.643 -12.815  19.809  0.00  0.00    -0.153 OA
BRANCH   2  25
ATOM      1 CL   UNL     1      -3.009 -12.524  14.752  0.00  0.00    -0.084 Cl
ATOM     25  C   UNL     1      -5.718 -11.900  18.304  0.00  0.00    +0.105 A 
ATOM     28  C   UNL     1      -5.873 -13.028  17.498  0.00  0.00    +0.030 A 
ATOM     29  C   UNL     1      -4.725 -10.964  18.011  0.00  0.00    +0.030 A 
ATOM     33  C   UNL     1      -5.035 -13.220  16.400  0.00  0.00    +0.022 A 
ATOM     34  C   UNL     1      -3.888 -11.157  16.913  0.00  0.00    +0.022 A 
ATOM     35  C   UNL     1      -4.043 -12.286  16.107  0.00  0.00    +0.041 A 
ENDBRANCH   2  25
ENDBRANCH  12   2
ENDBRANCH  18  12
ENDBRANCH  16  18
TORSDOF 9
ENDMDL
MODEL 9
REMARK VINA RESULT:      -7.0      4.369      6.134
REMARK  Name = 45360600
REMARK  9 active torsions:
REMARK  status: ('A' for Active; 'I' for Inactive)
REMARK    1  A    between atoms: S_2  and  N_12
REMARK    2  A    between atoms: S_2  and  C_25
REMARK    3  A    between atoms: O_5  and  C_14
REMARK    4  A    between atoms: O_6  and  C_15
REMARK    5  A    between atoms: N_11  and  C_24
REMARK    6  A    between atoms: N_12  and  C_18
REMARK    7  A    between atoms: C_13  and  C_17
REMARK    8  A    between atoms: C_16  and  C_18
REMARK    9  A    between atoms: C_17  and  C_19
REMARK                            x       y       z     vdW  Elec       q    Type
REMARK                         _______ _______ _______ _____ _____    ______ ____
ROOT
ATOM      4  O   UNL     1      14.692   7.518  18.341  0.00  0.00    -0.366 OA
ATOM     13  C   UNL     1      14.996   6.968  19.635  0.00  0.00    +0.158 C 
ATOM     14  C   UNL     1      13.938   7.522  20.575  0.00  0.00    +0.175 C 
ATOM     15  C   UNL     1      12.722   7.562  19.673  0.00  0.00    +0.175 C 
ATOM     16  C   UNL     1      13.327   7.997  18.343  0.00  0.00    +0.165 C 
ENDROOT
BRANCH  14   5
ATOM      5  O   UNL     1      13.763   6.706  21.714  0.00  0.00    -0.387 OA
ATOM     36  H   UNL     1      13.183   7.187  22.330  0.00  0.00    +0.210 HD
ENDBRANCH  14   5
BRANCH  15   6
ATOM      6  O   UNL     1      12.183   6.252  19.508  0.00  0.00    -0.387 OA
ATOM     37  H   UNL     1      12.690   5.817  18.801  0.00  0.00    +0.210 HD
ENDBRANCH  15   6
BRANCH  13  17
ATOM     17  C   UNL     1      16.412   7.344  20.032  0.00  0.00    +0.130 C 
BRANCH  17  19
ATOM      7  O   UNL     1      17.079   5.451  18.763  0.00  0.00    -0.276 OA
ATOM     10  N   UNL     1      18.516   6.130  20.459  0.00  0.00    -0.298 N 
ATOM     11  N   UNL     1      21.046   5.978  21.857  0.00  0.00    -0.327 N 
ATOM     19  C   UNL     1      17.358   6.222  19.685  0.00  0.00    +0.218 C 
ATOM     20  C   UNL     1      18.846   7.045  21.553  0.00  0.00    +0.126 C 
ATOM     21  C   UNL     1      19.485   5.073  20.182  0.00  0.00    +0.126 C 
ATOM     22  C   UNL     1      19.842   6.447  22.546  0.00  0.00    +0.124 C 
ATOM     23  C   UNL     1      20.916   5.521  20.470  0.00  0.00    +0.124 C 
BRANCH  11  24
ATOM      3  F   UNL     1      25.925   5.803  24.435  0.00  0.00    -0.205 F 
ATOM     24  C   UNL     1      22.277   5.933  22.507  0.00  0.00    +0.030 A 
ATOM     26  C   UNL     1      23.142   7.025  22.435  0.00  0.00    +0.026 A 
ATOM     27  C   UNL     1      22.643   4.799  23.232  0.00  0.00    +0.026 A 
ATOM     30  C   UNL     1      24.376   6.981  23.086  0.00  0.00    +0.040 A 
ATOM     31  C   UNL     1      23.876   4.756  23.883  0.00  0.00    +0.040 A 
ATOM     32  C   UNL     1      24.742   5.846  23.810  0.00  0.00    +0.124 A 
ENDBRANCH  11  24
ENDBRANCH  17  19
ENDBRANCH  13  17
BRANCH  16  18
ATOM     18  C   UNL     1      13.365   9.509  18.170  0.00  0.00    +0.140 C 
BRANCH  18  12
ATOM     12  N   UNL     1      12.485   9.898  17.051  0.00  0.00    -0.187 NA
ATOM     38  H   UNL     1      11.516   9.574  17.179  0.00  0.00    +0.148 HD
BRANCH  12   2
ATOM      2  S   UNL     1      13.062   9.836  15.452  0.00  0.00    +0.058 S 
ATOM      8  O   UNL     1      13.631   8.525  15.205  0.00  0.00    -0.153 OA
ATOM      9  O   UNL     1      12.054  10.374  14.557  0.00  0.00    -0.153 OA
BRANCH   2  25
ATOM      1 CL   UNL     1      17.841  13.902  15.651  0.00  0.00    -0.084 Cl
ATOM     25  C   UNL     1      14.408  10.981  15.508  0.00  0.00    +0.105 A 
ATOM     28  C   UNL     1      15.577  10.718  14.794  0.00  0.00    +0.030 A 
ATOM     29  C   UNL     1      14.300  12.147  16.266  0.00  0.00    +0.030 A 
ATOM     33  C   UNL     1      16.639  11.622  14.839  0.00  0.00    +0.022 A 
ATOM     34  C   UNL     1      15.361  13.050  16.309  0.00  0.00    +0.022 A 
ATOM     35  C   UNL     1      16.531  12.787  15.597  0.00  0.00    +0.041 A 
ENDBRANCH   2  25
ENDBRANCH  12   2
ENDBRANCH  18  12
ENDBRANCH  16  18
TORSDOF 9
ENDMDL
MODEL 10
REMARK VINA RESULT:      -7.0     27.781     30.381
REMARK  Name = 45360600
REMARK  9 active torsions:
REMARK  status: ('A' for Active; 'I' for Inactive)
REMARK    1  A    between atoms: S_2  and  N_12
REMARK    2  A    between atoms: S_2  and  C_25
REMARK    3  A    between atoms: O_5  and  C_14
REMARK    4  A    between atoms: O_6  and  C_15
REMARK    5  A    between atoms: N_11  and  C_24
REMARK    6  A    between atoms: N_12  and  C_18
REMARK    7  A    between atoms: C_13  and  C_17
REMARK    8  A    between atoms: C_16  and  C_18
REMARK    9  A    between atoms: C_17  and  C_19
REMARK                            x       y       z     vdW  Elec       q    Type
REMARK                         _______ _______ _______ _____ _____    ______ ____
ROOT
ATOM      4  O   UNL     1      -4.191 -12.247  15.846  0.00  0.00    -0.366 OA
ATOM     13  C   UNL     1      -3.592 -11.805  14.614  0.00  0.00    +0.158 C 
ATOM     14  C   UNL     1      -3.056 -10.411  14.896  0.00  0.00    +0.175 C 
ATOM     15  C   UNL     1      -2.601 -10.545  16.334  0.00  0.00    +0.175 C 
ATOM     16  C   UNL     1      -3.691 -11.430  16.930  0.00  0.00    +0.165 C 
ENDROOT
BRANCH  14   5
ATOM      5  O   UNL     1      -2.015 -10.056  14.011  0.00  0.00    -0.387 OA
ATOM     36  H   UNL     1      -1.958 -10.752  13.334  0.00  0.00    +0.210 HD
ENDBRANCH  14   5
BRANCH  15   6
ATOM      6  O   UNL     1      -1.367 -11.258  16.399  0.00  0.00    -0.387 OA
ATOM     37  H   UNL     1      -0.652 -10.612  16.271  0.00  0.00    +0.210 HD
ENDBRANCH  15   6
BRANCH  13  17
ATOM     17  C   UNL     1      -4.625 -11.840  13.502  0.00  0.00    +0.130 C 
BRANCH  17  19
ATOM      7  O   UNL     1      -2.850 -12.212  11.969  0.00  0.00    -0.276 OA
ATOM     10  N   UNL     1      -4.624 -10.913  11.216  0.00  0.00    -0.298 N 
ATOM     11  N   UNL     1      -6.040  -9.527   9.106  0.00  0.00    -0.327 N 
ATOM     19  C   UNL     1      -3.945 -11.680  12.164  0.00  0.00    +0.218 C 
ATOM     20  C   UNL     1      -5.924 -10.282  11.449  0.00  0.00    +0.126 C 
ATOM     21  C   UNL     1      -4.034 -10.717   9.894  0.00  0.00    +0.126 C 
ATOM     22  C   UNL     1      -6.192  -9.112  10.503  0.00  0.00    +0.124 C 
ATOM     23  C   UNL     1      -5.098 -10.608   8.805  0.00  0.00    +0.124 C 
BRANCH  11  24
ATOM      3  F   UNL     1      -8.824  -7.007   5.058  0.00  0.00    -0.205 F 
ATOM     24  C   UNL     1      -6.742  -8.891   8.086  0.00  0.00    +0.030 A 
ATOM     26  C   UNL     1      -6.687  -9.393   6.786  0.00  0.00    +0.026 A 
ATOM     27  C   UNL     1      -7.501  -7.753   8.363  0.00  0.00    +0.026 A 
ATOM     30  C   UNL     1      -7.391  -8.757   5.762  0.00  0.00    +0.040 A 
ATOM     31  C   UNL     1      -8.204  -7.118   7.340  0.00  0.00    +0.040 A 
ATOM     32  C   UNL     1      -8.148  -7.619   6.040  0.00  0.00    +0.124 A 
ENDBRANCH  11  24
ENDBRANCH  17  19
ENDBRANCH  13  17
BRANCH  16  18
ATOM     18  C   UNL     1      -4.862 -10.637  17.494  0.00  0.00    +0.140 C 
BRANCH  18  12
ATOM     12  N   UNL     1      -6.005 -11.542  17.722  0.00  0.00    -0.187 NA
ATOM     38  H   UNL     1      -6.515 -11.760  16.855  0.00  0.00    +0.148 HD
BRANCH  12   2
ATOM      2  S   UNL     1      -6.979 -11.354  19.104  0.00  0.00    +0.058 S 
ATOM      8  O   UNL     1      -7.521 -12.646  19.479  0.00  0.00    -0.153 OA
ATOM      9  O   UNL     1      -6.275 -10.546  20.082  0.00  0.00    -0.153 OA
BRANCH   2  25
ATOM      1 CL   UNL     1     -11.749  -7.947  16.855  0.00  0.00    -0.084 Cl
ATOM     25  C   UNL     1      -8.323 -10.395  18.470  0.00  0.00    +0.105 A 
ATOM     28  C   UNL     1      -9.622 -10.632  18.919  0.00  0.00    +0.030 A 
ATOM     29  C   UNL     1      -8.083  -9.400  17.522  0.00  0.00    +0.030 A 
ATOM     33  C   UNL     1     -10.681  -9.875  18.419  0.00  0.00    +0.022 A 
ATOM     34  C   UNL     1      -9.142  -8.643  17.023  0.00  0.00    +0.022 A 
ATOM     35  C   UNL     1     -10.442  -8.881  17.472  0.00  0.00    +0.041 A 
ENDBRANCH   2  25
ENDBRANCH  12   2
ENDBRANCH  18  12
ENDBRANCH  16  18
TORSDOF 9
ENDMDL
