REMARK  Name = 51137064
REMARK  4 active torsions:
REMARK  status: ('A' for Active; 'I' for Inactive)
REMARK    1  A    between atoms: N_2  and  C_8
REMARK    2  A    between atoms: C_4  and  C_9
REMARK    3  A    between atoms: C_8  and  C_10
REMARK    4  A    between atoms: C_11  and  C_16
REMARK                            x       y       z     vdW  Elec       q    Type
REMARK                         _______ _______ _______ _____ _____    ______ ____
ROOT
ATOM      2  N   UNL     1      -1.498  -0.128  -0.013  0.00  0.00    -0.297 NA
ATOM      4  C   UNL     1       0.710  -0.546   0.658  0.00  0.00    +0.090 C 
ATOM      5  C   UNL     1      -0.203  -0.518  -0.575  0.00  0.00    +0.097 C 
ATOM      6  C   UNL     1       0.039   0.408   1.661  0.00  0.00    +0.029 C 
ATOM      7  C   UNL     1      -1.190   0.941   0.937  0.00  0.00    +0.085 C 
ENDROOT
BRANCH   4   9
ATOM      1  O   UNL     1       3.062  -1.185   0.623  0.00  0.00    -0.439 OA
ATOM      3  N   UNL     1       2.635   0.886  -0.194  0.00  0.00    -0.213 NA
ATOM      9  C   UNL     1       2.149  -0.216   0.333  0.00  0.00    +0.201 A 
ATOM     12  C   UNL     1       4.249  -0.632   0.237  0.00  0.00    +0.155 A 
ATOM     13  C   UNL     1       3.984   0.635  -0.263  0.00  0.00    +0.110 A 
ATOM     17  C   UNL     1       5.513  -1.204   0.314  0.00  0.00    +0.048 A 
ATOM     18  C   UNL     1       5.051   1.416  -0.730  0.00  0.00    +0.031 A 
ATOM     21  C   UNL     1       6.566  -0.412  -0.156  0.00  0.00    +0.004 A 
ATOM     22  C   UNL     1       6.342   0.872  -0.668  0.00  0.00    +0.002 A 
ENDBRANCH   4   9
BRANCH   2   8
ATOM      8  C   UNL     1      -2.443   0.294  -1.036  0.00  0.00    +0.119 C 
BRANCH   8  10
ATOM     10  C   UNL     1      -3.862   0.270  -0.532  0.00  0.00    -0.030 A 
ATOM     11  C   UNL     1      -4.555  -0.933  -0.396  0.00  0.00    -0.046 A 
ATOM     14  C   UNL     1      -4.483   1.474  -0.201  0.00  0.00    +0.005 A 
ATOM     15  C   UNL     1      -5.869  -0.932   0.073  0.00  0.00    +0.003 A 
ATOM     16  C   UNL     1      -3.911  -2.235  -0.745  0.00  0.00    +0.044 C 
ATOM     19  C   UNL     1      -5.797   1.475   0.268  0.00  0.00    +0.000 A 
ATOM     20  C   UNL     1      -6.490   0.272   0.405  0.00  0.00    +0.000 A 
ENDBRANCH   8  10
ENDBRANCH   2   8
TORSDOF 3
