MODEL 1
REMARK VINA RESULT:      -8.5      0.000      0.000
REMARK  Name = 45783326
REMARK  5 active torsions:
REMARK  status: ('A' for Active; 'I' for Inactive)
REMARK    1  A    between atoms: N_3  and  C_17
REMARK    2  A    between atoms: C_10  and  C_20
REMARK    3  A    between atoms: C_14  and  C_23
REMARK    4  A    between atoms: C_17  and  C_22
REMARK    5  A    between atoms: C_24  and  C_26
REMARK                            x       y       z     vdW  Elec       q    Type
REMARK                         _______ _______ _______ _____ _____    ______ ____
ROOT
ATOM      1  O   UNL     1     -16.583   2.706  22.712  0.00  0.00    -0.336 OA
ATOM      5  N   UNL     1     -16.768   3.735  24.694  0.00  0.00    -0.190 NA
ATOM      6  N   UNL     1     -16.837   1.699  23.652  0.00  0.00    -0.056 NA
ATOM     20  C   UNL     1     -16.558   3.873  23.408  0.00  0.00    +0.245 A 
ATOM     24  C   UNL     1     -16.934   2.385  24.795  0.00  0.00    +0.202 A 
ENDROOT
BRANCH  24  26
ATOM      4  N   UNL     1     -15.831   1.637  29.435  0.00  0.00    -0.315 N 
ATOM      7  N   UNL     1     -17.701   0.515  28.513  0.00  0.00    -0.240 NA
ATOM     14  C   UNL     1     -14.109   2.128  31.720  0.00  0.00    +0.078 C 
ATOM     15  C   UNL     1     -14.321   0.726  31.153  0.00  0.00    +0.031 C 
ATOM     16  C   UNL     1     -14.373   3.199  30.664  0.00  0.00    +0.031 C 
ATOM     18  C   UNL     1     -15.660   0.572  30.432  0.00  0.00    +0.107 C 
ATOM     19  C   UNL     1     -15.700   3.011  29.926  0.00  0.00    +0.107 C 
ATOM     21  C   UNL     1     -16.667   1.369  28.345  0.00  0.00    +0.122 A 
ATOM     25  C   UNL     1     -16.373   2.006  27.149  0.00  0.00    +0.055 A 
ATOM     26  C   UNL     1     -17.195   1.749  26.056  0.00  0.00    +0.027 A 
ATOM     29  C   UNL     1     -18.268   0.877  26.190  0.00  0.00    +0.031 A 
ATOM     30  C   UNL     1     -18.477   0.290  27.428  0.00  0.00    +0.113 A 
BRANCH  14  23
ATOM      2  O   UNL     1     -15.662   3.333  33.081  0.00  0.00    -0.276 OA
ATOM      8  N   UNL     1     -14.850   1.329  33.870  0.00  0.00    -0.329 N 
ATOM     23  C   UNL     1     -14.957   2.337  32.940  0.00  0.00    +0.214 C 
ATOM     33  H   UNL     1     -15.381   1.365  34.734  0.00  0.00    +0.145 HD
ATOM     34  H   UNL     1     -14.215   0.545  33.763  0.00  0.00    +0.145 HD
ENDBRANCH  14  23
ENDBRANCH  24  26
BRANCH  20  10
ATOM      3  N   UNL     1     -15.253   4.945  21.581  0.00  0.00    -0.287 NA
ATOM     10  C   UNL     1     -16.299   5.131  22.607  0.00  0.00    +0.146 C 
ATOM     11  C   UNL     1     -17.537   5.601  21.822  0.00  0.00    +0.030 C 
ATOM     12  C   UNL     1     -17.075   5.709  20.375  0.00  0.00    +0.017 C 
ATOM     13  C   UNL     1     -15.572   5.870  20.493  0.00  0.00    +0.085 C 
BRANCH   3  17
ATOM     17  C   UNL     1     -13.904   5.147  22.094  0.00  0.00    +0.121 C 
BRANCH  17  22
ATOM      9  N   UNL     1     -13.428   8.868  21.583  0.00  0.00    -0.263 NA
ATOM     22  C   UNL     1     -13.317   6.454  21.629  0.00  0.00    -0.015 A 
ATOM     27  C   UNL     1     -12.172   6.483  20.839  0.00  0.00    +0.008 A 
ATOM     28  C   UNL     1     -13.902   7.662  21.970  0.00  0.00    +0.115 A 
ATOM     31  C   UNL     1     -11.655   7.705  20.422  0.00  0.00    +0.020 A 
ATOM     32  C   UNL     1     -12.313   8.858  20.818  0.00  0.00    +0.111 A 
ENDBRANCH  17  22
ENDBRANCH   3  17
ENDBRANCH  20  10
TORSDOF 5
ENDMDL
MODEL 2
REMARK VINA RESULT:      -8.0     31.097     34.998
REMARK  Name = 45783326
REMARK  5 active torsions:
REMARK  status: ('A' for Active; 'I' for Inactive)
REMARK    1  A    between atoms: N_3  and  C_17
REMARK    2  A    between atoms: C_10  and  C_20
REMARK    3  A    between atoms: C_14  and  C_23
REMARK    4  A    between atoms: C_17  and  C_22
REMARK    5  A    between atoms: C_24  and  C_26
REMARK                            x       y       z     vdW  Elec       q    Type
REMARK                         _______ _______ _______ _____ _____    ______ ____
ROOT
ATOM      1  O   UNL     1      20.789   6.881  22.994  0.00  0.00    -0.336 OA
ATOM      5  N   UNL     1      20.288   5.311  21.476  0.00  0.00    -0.190 NA
ATOM      6  N   UNL     1      19.576   7.273  22.414  0.00  0.00    -0.056 NA
ATOM     20  C   UNL     1      21.139   5.717  22.385  0.00  0.00    +0.245 A 
ATOM     24  C   UNL     1      19.347   6.297  21.530  0.00  0.00    +0.202 A 
ENDROOT
BRANCH  24  26
ATOM      4  N   UNL     1      14.685   7.288  20.766  0.00  0.00    -0.315 N 
ATOM      7  N   UNL     1      15.927   6.249  19.038  0.00  0.00    -0.240 NA
ATOM     14  C   UNL     1      12.148   8.334  21.715  0.00  0.00    +0.078 C 
ATOM     15  C   UNL     1      12.306   6.886  21.257  0.00  0.00    +0.031 C 
ATOM     16  C   UNL     1      13.484   8.920  22.169  0.00  0.00    +0.031 C 
ATOM     18  C   UNL     1      13.441   6.701  20.250  0.00  0.00    +0.107 C 
ATOM     19  C   UNL     1      14.619   8.695  21.168  0.00  0.00    +0.107 C 
ATOM     21  C   UNL     1      15.891   6.761  20.289  0.00  0.00    +0.122 A 
ATOM     25  C   UNL     1      16.982   6.801  21.143  0.00  0.00    +0.055 A 
ATOM     26  C   UNL     1      18.187   6.280  20.684  0.00  0.00    +0.027 A 
ATOM     29  C   UNL     1      18.264   5.744  19.404  0.00  0.00    +0.031 A 
ATOM     30  C   UNL     1      17.116   5.752  18.627  0.00  0.00    +0.113 A 
BRANCH  14  23
ATOM      2  O   UNL     1      11.673  10.383  20.577  0.00  0.00    -0.276 OA
ATOM      8  N   UNL     1      10.765   8.439  19.745  0.00  0.00    -0.329 N 
ATOM     23  C   UNL     1      11.523   9.165  20.634  0.00  0.00    +0.214 C 
ATOM     33  H   UNL     1      10.295   8.898  18.971  0.00  0.00    +0.145 HD
ATOM     34  H   UNL     1      10.601   7.443  19.844  0.00  0.00    +0.145 HD
ENDBRANCH  14  23
ENDBRANCH  24  26
BRANCH  20  10
ATOM      3  N   UNL     1      22.406   4.704  24.271  0.00  0.00    -0.287 NA
ATOM     10  C   UNL     1      22.433   5.078  22.844  0.00  0.00    +0.146 C 
ATOM     11  C   UNL     1      22.743   3.766  22.100  0.00  0.00    +0.030 C 
ATOM     12  C   UNL     1      22.934   2.724  23.194  0.00  0.00    +0.017 C 
ATOM     13  C   UNL     1      23.296   3.550  24.413  0.00  0.00    +0.085 C 
BRANCH   3  17
ATOM     17  C   UNL     1      22.782   5.797  25.158  0.00  0.00    +0.121 C 
BRANCH  17  22
ATOM      9  N   UNL     1      20.004   6.712  27.561  0.00  0.00    -0.263 NA
ATOM     22  C   UNL     1      21.931   5.829  26.400  0.00  0.00    -0.015 A 
ATOM     27  C   UNL     1      22.253   5.052  27.509  0.00  0.00    +0.008 A 
ATOM     28  C   UNL     1      20.807   6.634  26.476  0.00  0.00    +0.115 A 
ATOM     31  C   UNL     1      21.450   5.104  28.642  0.00  0.00    +0.020 A 
ATOM     32  C   UNL     1      20.346   5.941  28.619  0.00  0.00    +0.111 A 
ENDBRANCH  17  22
ENDBRANCH   3  17
ENDBRANCH  20  10
TORSDOF 5
ENDMDL
MODEL 3
REMARK VINA RESULT:      -7.9     20.129     22.013
REMARK  Name = 45783326
REMARK  5 active torsions:
REMARK  status: ('A' for Active; 'I' for Inactive)
REMARK    1  A    between atoms: N_3  and  C_17
REMARK    2  A    between atoms: C_10  and  C_20
REMARK    3  A    between atoms: C_14  and  C_23
REMARK    4  A    between atoms: C_17  and  C_22
REMARK    5  A    between atoms: C_24  and  C_26
REMARK                            x       y       z     vdW  Elec       q    Type
REMARK                         _______ _______ _______ _____ _____    ______ ____
ROOT
ATOM      1  O   UNL     1      -5.962  -8.028   8.983  0.00  0.00    -0.336 OA
ATOM      5  N   UNL     1      -5.609 -10.193   9.438  0.00  0.00    -0.190 NA
ATOM      6  N   UNL     1      -5.074  -8.058  10.065  0.00  0.00    -0.056 NA
ATOM     20  C   UNL     1      -6.227  -9.325   8.676  0.00  0.00    +0.245 A 
ATOM     24  C   UNL     1      -4.914  -9.369  10.274  0.00  0.00    +0.202 A 
ENDROOT
BRANCH  24  26
ATOM      4  N   UNL     1      -4.294 -10.974  14.784  0.00  0.00    -0.315 N 
ATOM      7  N   UNL     1      -2.424 -10.897  13.335  0.00  0.00    -0.240 NA
ATOM     14  C   UNL     1      -5.375 -11.566  17.414  0.00  0.00    +0.078 C 
ATOM     15  C   UNL     1      -4.241 -10.563  17.212  0.00  0.00    +0.031 C 
ATOM     16  C   UNL     1      -6.209 -11.721  16.144  0.00  0.00    +0.031 C 
ATOM     18  C   UNL     1      -3.416 -10.843  15.955  0.00  0.00    +0.107 C 
ATOM     19  C   UNL     1      -5.369 -11.965  14.888  0.00  0.00    +0.107 C 
ATOM     21  C   UNL     1      -3.744 -10.681  13.531  0.00  0.00    +0.122 A 
ATOM     25  C   UNL     1      -4.601 -10.183  12.563  0.00  0.00    +0.055 A 
ATOM     26  C   UNL     1      -4.068  -9.886  11.313  0.00  0.00    +0.027 A 
ATOM     29  C   UNL     1      -2.715 -10.094  11.072  0.00  0.00    +0.031 A 
ATOM     30  C   UNL     1      -1.942 -10.596  12.107  0.00  0.00    +0.113 A 
BRANCH  14  23
ATOM      2  O   UNL     1      -5.221 -13.952  17.412  0.00  0.00    -0.276 OA
ATOM      8  N   UNL     1      -3.899 -12.777  18.884  0.00  0.00    -0.329 N 
ATOM     23  C   UNL     1      -4.835 -12.884  17.882  0.00  0.00    +0.214 C 
ATOM     33  H   UNL     1      -3.465 -13.606  19.277  0.00  0.00    +0.145 HD
ATOM     34  H   UNL     1      -3.638 -11.891  19.303  0.00  0.00    +0.145 HD
ENDBRANCH  14  23
ENDBRANCH  24  26
BRANCH  20  10
ATOM      3  N   UNL     1      -8.067  -8.416   7.269  0.00  0.00    -0.287 NA
ATOM     10  C   UNL     1      -7.176  -9.566   7.520  0.00  0.00    +0.146 C 
ATOM     11  C   UNL     1      -6.441  -9.791   6.186  0.00  0.00    +0.030 C 
ATOM     12  C   UNL     1      -7.028  -8.762   5.230  0.00  0.00    +0.017 C 
ATOM     13  C   UNL     1      -8.377  -8.439   5.839  0.00  0.00    +0.085 C 
BRANCH   3  17
ATOM     17  C   UNL     1      -9.269  -8.431   8.091  0.00  0.00    +0.121 C 
BRANCH  17  22
ATOM      9  N   UNL     1      -9.232  -4.684   8.626  0.00  0.00    -0.263 NA
ATOM     22  C   UNL     1      -9.735  -7.040   8.429  0.00  0.00    -0.015 A 
ATOM     27  C   UNL     1     -11.041  -6.804   8.848  0.00  0.00    +0.008 A 
ATOM     28  C   UNL     1      -8.878  -5.956   8.335  0.00  0.00    +0.115 A 
ATOM     31  C   UNL     1     -11.441  -5.508   9.156  0.00  0.00    +0.020 A 
ATOM     32  C   UNL     1     -10.508  -4.492   9.029  0.00  0.00    +0.111 A 
ENDBRANCH  17  22
ENDBRANCH   3  17
ENDBRANCH  20  10
TORSDOF 5
ENDMDL
MODEL 4
REMARK VINA RESULT:      -7.9     28.918     32.904
REMARK  Name = 45783326
REMARK  5 active torsions:
REMARK  status: ('A' for Active; 'I' for Inactive)
REMARK    1  A    between atoms: N_3  and  C_17
REMARK    2  A    between atoms: C_10  and  C_20
REMARK    3  A    between atoms: C_14  and  C_23
REMARK    4  A    between atoms: C_17  and  C_22
REMARK    5  A    between atoms: C_24  and  C_26
REMARK                            x       y       z     vdW  Elec       q    Type
REMARK                         _______ _______ _______ _____ _____    ______ ____
ROOT
ATOM      1  O   UNL     1      15.415  11.620  22.597  0.00  0.00    -0.336 OA
ATOM      5  N   UNL     1      14.409   9.744  21.900  0.00  0.00    -0.190 NA
ATOM      6  N   UNL     1      16.436  10.779  22.136  0.00  0.00    -0.056 NA
ATOM     20  C   UNL     1      14.255  10.934  22.423  0.00  0.00    +0.245 A 
ATOM     24  C   UNL     1      15.763   9.693  21.742  0.00  0.00    +0.202 A 
ENDROOT
BRANCH  24  26
ATOM      4  N   UNL     1      19.613   6.802  21.389  0.00  0.00    -0.315 N 
ATOM      7  N   UNL     1      17.687   6.297  20.108  0.00  0.00    -0.240 NA
ATOM     14  C   UNL     1      22.342   6.147  22.134  0.00  0.00    +0.078 C 
ATOM     15  C   UNL     1      21.941   6.418  20.685  0.00  0.00    +0.031 C 
ATOM     16  C   UNL     1      21.377   6.817  23.110  0.00  0.00    +0.031 C 
ATOM     18  C   UNL     1      20.467   6.118  20.410  0.00  0.00    +0.107 C 
ATOM     19  C   UNL     1      19.905   6.537  22.801  0.00  0.00    +0.107 C 
ATOM     21  C   UNL     1      18.302   7.104  21.000  0.00  0.00    +0.122 A 
ATOM     25  C   UNL     1      17.717   8.227  21.564  0.00  0.00    +0.055 A 
ATOM     26  C   UNL     1      16.415   8.541  21.186  0.00  0.00    +0.027 A 
ATOM     29  C   UNL     1      15.750   7.735  20.270  0.00  0.00    +0.031 A 
ATOM     30  C   UNL     1      16.423   6.635  19.764  0.00  0.00    +0.113 A 
BRANCH  14  23
ATOM      2  O   UNL     1      22.046   4.159  23.429  0.00  0.00    -0.276 OA
ATOM      8  N   UNL     1      23.030   3.973  21.357  0.00  0.00    -0.329 N 
ATOM     23  C   UNL     1      22.443   4.672  22.385  0.00  0.00    +0.214 C 
ATOM     33  H   UNL     1      23.150   2.966  21.418  0.00  0.00    +0.145 HD
ATOM     34  H   UNL     1      23.409   4.421  20.530  0.00  0.00    +0.145 HD
ENDBRANCH  14  23
ENDBRANCH  24  26
BRANCH  20  10
ATOM      3  N   UNL     1      11.847  10.711  23.009  0.00  0.00    -0.287 NA
ATOM     10  C   UNL     1      12.984  11.639  22.850  0.00  0.00    +0.146 C 
ATOM     11  C   UNL     1      13.120  12.330  24.220  0.00  0.00    +0.030 C 
ATOM     12  C   UNL     1      11.980  11.772  25.061  0.00  0.00    +0.017 C 
ATOM     13  C   UNL     1      10.977  11.294  24.031  0.00  0.00    +0.085 C 
BRANCH   3  17
ATOM     17  C   UNL     1      11.135  10.457  21.763  0.00  0.00    +0.121 C 
BRANCH  17  22
ATOM      9  N   UNL     1      11.769   7.562  19.408  0.00  0.00    -0.263 NA
ATOM     22  C   UNL     1      11.359   9.054  21.265  0.00  0.00    -0.015 A 
ATOM     27  C   UNL     1      11.362   7.975  22.143  0.00  0.00    +0.008 A 
ATOM     28  C   UNL     1      11.566   8.797  19.919  0.00  0.00    +0.115 A 
ATOM     31  C   UNL     1      11.569   6.690  21.653  0.00  0.00    +0.020 A 
ATOM     32  C   UNL     1      11.767   6.538  20.290  0.00  0.00    +0.111 A 
ENDBRANCH  17  22
ENDBRANCH   3  17
ENDBRANCH  20  10
TORSDOF 5
ENDMDL
MODEL 5
REMARK VINA RESULT:      -7.9     31.788     37.021
REMARK  Name = 45783326
REMARK  5 active torsions:
REMARK  status: ('A' for Active; 'I' for Inactive)
REMARK    1  A    between atoms: N_3  and  C_17
REMARK    2  A    between atoms: C_10  and  C_20
REMARK    3  A    between atoms: C_14  and  C_23
REMARK    4  A    between atoms: C_17  and  C_22
REMARK    5  A    between atoms: C_24  and  C_26
REMARK                            x       y       z     vdW  Elec       q    Type
REMARK                         _______ _______ _______ _____ _____    ______ ____
ROOT
ATOM      1  O   UNL     1      10.933   7.000   3.856  0.00  0.00    -0.336 OA
ATOM      5  N   UNL     1      10.940   4.768   3.657  0.00  0.00    -0.190 NA
ATOM      6  N   UNL     1      11.469   6.723   2.592  0.00  0.00    -0.056 NA
ATOM     20  C   UNL     1      10.649   5.795   4.417  0.00  0.00    +0.245 A 
ATOM     24  C   UNL     1      11.440   5.387   2.549  0.00  0.00    +0.202 A 
ENDROOT
BRANCH  24  26
ATOM      4  N   UNL     1      10.805   3.736  -1.942  0.00  0.00    -0.315 N 
ATOM      7  N   UNL     1      12.808   3.194  -0.801  0.00  0.00    -0.240 NA
ATOM     14  C   UNL     1       9.163   3.498  -4.325  0.00  0.00    +0.078 C 
ATOM     15  C   UNL     1       9.627   2.275  -3.536  0.00  0.00    +0.031 C 
ATOM     16  C   UNL     1       9.133   4.745  -3.445  0.00  0.00    +0.031 C 
ATOM     18  C   UNL     1      10.922   2.523  -2.762  0.00  0.00    +0.107 C 
ATOM     19  C   UNL     1      10.422   4.961  -2.649  0.00  0.00    +0.107 C 
ATOM     21  C   UNL     1      11.610   3.820  -0.800  0.00  0.00    +0.122 A 
ATOM     25  C   UNL     1      11.117   4.550   0.270  0.00  0.00    +0.055 A 
ATOM     26  C   UNL     1      11.904   4.642   1.413  0.00  0.00    +0.027 A 
ATOM     29  C   UNL     1      13.142   4.011   1.450  0.00  0.00    +0.031 A 
ATOM     30  C   UNL     1      13.545   3.306   0.328  0.00  0.00    +0.113 A 
BRANCH  14  23
ATOM      2  O   UNL     1      10.455   4.806  -5.854  0.00  0.00    -0.276 OA
ATOM      8  N   UNL     1      10.255   2.548  -6.252  0.00  0.00    -0.329 N 
ATOM     23  C   UNL     1      10.023   3.700  -5.538  0.00  0.00    +0.214 C 
ATOM     33  H   UNL     1      10.826   2.566  -7.091  0.00  0.00    +0.145 HD
ATOM     34  H   UNL     1       9.839   1.655  -6.010  0.00  0.00    +0.145 HD
ENDBRANCH  14  23
ENDBRANCH  24  26
BRANCH  20  10
ATOM      3  N   UNL     1      10.591   6.914   6.638  0.00  0.00    -0.287 NA
ATOM     10  C   UNL     1      10.048   5.821   5.807  0.00  0.00    +0.146 C 
ATOM     11  C   UNL     1       8.527   6.059   5.791  0.00  0.00    +0.030 C 
ATOM     12  C   UNL     1       8.304   7.268   6.689  0.00  0.00    +0.017 C 
ATOM     13  C   UNL     1       9.531   7.283   7.578  0.00  0.00    +0.085 C 
BRANCH   3  17
ATOM     17  C   UNL     1      11.828   6.557   7.319  0.00  0.00    +0.121 C 
BRANCH  17  22
ATOM      9  N   UNL     1      13.753   9.743   6.626  0.00  0.00    -0.263 NA
ATOM     22  C   UNL     1      12.957   7.483   6.952  0.00  0.00    -0.015 A 
ATOM     27  C   UNL     1      14.208   6.984   6.604  0.00  0.00    +0.008 A 
ATOM     28  C   UNL     1      12.783   8.857   6.948  0.00  0.00    +0.115 A 
ATOM     31  C   UNL     1      15.231   7.864   6.267  0.00  0.00    +0.020 A 
ATOM     32  C   UNL     1      14.956   9.221   6.294  0.00  0.00    +0.111 A 
ENDBRANCH  17  22
ENDBRANCH   3  17
ENDBRANCH  20  10
TORSDOF 5
ENDMDL
MODEL 6
REMARK VINA RESULT:      -7.9     31.857     35.757
REMARK  Name = 45783326
REMARK  5 active torsions:
REMARK  status: ('A' for Active; 'I' for Inactive)
REMARK    1  A    between atoms: N_3  and  C_17
REMARK    2  A    between atoms: C_10  and  C_20
REMARK    3  A    between atoms: C_14  and  C_23
REMARK    4  A    between atoms: C_17  and  C_22
REMARK    5  A    between atoms: C_24  and  C_26
REMARK                            x       y       z     vdW  Elec       q    Type
REMARK                         _______ _______ _______ _____ _____    ______ ____
ROOT
ATOM      1  O   UNL     1      20.603   6.974  23.069  0.00  0.00    -0.336 OA
ATOM      5  N   UNL     1      20.515   6.162  20.983  0.00  0.00    -0.190 NA
ATOM      6  N   UNL     1      19.260   7.048  22.679  0.00  0.00    -0.056 NA
ATOM     20  C   UNL     1      21.273   6.442  22.014  0.00  0.00    +0.245 A 
ATOM     24  C   UNL     1      19.289   6.551  21.438  0.00  0.00    +0.202 A 
ENDROOT
BRANCH  24  26
ATOM      4  N   UNL     1      14.566   7.276  20.750  0.00  0.00    -0.315 N 
ATOM      7  N   UNL     1      15.814   6.201  19.049  0.00  0.00    -0.240 NA
ATOM     14  C   UNL     1      12.007   8.254  21.710  0.00  0.00    +0.078 C 
ATOM     15  C   UNL     1      12.223   6.791  21.328  0.00  0.00    +0.031 C 
ATOM     16  C   UNL     1      13.323   8.927  22.093  0.00  0.00    +0.031 C 
ATOM     18  C   UNL     1      13.340   6.603  20.302  0.00  0.00    +0.107 C 
ATOM     19  C   UNL     1      14.443   8.700  21.075  0.00  0.00    +0.107 C 
ATOM     21  C   UNL     1      15.784   6.781  20.270  0.00  0.00    +0.122 A 
ATOM     25  C   UNL     1      16.893   6.920  21.090  0.00  0.00    +0.055 A 
ATOM     26  C   UNL     1      18.110   6.431  20.627  0.00  0.00    +0.027 A 
ATOM     29  C   UNL     1      18.181   5.828  19.377  0.00  0.00    +0.031 A 
ATOM     30  C   UNL     1      17.015   5.738  18.633  0.00  0.00    +0.113 A 
BRANCH  14  23
ATOM      2  O   UNL     1      10.538   8.433  19.832  0.00  0.00    -0.276 OA
ATOM      8  N   UNL     1      11.648  10.324  20.529  0.00  0.00    -0.329 N 
ATOM     23  C   UNL     1      11.315   8.992  20.602  0.00  0.00    +0.214 C 
ATOM     33  H   UNL     1      11.238  10.922  19.818  0.00  0.00    +0.145 HD
ATOM     34  H   UNL     1      12.339  10.754  21.135  0.00  0.00    +0.145 HD
ENDBRANCH  14  23
ENDBRANCH  24  26
BRANCH  20  10
ATOM      3  N   UNL     1      23.211   4.892  21.835  0.00  0.00    -0.287 NA
ATOM     10  C   UNL     1      22.766   6.255  22.187  0.00  0.00    +0.146 C 
ATOM     11  C   UNL     1      23.590   7.184  21.276  0.00  0.00    +0.030 C 
ATOM     12  C   UNL     1      24.513   6.259  20.495  0.00  0.00    +0.017 C 
ATOM     13  C   UNL     1      24.590   5.018  21.361  0.00  0.00    +0.085 C 
BRANCH   3  17
ATOM     17  C   UNL     1      23.095   3.948  22.939  0.00  0.00    +0.121 C 
BRANCH  17  22
ATOM      9  N   UNL     1      25.446   1.028  23.464  0.00  0.00    -0.263 NA
ATOM     22  C   UNL     1      23.869   2.683  22.679  0.00  0.00    -0.015 A 
ATOM     27  C   UNL     1      23.753   2.009  21.467  0.00  0.00    +0.008 A 
ATOM     28  C   UNL     1      24.721   2.157  23.635  0.00  0.00    +0.115 A 
ATOM     31  C   UNL     1      24.483   0.845  21.255  0.00  0.00    +0.020 A 
ATOM     32  C   UNL     1      25.307   0.399  22.275  0.00  0.00    +0.111 A 
ENDBRANCH  17  22
ENDBRANCH   3  17
ENDBRANCH  20  10
TORSDOF 5
ENDMDL
MODEL 7
REMARK VINA RESULT:      -7.8     18.280     19.804
REMARK  Name = 45783326
REMARK  5 active torsions:
REMARK  status: ('A' for Active; 'I' for Inactive)
REMARK    1  A    between atoms: N_3  and  C_17
REMARK    2  A    between atoms: C_10  and  C_20
REMARK    3  A    between atoms: C_14  and  C_23
REMARK    4  A    between atoms: C_17  and  C_22
REMARK    5  A    between atoms: C_24  and  C_26
REMARK                            x       y       z     vdW  Elec       q    Type
REMARK                         _______ _______ _______ _____ _____    ______ ____
ROOT
ATOM      1  O   UNL     1      -4.706 -12.690  16.628  0.00  0.00    -0.336 OA
ATOM      5  N   UNL     1      -5.278 -10.596  16.071  0.00  0.00    -0.190 NA
ATOM      6  N   UNL     1      -5.979 -12.475  17.172  0.00  0.00    -0.056 NA
ATOM     20  C   UNL     1      -4.367 -11.535  15.997  0.00  0.00    +0.245 A 
ATOM     24  C   UNL     1      -6.247 -11.220  16.801  0.00  0.00    +0.202 A 
ENDROOT
BRANCH  24  26
ATOM      4  N   UNL     1     -10.615 -11.267  18.856  0.00  0.00    -0.315 N 
ATOM      7  N   UNL     1      -9.865  -9.276  17.818  0.00  0.00    -0.240 NA
ATOM     14  C   UNL     1     -12.707 -12.689  20.282  0.00  0.00    +0.078 C 
ATOM     15  C   UNL     1     -12.944 -12.064  18.908  0.00  0.00    +0.031 C 
ATOM     16  C   UNL     1     -11.228 -12.996  20.503  0.00  0.00    +0.031 C 
ATOM     18  C   UNL     1     -12.014 -10.885  18.622  0.00  0.00    +0.107 C 
ATOM     19  C   UNL     1     -10.306 -11.818  20.178  0.00  0.00    +0.107 C 
ATOM     21  C   UNL     1      -9.630 -10.564  18.153  0.00  0.00    +0.122 A 
ATOM     25  C   UNL     1      -8.463 -11.245  17.844  0.00  0.00    +0.055 A 
ATOM     26  C   UNL     1      -7.475 -10.560  17.145  0.00  0.00    +0.027 A 
ATOM     29  C   UNL     1      -7.680  -9.234  16.782  0.00  0.00    +0.031 A 
ATOM     30  C   UNL     1      -8.882  -8.643  17.139  0.00  0.00    +0.113 A 
BRANCH  14  23
ATOM      2  O   UNL     1     -13.877 -10.776  21.114  0.00  0.00    -0.276 OA
ATOM      8  N   UNL     1     -12.971 -12.246  22.636  0.00  0.00    -0.329 N 
ATOM     23  C   UNL     1     -13.253 -11.805  21.364  0.00  0.00    +0.214 C 
ATOM     33  H   UNL     1     -13.293 -11.727  23.446  0.00  0.00    +0.145 HD
ATOM     34  H   UNL     1     -12.402 -13.064  22.823  0.00  0.00    +0.145 HD
ENDBRANCH  14  23
ENDBRANCH  24  26
BRANCH  20  10
ATOM      3  N   UNL     1      -2.993 -10.628  14.131  0.00  0.00    -0.287 NA
ATOM     10  C   UNL     1      -3.015 -11.509  15.315  0.00  0.00    +0.146 C 
ATOM     11  C   UNL     1      -1.900 -10.966  16.228  0.00  0.00    +0.030 C 
ATOM     12  C   UNL     1      -1.269  -9.822  15.448  0.00  0.00    +0.017 C 
ATOM     13  C   UNL     1      -1.620 -10.136  14.007  0.00  0.00    +0.085 C 
BRANCH   3  17
ATOM     17  C   UNL     1      -3.450 -11.289  12.915  0.00  0.00    +0.121 C 
BRANCH  17  22
ATOM      9  N   UNL     1      -5.581  -8.723  11.124  0.00  0.00    -0.263 NA
ATOM     22  C   UNL     1      -3.910 -10.299  11.878  0.00  0.00    -0.015 A 
ATOM     27  C   UNL     1      -3.143 -10.040  10.746  0.00  0.00    +0.008 A 
ATOM     28  C   UNL     1      -5.109  -9.621  12.019  0.00  0.00    +0.115 A 
ATOM     31  C   UNL     1      -3.595  -9.122   9.804  0.00  0.00    +0.020 A 
ATOM     32  C   UNL     1      -4.808  -8.496  10.037  0.00  0.00    +0.111 A 
ENDBRANCH  17  22
ENDBRANCH   3  17
ENDBRANCH  20  10
TORSDOF 5
ENDMDL
MODEL 8
REMARK VINA RESULT:      -7.7     19.206     22.348
REMARK  Name = 45783326
REMARK  5 active torsions:
REMARK  status: ('A' for Active; 'I' for Inactive)
REMARK    1  A    between atoms: N_3  and  C_17
REMARK    2  A    between atoms: C_10  and  C_20
REMARK    3  A    between atoms: C_14  and  C_23
REMARK    4  A    between atoms: C_17  and  C_22
REMARK    5  A    between atoms: C_24  and  C_26
REMARK                            x       y       z     vdW  Elec       q    Type
REMARK                         _______ _______ _______ _____ _____    ______ ____
ROOT
ATOM      1  O   UNL     1      -3.449 -11.194  17.153  0.00  0.00    -0.336 OA
ATOM      5  N   UNL     1      -4.933 -10.423  15.661  0.00  0.00    -0.190 NA
ATOM      6  N   UNL     1      -2.784 -11.164  15.921  0.00  0.00    -0.056 NA
ATOM     20  C   UNL     1      -4.708 -10.742  16.912  0.00  0.00    +0.245 A 
ATOM     24  C   UNL     1      -3.724 -10.699  15.092  0.00  0.00    +0.202 A 
ENDROOT
BRANCH  24  26
ATOM      4  N   UNL     1      -5.363  -9.924  10.618  0.00  0.00    -0.315 N 
ATOM      7  N   UNL     1      -3.027 -10.108  10.961  0.00  0.00    -0.240 NA
ATOM     14  C   UNL     1      -7.582  -9.555   8.782  0.00  0.00    +0.078 C 
ATOM     15  C   UNL     1      -6.582 -10.698   8.624  0.00  0.00    +0.031 C 
ATOM     16  C   UNL     1      -7.640  -9.066  10.228  0.00  0.00    +0.031 C 
ATOM     18  C   UNL     1      -5.215 -10.381   9.230  0.00  0.00    +0.107 C 
ATOM     19  C   UNL     1      -6.263  -8.788  10.834  0.00  0.00    +0.107 C 
ATOM     21  C   UNL     1      -4.276 -10.116  11.479  0.00  0.00    +0.122 A 
ATOM     25  C   UNL     1      -4.557 -10.305  12.823  0.00  0.00    +0.055 A 
ATOM     26  C   UNL     1      -3.487 -10.499  13.690  0.00  0.00    +0.027 A 
ATOM     29  C   UNL     1      -2.189 -10.498  13.195  0.00  0.00    +0.031 A 
ATOM     30  C   UNL     1      -2.013 -10.300  11.835  0.00  0.00    +0.113 A 
BRANCH  14  23
ATOM      2  O   UNL     1      -7.487  -7.261   8.113  0.00  0.00    -0.276 OA
ATOM      8  N   UNL     1      -6.707  -8.856   6.648  0.00  0.00    -0.329 N 
ATOM     23  C   UNL     1      -7.257  -8.436   7.837  0.00  0.00    +0.214 C 
ATOM     33  H   UNL     1      -6.446  -8.185   5.933  0.00  0.00    +0.145 HD
ATOM     34  H   UNL     1      -6.583  -9.835   6.413  0.00  0.00    +0.145 HD
ENDBRANCH  14  23
ENDBRANCH  24  26
BRANCH  20  10
ATOM      3  N   UNL     1      -7.058 -10.550  17.707  0.00  0.00    -0.287 NA
ATOM     10  C   UNL     1      -5.642 -10.675  18.103  0.00  0.00    +0.146 C 
ATOM     11  C   UNL     1      -5.588 -11.947  18.970  0.00  0.00    +0.030 C 
ATOM     12  C   UNL     1      -7.029 -12.431  19.056  0.00  0.00    +0.017 C 
ATOM     13  C   UNL     1      -7.842 -11.184  18.768  0.00  0.00    +0.085 C 
BRANCH   3  17
ATOM     17  C   UNL     1      -7.468  -9.172  17.471  0.00  0.00    +0.121 C 
BRANCH  17  22
ATOM      9  N   UNL     1     -10.191  -9.530  14.866  0.00  0.00    -0.263 NA
ATOM     22  C   UNL     1      -8.817  -9.094  16.806  0.00  0.00    -0.015 A 
ATOM     27  C   UNL     1      -9.908  -8.535  17.463  0.00  0.00    +0.008 A 
ATOM     28  C   UNL     1      -9.009  -9.573  15.520  0.00  0.00    +0.115 A 
ATOM     31  C   UNL     1     -11.141  -8.475  16.822  0.00  0.00    +0.020 A 
ATOM     32  C   UNL     1     -11.230  -8.982  15.536  0.00  0.00    +0.111 A 
ENDBRANCH  17  22
ENDBRANCH   3  17
ENDBRANCH  20  10
TORSDOF 5
ENDMDL
MODEL 9
REMARK VINA RESULT:      -7.5     32.216     38.006
REMARK  Name = 45783326
REMARK  5 active torsions:
REMARK  status: ('A' for Active; 'I' for Inactive)
REMARK    1  A    between atoms: N_3  and  C_17
REMARK    2  A    between atoms: C_10  and  C_20
REMARK    3  A    between atoms: C_14  and  C_23
REMARK    4  A    between atoms: C_17  and  C_22
REMARK    5  A    between atoms: C_24  and  C_26
REMARK                            x       y       z     vdW  Elec       q    Type
REMARK                         _______ _______ _______ _____ _____    ______ ____
ROOT
ATOM      1  O   UNL     1      13.015   6.563   6.697  0.00  0.00    -0.336 OA
ATOM      5  N   UNL     1      13.028   8.736   6.150  0.00  0.00    -0.190 NA
ATOM      6  N   UNL     1      14.360   6.954   6.682  0.00  0.00    -0.056 NA
ATOM     20  C   UNL     1      12.298   7.671   6.372  0.00  0.00    +0.245 A 
ATOM     24  C   UNL     1      14.285   8.247   6.351  0.00  0.00    +0.202 A 
ENDROOT
BRANCH  24  26
ATOM      4  N   UNL     1      19.018   8.753   5.547  0.00  0.00    -0.315 N 
ATOM      7  N   UNL     1      17.715  10.690   5.942  0.00  0.00    -0.240 NA
ATOM     14  C   UNL     1      21.619   7.574   5.020  0.00  0.00    +0.078 C 
ATOM     15  C   UNL     1      21.353   8.430   6.257  0.00  0.00    +0.031 C 
ATOM     16  C   UNL     1      20.328   6.954   4.489  0.00  0.00    +0.031 C 
ATOM     18  C   UNL     1      20.217   9.432   6.054  0.00  0.00    +0.107 C 
ATOM     19  C   UNL     1      19.189   7.962   4.325  0.00  0.00    +0.107 C 
ATOM     21  C   UNL     1      17.779   9.346   5.818  0.00  0.00    +0.122 A 
ATOM     25  C   UNL     1      16.686   8.502   5.943  0.00  0.00    +0.055 A 
ATOM     26  C   UNL     1      15.449   9.076   6.214  0.00  0.00    +0.027 A 
ATOM     29  C   UNL     1      15.343  10.456   6.348  0.00  0.00    +0.031 A 
ATOM     30  C   UNL     1      16.496  11.212   6.206  0.00  0.00    +0.113 A 
BRANCH  14  23
ATOM      2  O   UNL     1      22.017   8.295   2.775  0.00  0.00    -0.276 OA
ATOM      8  N   UNL     1      23.321   9.182   4.451  0.00  0.00    -0.329 N 
ATOM     23  C   UNL     1      22.318   8.377   3.963  0.00  0.00    +0.214 C 
ATOM     33  H   UNL     1      23.861   9.772   3.826  0.00  0.00    +0.145 HD
ATOM     34  H   UNL     1      23.597   9.190   5.427  0.00  0.00    +0.145 HD
ENDBRANCH  14  23
ENDBRANCH  24  26
BRANCH  20  10
ATOM      3  N   UNL     1      10.375   6.328   5.541  0.00  0.00    -0.287 NA
ATOM     10  C   UNL     1      10.793   7.510   6.321  0.00  0.00    +0.146 C 
ATOM     11  C   UNL     1      10.171   7.299   7.714  0.00  0.00    +0.030 C 
ATOM     12  C   UNL     1       9.373   6.007   7.602  0.00  0.00    +0.017 C 
ATOM     13  C   UNL     1       9.106   5.881   6.116  0.00  0.00    +0.085 C 
BRANCH   3  17
ATOM     17  C   UNL     1      10.267   6.594   4.112  0.00  0.00    +0.121 C 
BRANCH  17  22
ATOM      9  N   UNL     1      13.230   5.411   2.074  0.00  0.00    -0.263 NA
ATOM     22  C   UNL     1      11.169   5.698   3.305  0.00  0.00    -0.015 A 
ATOM     27  C   UNL     1      10.815   4.381   3.035  0.00  0.00    +0.008 A 
ATOM     28  C   UNL     1      12.376   6.161   2.807  0.00  0.00    +0.115 A 
ATOM     31  C   UNL     1      11.667   3.579   2.285  0.00  0.00    +0.020 A 
ATOM     32  C   UNL     1      12.853   4.135   1.833  0.00  0.00    +0.111 A 
ENDBRANCH  17  22
ENDBRANCH   3  17
ENDBRANCH  20  10
TORSDOF 5
ENDMDL
MODEL 10
REMARK VINA RESULT:      -7.4     31.468     37.280
REMARK  Name = 45783326
REMARK  5 active torsions:
REMARK  status: ('A' for Active; 'I' for Inactive)
REMARK    1  A    between atoms: N_3  and  C_17
REMARK    2  A    between atoms: C_10  and  C_20
REMARK    3  A    between atoms: C_14  and  C_23
REMARK    4  A    between atoms: C_17  and  C_22
REMARK    5  A    between atoms: C_24  and  C_26
REMARK                            x       y       z     vdW  Elec       q    Type
REMARK                         _______ _______ _______ _____ _____    ______ ____
ROOT
ATOM      1  O   UNL     1      13.031   6.288   2.852  0.00  0.00    -0.336 OA
ATOM      5  N   UNL     1      12.626   7.738   4.512  0.00  0.00    -0.190 NA
ATOM      6  N   UNL     1      14.271   6.838   3.200  0.00  0.00    -0.056 NA
ATOM     20  C   UNL     1      12.117   6.872   3.672  0.00  0.00    +0.245 A 
ATOM     24  C   UNL     1      13.950   7.683   4.185  0.00  0.00    +0.202 A 
ENDROOT
BRANCH  24  26
ATOM      4  N   UNL     1      18.518   8.533   5.491  0.00  0.00    -0.315 N 
ATOM      7  N   UNL     1      16.836  10.053   6.175  0.00  0.00    -0.240 NA
ATOM     14  C   UNL     1      21.315   7.754   5.507  0.00  0.00    +0.078 C 
ATOM     15  C   UNL     1      20.516   7.929   6.797  0.00  0.00    +0.031 C 
ATOM     16  C   UNL     1      20.399   7.447   4.325  0.00  0.00    +0.031 C 
ATOM     18  C   UNL     1      19.348   8.903   6.645  0.00  0.00    +0.107 C 
ATOM     19  C   UNL     1      19.214   8.408   4.207  0.00  0.00    +0.107 C 
ATOM     21  C   UNL     1      17.174   8.923   5.513  0.00  0.00    +0.122 A 
ATOM     25  C   UNL     1      16.268   8.113   4.847  0.00  0.00    +0.055 A 
ATOM     26  C   UNL     1      14.928   8.487   4.861  0.00  0.00    +0.027 A 
ATOM     29  C   UNL     1      14.541   9.642   5.531  0.00  0.00    +0.031 A 
ATOM     30  C   UNL     1      15.525  10.383   6.167  0.00  0.00    +0.113 A 
BRANCH  14  23
ATOM      2  O   UNL     1      22.436   9.773   6.128  0.00  0.00    -0.276 OA
ATOM      8  N   UNL     1      22.582   9.075   3.940  0.00  0.00    -0.329 N 
ATOM     23  C   UNL     1      22.165   8.962   5.245  0.00  0.00    +0.214 C 
ATOM     33  H   UNL     1      23.164   9.854   3.648  0.00  0.00    +0.145 HD
ATOM     34  H   UNL     1      22.297   8.430   3.211  0.00  0.00    +0.145 HD
ENDBRANCH  14  23
ENDBRANCH  24  26
BRANCH  20  10
ATOM      3  N   UNL     1       9.952   6.338   4.777  0.00  0.00    -0.287 NA
ATOM     10  C   UNL     1      10.677   6.439   3.494  0.00  0.00    +0.146 C 
ATOM     11  C   UNL     1       9.856   7.437   2.658  0.00  0.00    +0.030 C 
ATOM     12  C   UNL     1       8.659   7.795   3.527  0.00  0.00    +0.017 C 
ATOM     13  C   UNL     1       8.547   6.622   4.481  0.00  0.00    +0.085 C 
BRANCH   3  17
ATOM     17  C   UNL     1      10.124   5.049   5.433  0.00  0.00    +0.121 C 
BRANCH  17  22
ATOM      9  N   UNL     1       9.646   4.003   9.040  0.00  0.00    -0.263 NA
ATOM     22  C   UNL     1       9.821   5.125   6.906  0.00  0.00    -0.015 A 
ATOM     27  C   UNL     1       9.442   6.326   7.498  0.00  0.00    +0.008 A 
ATOM     28  C   UNL     1       9.907   4.003   7.713  0.00  0.00    +0.115 A 
ATOM     31  C   UNL     1       9.165   6.365   8.860  0.00  0.00    +0.020 A 
ATOM     32  C   UNL     1       9.281   5.187   9.580  0.00  0.00    +0.111 A 
ENDBRANCH  17  22
ENDBRANCH   3  17
ENDBRANCH  20  10
TORSDOF 5
ENDMDL
