MODEL 1
REMARK VINA RESULT:      -7.4      0.000      0.000
REMARK  Name = 38029438
REMARK  10 active torsions:
REMARK  status: ('A' for Active; 'I' for Inactive)
REMARK    1  A    between atoms: S_1  and  N_5
REMARK    2  A    between atoms: S_1  and  C_21
REMARK    3  A    between atoms: N_5  and  C_15
REMARK    4  A    between atoms: C_8  and  C_12
REMARK    5  A    between atoms: C_9  and  C_15
REMARK    6  A    between atoms: C_11  and  C_16
REMARK    7  A    between atoms: C_12  and  C_17
REMARK    8  A    between atoms: C_12  and  C_18
REMARK    9  A    between atoms: C_13  and  C_19
REMARK   10  A    between atoms: C_16  and  C_20
REMARK                            x       y       z     vdW  Elec       q    Type
REMARK                         _______ _______ _______ _____ _____    ______ ____
ROOT
ATOM      8  C   UNL     1      16.522   8.925  21.677  0.00  0.00    +0.000 C 
ATOM      9  C   UNL     1      15.509   8.043  20.907  0.00  0.00    +0.030 C 
ATOM     10  C   UNL     1      17.835   9.046  20.887  0.00  0.00    +0.012 C 
ATOM     11  C   UNL     1      18.484   7.675  20.623  0.00  0.00    +0.023 C 
ATOM     13  C   UNL     1      17.478   6.665  20.111  0.00  0.00    -0.073 C 
ATOM     14  C   UNL     1      16.151   6.853  20.235  0.00  0.00    -0.023 C 
ATOM     19  C   UNL     1      18.030   5.453  19.411  0.00  0.00    +0.039 C 
ENDROOT
BRANCH   8  12
ATOM     12  C   UNL     1      15.959  10.321  21.964  0.00  0.00    -0.013 C 
ATOM     17  C   UNL     1      15.438  10.958  20.679  0.00  0.00    +0.007 C 
ATOM     18  C   UNL     1      17.022  11.201  22.611  0.00  0.00    +0.007 C 
ENDBRANCH   8  12
BRANCH   9  15
ATOM     15  C   UNL     1      14.383   7.561  21.831  0.00  0.00    +0.113 C 
BRANCH  15   5
ATOM      5  N   UNL     1      13.620   6.528  21.204  0.00  0.00    -0.189 NA
ATOM     32  H   UNL     1      14.136   5.737  20.799  0.00  0.00    +0.148 HD
BRANCH   5   1
ATOM      1  S   UNL     1      12.049   6.836  20.561  0.00  0.00    +0.058 S 
ATOM      3  O   UNL     1      11.111   5.912  21.172  0.00  0.00    -0.153 OA
ATOM      4  O   UNL     1      12.111   6.963  19.117  0.00  0.00    -0.153 OA
BRANCH   1  21
ATOM     21  C   UNL     1      11.724   8.450  21.207  0.00  0.00    +0.105 A 
ATOM     23  C   UNL     1      12.062   9.580  20.463  0.00  0.00    +0.028 A 
ATOM     24  C   UNL     1      11.130   8.592  22.461  0.00  0.00    +0.028 A 
ATOM     26  C   UNL     1      11.807  10.852  20.973  0.00  0.00    +0.002 A 
ATOM     27  C   UNL     1      10.875   9.865  22.971  0.00  0.00    +0.002 A 
ATOM     28  C   UNL     1      11.214  10.995  22.228  0.00  0.00    +0.000 A 
ENDBRANCH   1  21
ENDBRANCH   5   1
ENDBRANCH  15   5
ENDBRANCH   9  15
BRANCH  11  16
ATOM     16  C   UNL     1      19.199   7.151  21.873  0.00  0.00    +0.104 C 
BRANCH  16  20
ATOM      2  O   UNL     1      21.247   6.991  20.614  0.00  0.00    -0.275 OA
ATOM      6  N   UNL     1      20.905   5.598  22.473  0.00  0.00    -0.270 N 
ATOM      7  N   UNL     1      22.226   3.909  23.502  0.00  0.00    -0.240 NA
ATOM     20  C   UNL     1      20.572   6.590  21.556  0.00  0.00    +0.219 C 
ATOM     22  C   UNL     1      22.094   4.832  22.523  0.00  0.00    +0.125 A 
ATOM     25  C   UNL     1      23.055   5.081  21.556  0.00  0.00    +0.044 A 
ATOM     29  C   UNL     1      24.227   4.334  21.596  0.00  0.00    +0.005 A 
ATOM     30  C   UNL     1      23.378   3.202  23.509  0.00  0.00    +0.113 A 
ATOM     31  C   UNL     1      24.399   3.375  22.588  0.00  0.00    +0.020 A 
ATOM     33  H   UNL     1      20.245   5.370  23.213  0.00  0.00    +0.156 HD
ENDBRANCH  16  20
ENDBRANCH  11  16
TORSDOF 7
ENDMDL
MODEL 2
REMARK VINA RESULT:      -7.3      1.968      2.458
REMARK  Name = 38029438
REMARK  10 active torsions:
REMARK  status: ('A' for Active; 'I' for Inactive)
REMARK    1  A    between atoms: S_1  and  N_5
REMARK    2  A    between atoms: S_1  and  C_21
REMARK    3  A    between atoms: N_5  and  C_15
REMARK    4  A    between atoms: C_8  and  C_12
REMARK    5  A    between atoms: C_9  and  C_15
REMARK    6  A    between atoms: C_11  and  C_16
REMARK    7  A    between atoms: C_12  and  C_17
REMARK    8  A    between atoms: C_12  and  C_18
REMARK    9  A    between atoms: C_13  and  C_19
REMARK   10  A    between atoms: C_16  and  C_20
REMARK                            x       y       z     vdW  Elec       q    Type
REMARK                         _______ _______ _______ _____ _____    ______ ____
ROOT
ATOM      8  C   UNL     1      16.763   8.315  21.063  0.00  0.00    +0.000 C 
ATOM      9  C   UNL     1      16.205   7.378  19.964  0.00  0.00    +0.030 C 
ATOM     10  C   UNL     1      18.280   8.496  20.893  0.00  0.00    +0.012 C 
ATOM     11  C   UNL     1      19.037   7.157  20.962  0.00  0.00    +0.023 C 
ATOM     13  C   UNL     1      18.382   6.095  20.103  0.00  0.00    -0.073 C 
ATOM     14  C   UNL     1      17.120   6.217  19.655  0.00  0.00    -0.023 C 
ATOM     19  C   UNL     1      19.228   4.908  19.731  0.00  0.00    +0.039 C 
ENDROOT
BRANCH   8  12
ATOM     12  C   UNL     1      16.073   9.683  21.050  0.00  0.00    -0.013 C 
ATOM     17  C   UNL     1      17.082  10.784  20.742  0.00  0.00    +0.007 C 
ATOM     18  C   UNL     1      15.380   9.942  22.383  0.00  0.00    +0.007 C 
ENDBRANCH   8  12
BRANCH   9  15
ATOM     15  C   UNL     1      14.817   6.847  20.343  0.00  0.00    +0.113 C 
BRANCH  15   5
ATOM      5  N   UNL     1      14.044   6.566  19.174  0.00  0.00    -0.189 NA
ATOM     32  H   UNL     1      14.549   6.245  18.339  0.00  0.00    +0.148 HD
BRANCH   5   1
ATOM      1  S   UNL     1      12.510   7.310  18.911  0.00  0.00    +0.058 S 
ATOM      3  O   UNL     1      11.647   6.997  20.035  0.00  0.00    -0.153 OA
ATOM      4  O   UNL     1      12.058   7.066  17.554  0.00  0.00    -0.153 OA
BRANCH   1  21
ATOM     21  C   UNL     1      12.937   9.023  19.012  0.00  0.00    +0.105 A 
ATOM     23  C   UNL     1      13.780   9.589  18.056  0.00  0.00    +0.028 A 
ATOM     24  C   UNL     1      12.431   9.807  20.049  0.00  0.00    +0.028 A 
ATOM     26  C   UNL     1      14.118  10.939  18.138  0.00  0.00    +0.002 A 
ATOM     27  C   UNL     1      12.768  11.158  20.129  0.00  0.00    +0.002 A 
ATOM     28  C   UNL     1      13.613  11.724  19.174  0.00  0.00    +0.000 A 
ENDBRANCH   1  21
ENDBRANCH   5   1
ENDBRANCH  15   5
ENDBRANCH   9  15
BRANCH  11  16
ATOM     16  C   UNL     1      19.183   6.678  22.410  0.00  0.00    +0.104 C 
BRANCH  16  20
ATOM      2  O   UNL     1      20.970   6.232  23.963  0.00  0.00    -0.275 OA
ATOM      6  N   UNL     1      21.466   6.754  21.728  0.00  0.00    -0.270 N 
ATOM      7  N   UNL     1      23.507   6.965  20.524  0.00  0.00    -0.240 NA
ATOM     20  C   UNL     1      20.635   6.522  22.820  0.00  0.00    +0.219 C 
ATOM     22  C   UNL     1      22.880   6.707  21.694  0.00  0.00    +0.125 A 
ATOM     25  C   UNL     1      23.537   6.395  22.874  0.00  0.00    +0.044 A 
ATOM     29  C   UNL     1      24.927   6.347  22.851  0.00  0.00    +0.005 A 
ATOM     30  C   UNL     1      24.857   6.909  20.541  0.00  0.00    +0.113 A 
ATOM     31  C   UNL     1      25.606   6.607  21.667  0.00  0.00    +0.020 A 
ATOM     33  H   UNL     1      21.046   6.981  20.830  0.00  0.00    +0.156 HD
ENDBRANCH  16  20
ENDBRANCH  11  16
TORSDOF 7
ENDMDL
MODEL 3
REMARK VINA RESULT:      -7.1     19.449     22.190
REMARK  Name = 38029438
REMARK  10 active torsions:
REMARK  status: ('A' for Active; 'I' for Inactive)
REMARK    1  A    between atoms: S_1  and  N_5
REMARK    2  A    between atoms: S_1  and  C_21
REMARK    3  A    between atoms: N_5  and  C_15
REMARK    4  A    between atoms: C_8  and  C_12
REMARK    5  A    between atoms: C_9  and  C_15
REMARK    6  A    between atoms: C_11  and  C_16
REMARK    7  A    between atoms: C_12  and  C_17
REMARK    8  A    between atoms: C_12  and  C_18
REMARK    9  A    between atoms: C_13  and  C_19
REMARK   10  A    between atoms: C_16  and  C_20
REMARK                            x       y       z     vdW  Elec       q    Type
REMARK                         _______ _______ _______ _____ _____    ______ ____
ROOT
ATOM      8  C   UNL     1      10.183   6.824  -0.860  0.00  0.00    +0.000 C 
ATOM      9  C   UNL     1      11.645   7.213  -1.192  0.00  0.00    +0.030 C 
ATOM     10  C   UNL     1       9.794   7.344   0.534  0.00  0.00    +0.012 C 
ATOM     11  C   UNL     1      10.711   6.788   1.639  0.00  0.00    +0.023 C 
ATOM     13  C   UNL     1      12.175   6.894   1.263  0.00  0.00    -0.073 C 
ATOM     14  C   UNL     1      12.573   7.097  -0.006  0.00  0.00    -0.023 C 
ATOM     19  C   UNL     1      13.171   6.805   2.386  0.00  0.00    +0.039 C 
ENDROOT
BRANCH   8  12
ATOM     12  C   UNL     1       9.199   7.358  -1.906  0.00  0.00    -0.013 C 
ATOM     17  C   UNL     1       8.346   8.474  -1.312  0.00  0.00    +0.007 C 
ATOM     18  C   UNL     1       8.322   6.230  -2.435  0.00  0.00    +0.007 C 
ENDBRANCH   8  12
BRANCH   9  15
ATOM     15  C   UNL     1      12.191   6.371  -2.352  0.00  0.00    +0.113 C 
BRANCH  15   5
ATOM      5  N   UNL     1      11.740   5.019  -2.254  0.00  0.00    -0.189 NA
ATOM     32  H   UNL     1      10.885   4.844  -1.710  0.00  0.00    +0.148 HD
BRANCH   5   1
ATOM      1  S   UNL     1      12.828   3.694  -2.432  0.00  0.00    +0.058 S 
ATOM      3  O   UNL     1      13.826   4.046  -3.425  0.00  0.00    -0.153 OA
ATOM      4  O   UNL     1      12.092   2.449  -2.549  0.00  0.00    -0.153 OA
BRANCH   1  21
ATOM     21  C   UNL     1      13.616   3.681  -0.849  0.00  0.00    +0.105 A 
ATOM     23  C   UNL     1      12.905   3.271   0.280  0.00  0.00    +0.028 A 
ATOM     24  C   UNL     1      14.946   4.081  -0.729  0.00  0.00    +0.028 A 
ATOM     26  C   UNL     1      13.526   3.263   1.528  0.00  0.00    +0.002 A 
ATOM     27  C   UNL     1      15.567   4.072   0.521  0.00  0.00    +0.002 A 
ATOM     28  C   UNL     1      14.857   3.663   1.650  0.00  0.00    +0.000 A 
ENDBRANCH   1  21
ENDBRANCH   5   1
ENDBRANCH  15   5
ENDBRANCH   9  15
BRANCH  11  16
ATOM     16  C   UNL     1      10.338   5.345   1.993  0.00  0.00    +0.104 C 
BRANCH  16  20
ATOM      2  O   UNL     1      10.831   4.114   4.005  0.00  0.00    -0.275 OA
ATOM      6  N   UNL     1       9.677   6.155   4.136  0.00  0.00    -0.270 N 
ATOM      7  N   UNL     1       8.798   7.409   5.955  0.00  0.00    -0.240 NA
ATOM     20  C   UNL     1      10.326   5.106   3.491  0.00  0.00    +0.219 C 
ATOM     22  C   UNL     1       9.455   6.309   5.525  0.00  0.00    +0.125 A 
ATOM     25  C   UNL     1       9.931   5.313   6.362  0.00  0.00    +0.044 A 
ATOM     29  C   UNL     1       9.718   5.455   7.729  0.00  0.00    +0.005 A 
ATOM     30  C   UNL     1       8.609   7.513   7.289  0.00  0.00    +0.113 A 
ATOM     31  C   UNL     1       9.046   6.573   8.209  0.00  0.00    +0.020 A 
ATOM     33  H   UNL     1       9.308   6.922   3.579  0.00  0.00    +0.156 HD
ENDBRANCH  16  20
ENDBRANCH  11  16
TORSDOF 7
ENDMDL
MODEL 4
REMARK VINA RESULT:      -7.0     15.841     18.429
REMARK  Name = 38029438
REMARK  10 active torsions:
REMARK  status: ('A' for Active; 'I' for Inactive)
REMARK    1  A    between atoms: S_1  and  N_5
REMARK    2  A    between atoms: S_1  and  C_21
REMARK    3  A    between atoms: N_5  and  C_15
REMARK    4  A    between atoms: C_8  and  C_12
REMARK    5  A    between atoms: C_9  and  C_15
REMARK    6  A    between atoms: C_11  and  C_16
REMARK    7  A    between atoms: C_12  and  C_17
REMARK    8  A    between atoms: C_12  and  C_18
REMARK    9  A    between atoms: C_13  and  C_19
REMARK   10  A    between atoms: C_16  and  C_20
REMARK                            x       y       z     vdW  Elec       q    Type
REMARK                         _______ _______ _______ _____ _____    ______ ____
ROOT
ATOM      8  C   UNL     1       8.998   8.564   5.457  0.00  0.00    +0.000 C 
ATOM      9  C   UNL     1       8.663   8.454   6.965  0.00  0.00    +0.030 C 
ATOM     10  C   UNL     1       8.708   7.234   4.745  0.00  0.00    +0.012 C 
ATOM     11  C   UNL     1       9.516   6.066   5.341  0.00  0.00    +0.023 C 
ATOM     13  C   UNL     1       9.453   6.051   6.854  0.00  0.00    -0.073 C 
ATOM     14  C   UNL     1       9.056   7.124   7.563  0.00  0.00    -0.023 C 
ATOM     19  C   UNL     1       9.812   4.759   7.534  0.00  0.00    +0.039 C 
ENDROOT
BRANCH   8  12
ATOM     12  C   UNL     1       8.216   9.696   4.781  0.00  0.00    -0.013 C 
ATOM     17  C   UNL     1       7.097   9.125   3.916  0.00  0.00    +0.007 C 
ATOM     18  C   UNL     1       9.152  10.567   3.951  0.00  0.00    +0.007 C 
ENDBRANCH   8  12
BRANCH   9  15
ATOM     15  C   UNL     1       9.323   9.586   7.762  0.00  0.00    +0.113 C 
BRANCH  15   5
ATOM      5  N   UNL     1      10.721   9.342   7.928  0.00  0.00    -0.189 NA
ATOM     32  H   UNL     1      11.000   8.647   8.632  0.00  0.00    +0.148 HD
BRANCH   5   1
ATOM      1  S   UNL     1      11.897  10.532   7.509  0.00  0.00    +0.058 S 
ATOM      3  O   UNL     1      12.297  11.231   8.717  0.00  0.00    -0.153 OA
ATOM      4  O   UNL     1      11.466  11.279   6.343  0.00  0.00    -0.153 OA
BRANCH   1  21
ATOM     21  C   UNL     1      13.249   9.513   6.997  0.00  0.00    +0.105 A 
ATOM     23  C   UNL     1      13.113   8.125   6.993  0.00  0.00    +0.028 A 
ATOM     24  C   UNL     1      14.451  10.098   6.598  0.00  0.00    +0.028 A 
ATOM     26  C   UNL     1      14.179   7.322   6.591  0.00  0.00    +0.002 A 
ATOM     27  C   UNL     1      15.517   9.294   6.196  0.00  0.00    +0.002 A 
ATOM     28  C   UNL     1      15.382   7.905   6.192  0.00  0.00    +0.000 A 
ENDBRANCH   1  21
ENDBRANCH   5   1
ENDBRANCH  15   5
ENDBRANCH   9  15
BRANCH  11  16
ATOM     16  C   UNL     1      10.968   6.094   4.853  0.00  0.00    +0.104 C 
BRANCH  16  20
ATOM      2  O   UNL     1      10.335   4.442   3.217  0.00  0.00    -0.275 OA
ATOM      6  N   UNL     1      12.411   5.526   3.042  0.00  0.00    -0.270 N 
ATOM      7  N   UNL     1      14.202   5.362   1.485  0.00  0.00    -0.240 NA
ATOM     20  C   UNL     1      11.174   5.245   3.613  0.00  0.00    +0.219 C 
ATOM     22  C   UNL     1      12.977   4.949   1.880  0.00  0.00    +0.125 A 
ATOM     25  C   UNL     1      12.229   3.990   1.214  0.00  0.00    +0.044 A 
ATOM     29  C   UNL     1      12.777   3.417   0.072  0.00  0.00    +0.005 A 
ATOM     30  C   UNL     1      14.701   4.782   0.371  0.00  0.00    +0.113 A 
ATOM     31  C   UNL     1      14.035   3.816  -0.365  0.00  0.00    +0.020 A 
ATOM     33  H   UNL     1      13.007   6.225   3.478  0.00  0.00    +0.156 HD
ENDBRANCH  16  20
ENDBRANCH  11  16
TORSDOF 7
ENDMDL
MODEL 5
REMARK VINA RESULT:      -6.8     27.590     30.615
REMARK  Name = 38029438
REMARK  10 active torsions:
REMARK  status: ('A' for Active; 'I' for Inactive)
REMARK    1  A    between atoms: S_1  and  N_5
REMARK    2  A    between atoms: S_1  and  C_21
REMARK    3  A    between atoms: N_5  and  C_15
REMARK    4  A    between atoms: C_8  and  C_12
REMARK    5  A    between atoms: C_9  and  C_15
REMARK    6  A    between atoms: C_11  and  C_16
REMARK    7  A    between atoms: C_12  and  C_17
REMARK    8  A    between atoms: C_12  and  C_18
REMARK    9  A    between atoms: C_13  and  C_19
REMARK   10  A    between atoms: C_16  and  C_20
REMARK                            x       y       z     vdW  Elec       q    Type
REMARK                         _______ _______ _______ _____ _____    ______ ____
ROOT
ATOM      8  C   UNL     1      -3.797 -10.442  11.426  0.00  0.00    +0.000 C 
ATOM      9  C   UNL     1      -4.935  -9.808  12.264  0.00  0.00    +0.030 C 
ATOM     10  C   UNL     1      -3.729  -9.791  10.036  0.00  0.00    +0.012 C 
ATOM     11  C   UNL     1      -5.050  -9.939   9.258  0.00  0.00    +0.023 C 
ATOM     13  C   UNL     1      -6.250  -9.585  10.112  0.00  0.00    -0.073 C 
ATOM     14  C   UNL     1      -6.176  -9.518  11.454  0.00  0.00    -0.023 C 
ATOM     19  C   UNL     1      -7.527  -9.264   9.386  0.00  0.00    +0.039 C 
ENDROOT
BRANCH   8  12
ATOM     12  C   UNL     1      -2.439 -10.319  12.124  0.00  0.00    -0.013 C 
ATOM     17  C   UNL     1      -1.467  -9.525  11.258  0.00  0.00    +0.007 C 
ATOM     18  C   UNL     1      -1.877 -11.700  12.442  0.00  0.00    +0.007 C 
ENDBRANCH   8  12
BRANCH   9  15
ATOM     15  C   UNL     1      -5.301 -10.695  13.460  0.00  0.00    +0.113 C 
BRANCH  15   5
ATOM      5  N   UNL     1      -4.779 -10.153  14.674  0.00  0.00    -0.189 NA
ATOM     32  H   UNL     1      -4.649  -9.134  14.720  0.00  0.00    +0.148 HD
BRANCH   5   1
ATOM      1  S   UNL     1      -3.813 -11.104  15.740  0.00  0.00    +0.058 S 
ATOM      3  O   UNL     1      -2.557 -10.412  15.965  0.00  0.00    -0.153 OA
ATOM      4  O   UNL     1      -3.815 -12.492  15.321  0.00  0.00    -0.153 OA
BRANCH   1  21
ATOM     21  C   UNL     1      -4.758 -11.014  17.232  0.00  0.00    +0.105 A 
ATOM     23  C   UNL     1      -4.319 -11.678  18.377  0.00  0.00    +0.028 A 
ATOM     24  C   UNL     1      -5.944 -10.280  17.262  0.00  0.00    +0.028 A 
ATOM     26  C   UNL     1      -5.066 -11.608  19.552  0.00  0.00    +0.002 A 
ATOM     27  C   UNL     1      -6.691 -10.210  18.439  0.00  0.00    +0.002 A 
ATOM     28  C   UNL     1      -6.252 -10.875  19.584  0.00  0.00    +0.000 A 
ENDBRANCH   1  21
ENDBRANCH   5   1
ENDBRANCH  15   5
ENDBRANCH   9  15
BRANCH  11  16
ATOM     16  C   UNL     1      -5.191 -11.348   8.671  0.00  0.00    +0.104 C 
BRANCH  16  20
ATOM      2  O   UNL     1      -5.234 -10.602   6.381  0.00  0.00    -0.275 OA
ATOM      6  N   UNL     1      -3.925 -12.456   6.982  0.00  0.00    -0.270 N 
ATOM      7  N   UNL     1      -2.499 -13.905   5.748  0.00  0.00    -0.240 NA
ATOM     20  C   UNL     1      -4.804 -11.401   7.206  0.00  0.00    +0.219 C 
ATOM     22  C   UNL     1      -3.334 -12.842   5.756  0.00  0.00    +0.125 A 
ATOM     25  C   UNL     1      -3.651 -12.097   4.631  0.00  0.00    +0.044 A 
ATOM     29  C   UNL     1      -3.076 -12.469   3.421  0.00  0.00    +0.005 A 
ATOM     30  C   UNL     1      -1.959 -14.237   4.555  0.00  0.00    +0.113 A 
ATOM     31  C   UNL     1      -2.212 -13.557   3.374  0.00  0.00    +0.020 A 
ATOM     33  H   UNL     1      -3.646 -13.039   7.768  0.00  0.00    +0.156 HD
ENDBRANCH  16  20
ENDBRANCH  11  16
TORSDOF 7
ENDMDL
MODEL 6
REMARK VINA RESULT:      -6.8      2.735      3.243
REMARK  Name = 38029438
REMARK  10 active torsions:
REMARK  status: ('A' for Active; 'I' for Inactive)
REMARK    1  A    between atoms: S_1  and  N_5
REMARK    2  A    between atoms: S_1  and  C_21
REMARK    3  A    between atoms: N_5  and  C_15
REMARK    4  A    between atoms: C_8  and  C_12
REMARK    5  A    between atoms: C_9  and  C_15
REMARK    6  A    between atoms: C_11  and  C_16
REMARK    7  A    between atoms: C_12  and  C_17
REMARK    8  A    between atoms: C_12  and  C_18
REMARK    9  A    between atoms: C_13  and  C_19
REMARK   10  A    between atoms: C_16  and  C_20
REMARK                            x       y       z     vdW  Elec       q    Type
REMARK                         _______ _______ _______ _____ _____    ______ ____
ROOT
ATOM      8  C   UNL     1      17.059   8.515  21.500  0.00  0.00    +0.000 C 
ATOM      9  C   UNL     1      16.331   7.773  20.352  0.00  0.00    +0.030 C 
ATOM     10  C   UNL     1      18.573   8.556  21.236  0.00  0.00    +0.012 C 
ATOM     11  C   UNL     1      19.179   7.147  21.104  0.00  0.00    +0.023 C 
ATOM     13  C   UNL     1      18.357   6.263  20.188  0.00  0.00    -0.073 C 
ATOM     14  C   UNL     1      17.090   6.566  19.853  0.00  0.00    -0.023 C 
ATOM     19  C   UNL     1      19.040   5.046  19.630  0.00  0.00    +0.039 C 
ENDROOT
BRANCH   8  12
ATOM     12  C   UNL     1      16.526   9.940  21.685  0.00  0.00    -0.013 C 
ATOM     17  C   UNL     1      15.185   9.915  22.412  0.00  0.00    +0.007 C 
ATOM     18  C   UNL     1      16.398  10.639  20.336  0.00  0.00    +0.007 C 
ENDBRANCH   8  12
BRANCH   9  15
ATOM     15  C   UNL     1      14.920   7.349  20.776  0.00  0.00    +0.113 C 
BRANCH  15   5
ATOM      5  N   UNL     1      14.225   6.738  19.687  0.00  0.00    -0.189 NA
ATOM     32  H   UNL     1      14.790   6.383  18.905  0.00  0.00    +0.148 HD
BRANCH   5   1
ATOM      1  S   UNL     1      12.581   7.125  19.340  0.00  0.00    +0.058 S 
ATOM      3  O   UNL     1      11.733   6.432  20.292  0.00  0.00    -0.153 OA
ATOM      4  O   UNL     1      12.325   7.008  17.916  0.00  0.00    -0.153 OA
BRANCH   1  21
ATOM     21  C   UNL     1      12.544   8.849  19.731  0.00  0.00    +0.105 A 
ATOM     23  C   UNL     1      13.177   9.767  18.893  0.00  0.00    +0.028 A 
ATOM     24  C   UNL     1      11.883   9.290  20.877  0.00  0.00    +0.028 A 
ATOM     26  C   UNL     1      13.149  11.126  19.202  0.00  0.00    +0.002 A 
ATOM     27  C   UNL     1      11.855  10.650  21.186  0.00  0.00    +0.002 A 
ATOM     28  C   UNL     1      12.489  11.568  20.349  0.00  0.00    +0.000 A 
ENDBRANCH   1  21
ENDBRANCH   5   1
ENDBRANCH  15   5
ENDBRANCH   9  15
BRANCH  11  16
ATOM     16  C   UNL     1      19.363   6.493  22.478  0.00  0.00    +0.104 C 
BRANCH  16  20
ATOM      2  O   UNL     1      21.502   7.536  22.856  0.00  0.00    -0.275 OA
ATOM      6  N   UNL     1      19.951   7.378  24.612  0.00  0.00    -0.270 N 
ATOM      7  N   UNL     1      19.999   8.069  26.887  0.00  0.00    -0.240 NA
ATOM     20  C   UNL     1      20.415   7.197  23.313  0.00  0.00    +0.219 C 
ATOM     22  C   UNL     1      20.627   7.991  25.693  0.00  0.00    +0.125 A 
ATOM     25  C   UNL     1      21.903   8.477  25.455  0.00  0.00    +0.044 A 
ATOM     29  C   UNL     1      22.577   9.080  26.511  0.00  0.00    +0.005 A 
ATOM     30  C   UNL     1      20.684   8.662  27.890  0.00  0.00    +0.113 A 
ATOM     31  C   UNL     1      21.963   9.179  27.754  0.00  0.00    +0.020 A 
ATOM     33  H   UNL     1      19.018   7.049  24.852  0.00  0.00    +0.156 HD
ENDBRANCH  16  20
ENDBRANCH  11  16
TORSDOF 7
ENDMDL
MODEL 7
REMARK VINA RESULT:      -6.8     17.188     19.623
REMARK  Name = 38029438
REMARK  10 active torsions:
REMARK  status: ('A' for Active; 'I' for Inactive)
REMARK    1  A    between atoms: S_1  and  N_5
REMARK    2  A    between atoms: S_1  and  C_21
REMARK    3  A    between atoms: N_5  and  C_15
REMARK    4  A    between atoms: C_8  and  C_12
REMARK    5  A    between atoms: C_9  and  C_15
REMARK    6  A    between atoms: C_11  and  C_16
REMARK    7  A    between atoms: C_12  and  C_17
REMARK    8  A    between atoms: C_12  and  C_18
REMARK    9  A    between atoms: C_13  and  C_19
REMARK   10  A    between atoms: C_16  and  C_20
REMARK                            x       y       z     vdW  Elec       q    Type
REMARK                         _______ _______ _______ _____ _____    ______ ____
ROOT
ATOM      8  C   UNL     1      14.130   7.966   2.716  0.00  0.00    +0.000 C 
ATOM      9  C   UNL     1      15.453   7.964   1.912  0.00  0.00    +0.030 C 
ATOM     10  C   UNL     1      14.207   8.977   3.871  0.00  0.00    +0.012 C 
ATOM     11  C   UNL     1      15.365   8.670   4.838  0.00  0.00    +0.023 C 
ATOM     13  C   UNL     1      16.657   8.389   4.098  0.00  0.00    -0.073 C 
ATOM     14  C   UNL     1      16.678   8.088   2.787  0.00  0.00    -0.023 C 
ATOM     19  C   UNL     1      17.930   8.506   4.890  0.00  0.00    +0.039 C 
ENDROOT
BRANCH   8  12
ATOM     12  C   UNL     1      12.923   8.286   1.827  0.00  0.00    -0.013 C 
ATOM     17  C   UNL     1      12.913   9.765   1.457  0.00  0.00    +0.007 C 
ATOM     18  C   UNL     1      11.627   7.894   2.528  0.00  0.00    +0.007 C 
ENDBRANCH   8  12
BRANCH   9  15
ATOM     15  C   UNL     1      15.571   6.704   1.046  0.00  0.00    +0.113 C 
BRANCH  15   5
ATOM      5  N   UNL     1      15.251   5.535   1.803  0.00  0.00    -0.189 NA
ATOM     32  H   UNL     1      15.710   5.422   2.716  0.00  0.00    +0.148 HD
BRANCH   5   1
ATOM      1  S   UNL     1      14.686   4.096   1.040  0.00  0.00    +0.058 S 
ATOM      3  O   UNL     1      14.914   2.978   1.936  0.00  0.00    -0.153 OA
ATOM      4  O   UNL     1      15.153   4.036  -0.333  0.00  0.00    -0.153 OA
BRANCH   1  21
ATOM     21  C   UNL     1      12.945   4.400   0.979  0.00  0.00    +0.105 A 
ATOM     23  C   UNL     1      12.124   3.956   2.015  0.00  0.00    +0.028 A 
ATOM     24  C   UNL     1      12.394   5.083  -0.105  0.00  0.00    +0.028 A 
ATOM     26  C   UNL     1      10.751   4.195   1.966  0.00  0.00    +0.002 A 
ATOM     27  C   UNL     1      11.021   5.322  -0.153  0.00  0.00    +0.002 A 
ATOM     28  C   UNL     1      10.198   4.877   0.882  0.00  0.00    +0.000 A 
ENDBRANCH   1  21
ENDBRANCH   5   1
ENDBRANCH  15   5
ENDBRANCH   9  15
BRANCH  11  16
ATOM     16  C   UNL     1      15.009   7.513   5.778  0.00  0.00    +0.104 C 
BRANCH  16  20
ATOM      2  O   UNL     1      13.290   8.473   7.167  0.00  0.00    -0.275 OA
ATOM      6  N   UNL     1      12.776   6.678   5.743  0.00  0.00    -0.270 N 
ATOM      7  N   UNL     1      10.772   5.473   5.309  0.00  0.00    -0.240 NA
ATOM     20  C   UNL     1      13.601   7.634   6.328  0.00  0.00    +0.219 C 
ATOM     22  C   UNL     1      11.399   6.461   5.986  0.00  0.00    +0.125 A 
ATOM     25  C   UNL     1      10.775   7.286   6.909  0.00  0.00    +0.044 A 
ATOM     29  C   UNL     1       9.422   7.081   7.155  0.00  0.00    +0.005 A 
ATOM     30  C   UNL     1       9.457   5.304   5.574  0.00  0.00    +0.113 A 
ATOM     31  C   UNL     1       8.744   6.073   6.478  0.00  0.00    +0.020 A 
ATOM     33  H   UNL     1      13.170   6.045   5.052  0.00  0.00    +0.156 HD
ENDBRANCH  16  20
ENDBRANCH  11  16
TORSDOF 7
ENDMDL
MODEL 8
REMARK VINA RESULT:      -6.6      2.524      3.478
REMARK  Name = 38029438
REMARK  10 active torsions:
REMARK  status: ('A' for Active; 'I' for Inactive)
REMARK    1  A    between atoms: S_1  and  N_5
REMARK    2  A    between atoms: S_1  and  C_21
REMARK    3  A    between atoms: N_5  and  C_15
REMARK    4  A    between atoms: C_8  and  C_12
REMARK    5  A    between atoms: C_9  and  C_15
REMARK    6  A    between atoms: C_11  and  C_16
REMARK    7  A    between atoms: C_12  and  C_17
REMARK    8  A    between atoms: C_12  and  C_18
REMARK    9  A    between atoms: C_13  and  C_19
REMARK   10  A    between atoms: C_16  and  C_20
REMARK                            x       y       z     vdW  Elec       q    Type
REMARK                         _______ _______ _______ _____ _____    ______ ____
ROOT
ATOM      8  C   UNL     1      17.164   7.719  20.478  0.00  0.00    +0.000 C 
ATOM      9  C   UNL     1      17.208   8.994  21.356  0.00  0.00    +0.030 C 
ATOM     10  C   UNL     1      17.735   6.518  21.250  0.00  0.00    +0.012 C 
ATOM     11  C   UNL     1      19.189   6.752  21.699  0.00  0.00    +0.023 C 
ATOM     13  C   UNL     1      19.369   8.114  22.338  0.00  0.00    -0.073 C 
ATOM     14  C   UNL     1      18.466   9.100  22.185  0.00  0.00    -0.023 C 
ATOM     19  C   UNL     1      20.589   8.303  23.197  0.00  0.00    +0.039 C 
ENDROOT
BRANCH   8  12
ATOM     12  C   UNL     1      15.742   7.403  20.004  0.00  0.00    -0.013 C 
ATOM     17  C   UNL     1      14.966   6.677  21.098  0.00  0.00    +0.007 C 
ATOM     18  C   UNL     1      15.780   6.573  18.726  0.00  0.00    +0.007 C 
ENDBRANCH   8  12
BRANCH   9  15
ATOM     15  C   UNL     1      17.052  10.259  20.502  0.00  0.00    +0.113 C 
BRANCH  15   5
ATOM      5  N   UNL     1      15.817  10.917  20.790  0.00  0.00    -0.189 NA
ATOM     32  H   UNL     1      15.493  10.909  21.765  0.00  0.00    +0.148 HD
BRANCH   5   1
ATOM      1  S   UNL     1      14.611  11.135  19.577  0.00  0.00    +0.058 S 
ATOM      3  O   UNL     1      15.115  10.604  18.324  0.00  0.00    -0.153 OA
ATOM      4  O   UNL     1      14.076  12.483  19.634  0.00  0.00    -0.153 OA
BRANCH   1  21
ATOM     21  C   UNL     1      13.340  10.051  20.157  0.00  0.00    +0.105 A 
ATOM     23  C   UNL     1      12.522   9.385  19.244  0.00  0.00    +0.028 A 
ATOM     24  C   UNL     1      13.157   9.862  21.527  0.00  0.00    +0.028 A 
ATOM     26  C   UNL     1      11.519   8.532  19.702  0.00  0.00    +0.002 A 
ATOM     27  C   UNL     1      12.154   9.007  21.984  0.00  0.00    +0.002 A 
ATOM     28  C   UNL     1      11.334   8.342  21.072  0.00  0.00    +0.000 A 
ENDBRANCH   1  21
ENDBRANCH   5   1
ENDBRANCH  15   5
ENDBRANCH   9  15
BRANCH  11  16
ATOM     16  C   UNL     1      20.165   6.561  20.533  0.00  0.00    +0.104 C 
BRANCH  16  20
ATOM      2  O   UNL     1      20.274   4.159  20.371  0.00  0.00    -0.275 OA
ATOM      6  N   UNL     1      22.207   5.385  20.894  0.00  0.00    -0.270 N 
ATOM      7  N   UNL     1      24.456   4.755  21.343  0.00  0.00    -0.240 NA
ATOM     20  C   UNL     1      20.862   5.214  20.583  0.00  0.00    +0.219 C 
ATOM     22  C   UNL     1      23.195   4.381  21.036  0.00  0.00    +0.125 A 
ATOM     25  C   UNL     1      22.800   3.066  20.846  0.00  0.00    +0.044 A 
ATOM     29  C   UNL     1      23.763   2.072  20.983  0.00  0.00    +0.005 A 
ATOM     30  C   UNL     1      25.365   3.762  21.468  0.00  0.00    +0.113 A 
ATOM     31  C   UNL     1      25.071   2.419  21.299  0.00  0.00    +0.020 A 
ATOM     33  H   UNL     1      22.563   6.327  21.040  0.00  0.00    +0.156 HD
ENDBRANCH  16  20
ENDBRANCH  11  16
TORSDOF 7
ENDMDL
MODEL 9
REMARK VINA RESULT:      -6.6     28.599     31.728
REMARK  Name = 38029438
REMARK  10 active torsions:
REMARK  status: ('A' for Active; 'I' for Inactive)
REMARK    1  A    between atoms: S_1  and  N_5
REMARK    2  A    between atoms: S_1  and  C_21
REMARK    3  A    between atoms: N_5  and  C_15
REMARK    4  A    between atoms: C_8  and  C_12
REMARK    5  A    between atoms: C_9  and  C_15
REMARK    6  A    between atoms: C_11  and  C_16
REMARK    7  A    between atoms: C_12  and  C_17
REMARK    8  A    between atoms: C_12  and  C_18
REMARK    9  A    between atoms: C_13  and  C_19
REMARK   10  A    between atoms: C_16  and  C_20
REMARK                            x       y       z     vdW  Elec       q    Type
REMARK                         _______ _______ _______ _____ _____    ______ ____
ROOT
ATOM      8  C   UNL     1      -5.917 -11.388  15.321  0.00  0.00    +0.000 C 
ATOM      9  C   UNL     1      -4.520 -11.582  15.961  0.00  0.00    +0.030 C 
ATOM     10  C   UNL     1      -6.693 -10.282  16.054  0.00  0.00    +0.012 C 
ATOM     11  C   UNL     1      -6.881 -10.596  17.550  0.00  0.00    +0.023 C 
ATOM     13  C   UNL     1      -5.590 -11.058  18.195  0.00  0.00    -0.073 C 
ATOM     14  C   UNL     1      -4.541 -11.483  17.468  0.00  0.00    -0.023 C 
ATOM     19  C   UNL     1      -5.515 -10.977  19.695  0.00  0.00    +0.039 C 
ENDROOT
BRANCH   8  12
ATOM     12  C   UNL     1      -5.818 -11.051  13.829  0.00  0.00    -0.013 C 
ATOM     17  C   UNL     1      -6.350  -9.646  13.566  0.00  0.00    +0.007 C 
ATOM     18  C   UNL     1      -6.577 -12.081  13.000  0.00  0.00    +0.007 C 
ENDBRANCH   8  12
BRANCH   9  15
ATOM     15  C   UNL     1      -3.905 -12.925  15.546  0.00  0.00    +0.113 C 
BRANCH  15   5
ATOM      5  N   UNL     1      -2.593 -12.738  15.011  0.00  0.00    -0.189 NA
ATOM     32  H   UNL     1      -2.105 -11.866  15.250  0.00  0.00    +0.148 HD
BRANCH   5   1
ATOM      1  S   UNL     1      -2.090 -13.534  13.566  0.00  0.00    +0.058 S 
ATOM      3  O   UNL     1      -2.858 -14.758  13.423  0.00  0.00    -0.153 OA
ATOM      4  O   UNL     1      -0.642 -13.568  13.487  0.00  0.00    -0.153 OA
BRANCH   1  21
ATOM     21  C   UNL     1      -2.647 -12.394  12.335  0.00  0.00    +0.105 A 
ATOM     23  C   UNL     1      -3.411 -12.848  11.259  0.00  0.00    +0.028 A 
ATOM     24  C   UNL     1      -2.322 -11.042  12.438  0.00  0.00    +0.028 A 
ATOM     26  C   UNL     1      -3.849 -11.949  10.287  0.00  0.00    +0.002 A 
ATOM     27  C   UNL     1      -2.761 -10.143  11.466  0.00  0.00    +0.002 A 
ATOM     28  C   UNL     1      -3.523 -10.596  10.390  0.00  0.00    +0.000 A 
ENDBRANCH   1  21
ENDBRANCH   5   1
ENDBRANCH  15   5
ENDBRANCH   9  15
BRANCH  11  16
ATOM     16  C   UNL     1      -7.998 -11.622  17.763  0.00  0.00    +0.104 C 
BRANCH  16  20
ATOM      2  O   UNL     1      -8.783 -10.987  19.951  0.00  0.00    -0.275 OA
ATOM      6  N   UNL     1     -10.250 -10.925  18.119  0.00  0.00    -0.270 N 
ATOM      7  N   UNL     1     -12.541 -10.327  17.893  0.00  0.00    -0.240 NA
ATOM     20  C   UNL     1      -9.035 -11.143  18.761  0.00  0.00    +0.219 C 
ATOM     22  C   UNL     1     -11.463 -10.477  18.694  0.00  0.00    +0.125 A 
ATOM     25  C   UNL     1     -11.466 -10.216  20.056  0.00  0.00    +0.044 A 
ATOM     29  C   UNL     1     -12.652  -9.776  20.631  0.00  0.00    +0.005 A 
ATOM     30  C   UNL     1     -13.676  -9.897  18.487  0.00  0.00    +0.113 A 
ATOM     31  C   UNL     1     -13.782  -9.610  19.839  0.00  0.00    +0.020 A 
ATOM     33  H   UNL     1     -10.314 -11.092  17.117  0.00  0.00    +0.156 HD
ENDBRANCH  16  20
ENDBRANCH  11  16
TORSDOF 7
ENDMDL
MODEL 10
REMARK VINA RESULT:      -6.5     28.286     31.028
REMARK  Name = 38029438
REMARK  10 active torsions:
REMARK  status: ('A' for Active; 'I' for Inactive)
REMARK    1  A    between atoms: S_1  and  N_5
REMARK    2  A    between atoms: S_1  and  C_21
REMARK    3  A    between atoms: N_5  and  C_15
REMARK    4  A    between atoms: C_8  and  C_12
REMARK    5  A    between atoms: C_9  and  C_15
REMARK    6  A    between atoms: C_11  and  C_16
REMARK    7  A    between atoms: C_12  and  C_17
REMARK    8  A    between atoms: C_12  and  C_18
REMARK    9  A    between atoms: C_13  and  C_19
REMARK   10  A    between atoms: C_16  and  C_20
REMARK                            x       y       z     vdW  Elec       q    Type
REMARK                         _______ _______ _______ _____ _____    ______ ____
ROOT
ATOM      8  C   UNL     1      -6.383 -10.015   9.904  0.00  0.00    +0.000 C 
ATOM      9  C   UNL     1      -5.551  -9.311   8.804  0.00  0.00    +0.030 C 
ATOM     10  C   UNL     1      -5.959  -9.519  11.296  0.00  0.00    +0.012 C 
ATOM     11  C   UNL     1      -4.467  -9.773  11.575  0.00  0.00    +0.023 C 
ATOM     13  C   UNL     1      -3.595  -9.347  10.411  0.00  0.00    -0.073 C 
ATOM     14  C   UNL     1      -4.100  -9.133   9.183  0.00  0.00    -0.023 C 
ATOM     19  C   UNL     1      -2.136  -9.129  10.702  0.00  0.00    +0.039 C 
ENDROOT
BRANCH   8  12
ATOM     12  C   UNL     1      -7.887  -9.793   9.710  0.00  0.00    -0.013 C 
ATOM     17  C   UNL     1      -8.502  -9.190  10.969  0.00  0.00    +0.007 C 
ATOM     18  C   UNL     1      -8.575 -11.104   9.347  0.00  0.00    +0.007 C 
ENDBRANCH   8  12
BRANCH   9  15
ATOM     15  C   UNL     1      -5.641 -10.069   7.474  0.00  0.00    +0.113 C 
BRANCH  15   5
ATOM      5  N   UNL     1      -6.013  -9.187   6.412  0.00  0.00    -0.189 NA
ATOM     32  H   UNL     1      -5.533  -8.280   6.361  0.00  0.00    +0.148 HD
BRANCH   5   1
ATOM      1  S   UNL     1      -7.563  -9.285   5.664  0.00  0.00    +0.058 S 
ATOM      3  O   UNL     1      -8.078 -10.631   5.841  0.00  0.00    -0.153 OA
ATOM      4  O   UNL     1      -7.525  -8.688   4.342  0.00  0.00    -0.153 OA
BRANCH   1  21
ATOM     21  C   UNL     1      -8.509  -8.201   6.692  0.00  0.00    +0.105 A 
ATOM     23  C   UNL     1      -7.913  -7.065   7.241  0.00  0.00    +0.028 A 
ATOM     24  C   UNL     1      -9.850  -8.481   6.954  0.00  0.00    +0.028 A 
ATOM     26  C   UNL     1      -8.659  -6.211   8.053  0.00  0.00    +0.002 A 
ATOM     27  C   UNL     1     -10.596  -7.626   7.766  0.00  0.00    +0.002 A 
ATOM     28  C   UNL     1     -10.000  -6.492   8.316  0.00  0.00    +0.000 A 
ENDBRANCH   1  21
ENDBRANCH   5   1
ENDBRANCH  15   5
ENDBRANCH   9  15
BRANCH  11  16
ATOM     16  C   UNL     1      -4.215 -11.239  11.941  0.00  0.00    +0.104 C 
BRANCH  16  20
ATOM      2  O   UNL     1      -2.823 -11.927  13.784  0.00  0.00    -0.275 OA
ATOM      6  N   UNL     1      -4.901 -10.916  14.202  0.00  0.00    -0.270 N 
ATOM      7  N   UNL     1      -6.063 -10.360  16.201  0.00  0.00    -0.240 NA
ATOM     20  C   UNL     1      -3.872 -11.414  13.408  0.00  0.00    +0.219 C 
ATOM     22  C   UNL     1      -4.967 -10.892  15.615  0.00  0.00    +0.125 A 
ATOM     25  C   UNL     1      -3.892 -11.418  16.314  0.00  0.00    +0.044 A 
ATOM     29  C   UNL     1      -3.947 -11.399  17.703  0.00  0.00    +0.005 A 
ATOM     30  C   UNL     1      -6.081 -10.359  17.552  0.00  0.00    +0.113 A 
ATOM     31  C   UNL     1      -5.059 -10.860  18.341  0.00  0.00    +0.020 A 
ATOM     33  H   UNL     1      -5.717 -10.510  13.750  0.00  0.00    +0.156 HD
ENDBRANCH  16  20
ENDBRANCH  11  16
TORSDOF 7
ENDMDL
