MODEL 1
REMARK VINA RESULT:      -7.5      0.000      0.000
REMARK  Name = 11867546
REMARK  9 active torsions:
REMARK  status: ('A' for Active; 'I' for Inactive)
REMARK    1  A    between atoms: O_3  and  C_17
REMARK    2  A    between atoms: O_3  and  C_21
REMARK    3  A    between atoms: N_4  and  C_12
REMARK    4  A    between atoms: N_4  and  C_16
REMARK    5  A    between atoms: N_5  and  C_13
REMARK    6  A    between atoms: N_9  and  C_27
REMARK    7  A    between atoms: N_9  and  C_30
REMARK    8  A    between atoms: N_9  and  C_31
REMARK    9  A    between atoms: C_16  and  C_18
REMARK                            x       y       z     vdW  Elec       q    Type
REMARK                         _______ _______ _______ _____ _____    ______ ____
ROOT
ATOM      1  O   UNL     1      13.787   9.811  20.738  0.00  0.00    -0.370 OA
ATOM      2  O   UNL     1      12.623   6.738  20.289  0.00  0.00    -0.370 OA
ATOM     10  C   UNL     1      13.842   7.488  20.243  0.00  0.00    +0.168 C 
ATOM     11  C   UNL     1      13.524   8.868  19.689  0.00  0.00    +0.175 C 
ATOM     12  C   UNL     1      14.364   7.740  21.649  0.00  0.00    +0.111 C 
ATOM     13  C   UNL     1      12.043   8.844  19.357  0.00  0.00    +0.171 C 
ATOM     14  C   UNL     1      14.737   9.206  21.619  0.00  0.00    +0.181 C 
ATOM     15  C   UNL     1      11.523   7.646  20.142  0.00  0.00    +0.190 C 
ENDROOT
BRANCH  13   5
ATOM      5  N   UNL     1      11.778   8.758  17.917  0.00  0.00    -0.187 N 
ATOM      6  N   UNL     1      10.573   8.405  17.461  0.00  0.00    -0.041 NA
ATOM      7  N   UNL     1      11.963   8.798  15.765  0.00  0.00    -0.071 NA
ATOM      8  N   UNL     1      10.691   8.430  16.140  0.00  0.00    -0.020 NA
ATOM     17  C   UNL     1      12.620   8.996  16.884  0.00  0.00    +0.342 A 
BRANCH  17   3
ATOM      3  O   UNL     1      13.882   9.363  17.004  0.00  0.00    -0.423 OA
BRANCH   3  21
ATOM     21  C   UNL     1      14.342  10.606  16.591  0.00  0.00    +0.134 A 
ATOM     25  C   UNL     1      15.072  10.696  15.421  0.00  0.00    +0.069 A 
ATOM     26  C   UNL     1      14.055  11.717  17.361  0.00  0.00    +0.046 A 
ATOM     27  C   UNL     1      15.532  11.946  15.005  0.00  0.00    +0.033 A 
ATOM     28  C   UNL     1      14.516  12.966  16.945  0.00  0.00    +0.005 A 
ATOM     29  C   UNL     1      15.254  13.080  15.767  0.00  0.00    +0.023 A 
BRANCH  27   9
ATOM      9  N   UNL     1      16.278  12.062  13.814  0.00  0.00    -0.336 N 
ATOM     30  C   UNL     1      15.654  11.812  12.529  0.00  0.00    +0.129 C 
ATOM     31  C   UNL     1      17.682  12.417  13.859  0.00  0.00    +0.129 C 
ENDBRANCH  27   9
ENDBRANCH   3  21
ENDBRANCH  17   3
ENDBRANCH  13   5
BRANCH  12   4
ATOM      4  N   UNL     1      15.474   6.900  21.999  0.00  0.00    -0.305 NA
ATOM     32  H   UNL     1      15.137   6.074  22.492  0.00  0.00    +0.123 HD
BRANCH   4  16
ATOM     16  C   UNL     1      16.211   6.499  20.811  0.00  0.00    +0.116 C 
BRANCH  16  18
ATOM     18  C   UNL     1      17.681   6.804  20.933  0.00  0.00    -0.034 A 
ATOM     19  C   UNL     1      18.607   5.932  20.381  0.00  0.00    +0.005 A 
ATOM     20  C   UNL     1      18.088   7.954  21.595  0.00  0.00    +0.005 A 
ATOM     22  C   UNL     1      19.968   6.213  20.493  0.00  0.00    +0.000 A 
ATOM     23  C   UNL     1      19.449   8.235  21.708  0.00  0.00    +0.000 A 
ATOM     24  C   UNL     1      20.390   7.365  21.157  0.00  0.00    +0.000 A 
ENDBRANCH  16  18
ENDBRANCH   4  16
ENDBRANCH  12   4
TORSDOF 7
ENDMDL
MODEL 2
REMARK VINA RESULT:      -7.5      3.461      5.181
REMARK  Name = 11867546
REMARK  9 active torsions:
REMARK  status: ('A' for Active; 'I' for Inactive)
REMARK    1  A    between atoms: O_3  and  C_17
REMARK    2  A    between atoms: O_3  and  C_21
REMARK    3  A    between atoms: N_4  and  C_12
REMARK    4  A    between atoms: N_4  and  C_16
REMARK    5  A    between atoms: N_5  and  C_13
REMARK    6  A    between atoms: N_9  and  C_27
REMARK    7  A    between atoms: N_9  and  C_30
REMARK    8  A    between atoms: N_9  and  C_31
REMARK    9  A    between atoms: C_16  and  C_18
REMARK                            x       y       z     vdW  Elec       q    Type
REMARK                         _______ _______ _______ _____ _____    ______ ____
ROOT
ATOM      1  O   UNL     1      16.200   9.418  20.973  0.00  0.00    -0.370 OA
ATOM      2  O   UNL     1      16.183   6.152  20.398  0.00  0.00    -0.370 OA
ATOM     10  C   UNL     1      16.908   7.340  20.063  0.00  0.00    +0.168 C 
ATOM     11  C   UNL     1      15.907   8.478  19.928  0.00  0.00    +0.175 C 
ATOM     12  C   UNL     1      17.816   7.751  21.212  0.00  0.00    +0.111 C 
ATOM     13  C   UNL     1      14.542   7.850  20.147  0.00  0.00    +0.171 C 
ATOM     14  C   UNL     1      17.574   9.239  21.327  0.00  0.00    +0.181 C 
ATOM     15  C   UNL     1      14.867   6.525  20.826  0.00  0.00    +0.190 C 
ENDROOT
BRANCH  13   5
ATOM      5  N   UNL     1      13.774   7.699  18.908  0.00  0.00    -0.187 N 
ATOM      6  N   UNL     1      14.362   7.834  17.715  0.00  0.00    -0.041 NA
ATOM      7  N   UNL     1      12.194   7.380  17.468  0.00  0.00    -0.071 NA
ATOM      8  N   UNL     1      13.389   7.637  16.835  0.00  0.00    -0.020 NA
ATOM     17  C   UNL     1      12.458   7.424  18.754  0.00  0.00    +0.342 A 
BRANCH  17   3
ATOM      3  O   UNL     1      11.602   7.236  19.741  0.00  0.00    -0.423 OA
BRANCH   3  21
ATOM     21  C   UNL     1      11.376   8.188  20.726  0.00  0.00    +0.134 A 
ATOM     25  C   UNL     1      11.664   9.512  20.458  0.00  0.00    +0.069 A 
ATOM     26  C   UNL     1      10.869   7.783  21.946  0.00  0.00    +0.046 A 
ATOM     27  C   UNL     1      11.435  10.468  21.448  0.00  0.00    +0.033 A 
ATOM     28  C   UNL     1      10.641   8.739  22.936  0.00  0.00    +0.005 A 
ATOM     29  C   UNL     1      10.924  10.081  22.686  0.00  0.00    +0.023 A 
BRANCH  27   9
ATOM      9  N   UNL     1      11.722  11.826  21.196  0.00  0.00    -0.336 N 
ATOM     30  C   UNL     1      12.769  12.195  20.264  0.00  0.00    +0.129 C 
ATOM     31  C   UNL     1      10.983  12.871  21.876  0.00  0.00    +0.129 C 
ENDBRANCH  27   9
ENDBRANCH   3  21
ENDBRANCH  17   3
ENDBRANCH  13   5
BRANCH  12   4
ATOM      4  N   UNL     1      19.198   7.438  20.978  0.00  0.00    -0.305 NA
ATOM     32  H   UNL     1      19.736   7.608  21.827  0.00  0.00    +0.123 HD
BRANCH   4  16
ATOM     16  C   UNL     1      19.350   6.051  20.567  0.00  0.00    +0.116 C 
BRANCH  16  18
ATOM     18  C   UNL     1      20.777   5.586  20.681  0.00  0.00    -0.034 A 
ATOM     19  C   UNL     1      21.808   6.506  20.563  0.00  0.00    +0.005 A 
ATOM     20  C   UNL     1      21.043   4.241  20.906  0.00  0.00    +0.005 A 
ATOM     22  C   UNL     1      23.130   6.077  20.669  0.00  0.00    +0.000 A 
ATOM     23  C   UNL     1      22.365   3.811  21.011  0.00  0.00    +0.000 A 
ATOM     24  C   UNL     1      23.409   4.728  20.893  0.00  0.00    +0.000 A 
ENDBRANCH  16  18
ENDBRANCH   4  16
ENDBRANCH  12   4
TORSDOF 7
ENDMDL
MODEL 3
REMARK VINA RESULT:      -7.4     26.940     29.340
REMARK  Name = 11867546
REMARK  9 active torsions:
REMARK  status: ('A' for Active; 'I' for Inactive)
REMARK    1  A    between atoms: O_3  and  C_17
REMARK    2  A    between atoms: O_3  and  C_21
REMARK    3  A    between atoms: N_4  and  C_12
REMARK    4  A    between atoms: N_4  and  C_16
REMARK    5  A    between atoms: N_5  and  C_13
REMARK    6  A    between atoms: N_9  and  C_27
REMARK    7  A    between atoms: N_9  and  C_30
REMARK    8  A    between atoms: N_9  and  C_31
REMARK    9  A    between atoms: C_16  and  C_18
REMARK                            x       y       z     vdW  Elec       q    Type
REMARK                         _______ _______ _______ _____ _____    ______ ____
ROOT
ATOM      1  O   UNL     1      -6.977 -10.661  14.748  0.00  0.00    -0.370 OA
ATOM      2  O   UNL     1      -5.806 -10.755  17.849  0.00  0.00    -0.370 OA
ATOM     10  C   UNL     1      -6.315  -9.836  16.875  0.00  0.00    +0.168 C 
ATOM     11  C   UNL     1      -5.820 -10.281  15.508  0.00  0.00    +0.175 C 
ATOM     12  C   UNL     1      -7.830  -9.932  16.795  0.00  0.00    +0.111 C 
ATOM     13  C   UNL     1      -4.936 -11.488  15.764  0.00  0.00    +0.171 C 
ATOM     14  C   UNL     1      -8.094  -9.964  15.306  0.00  0.00    +0.181 C 
ATOM     15  C   UNL     1      -5.333 -11.925  17.169  0.00  0.00    +0.190 C 
ENDROOT
BRANCH  13   5
ATOM      5  N   UNL     1      -3.506 -11.192  15.626  0.00  0.00    -0.187 N 
ATOM      6  N   UNL     1      -2.787 -10.781  16.675  0.00  0.00    -0.041 NA
ATOM      7  N   UNL     1      -1.507 -10.914  14.855  0.00  0.00    -0.071 NA
ATOM      8  N   UNL     1      -1.560 -10.611  16.196  0.00  0.00    -0.020 NA
ATOM     17  C   UNL     1      -2.726 -11.272  14.523  0.00  0.00    +0.342 A 
BRANCH  17   3
ATOM      3  O   UNL     1      -3.140 -11.647  13.327  0.00  0.00    -0.423 OA
BRANCH   3  21
ATOM     21  C   UNL     1      -3.356 -10.746  12.294  0.00  0.00    +0.134 A 
ATOM     25  C   UNL     1      -4.651 -10.365  11.995  0.00  0.00    +0.069 A 
ATOM     26  C   UNL     1      -2.270 -10.253  11.596  0.00  0.00    +0.046 A 
ATOM     27  C   UNL     1      -4.867  -9.458  10.958  0.00  0.00    +0.033 A 
ATOM     28  C   UNL     1      -2.487  -9.346  10.559  0.00  0.00    +0.005 A 
ATOM     29  C   UNL     1      -3.785  -8.949  10.241  0.00  0.00    +0.023 A 
BRANCH  27   9
ATOM      9  N   UNL     1      -6.179  -9.055  10.636  0.00  0.00    -0.336 N 
ATOM     30  C   UNL     1      -7.253  -9.214  11.597  0.00  0.00    +0.129 C 
ATOM     31  C   UNL     1      -6.476  -8.492   9.334  0.00  0.00    +0.129 C 
ENDBRANCH  27   9
ENDBRANCH   3  21
ENDBRANCH  17   3
ENDBRANCH  13   5
BRANCH  12   4
ATOM      4  N   UNL     1      -8.500  -8.842  17.446  0.00  0.00    -0.305 NA
ATOM     32  H   UNL     1      -8.478  -8.018  16.846  0.00  0.00    +0.123 HD
BRANCH   4  16
ATOM     16  C   UNL     1      -9.878  -9.192  17.751  0.00  0.00    +0.116 C 
BRANCH  16  18
ATOM     18  C   UNL     1     -10.855  -8.270  17.072  0.00  0.00    -0.034 A 
ATOM     19  C   UNL     1     -12.181  -8.657  16.939  0.00  0.00    +0.005 A 
ATOM     20  C   UNL     1     -10.417  -7.044  16.589  0.00  0.00    +0.005 A 
ATOM     22  C   UNL     1     -13.087  -7.803  16.310  0.00  0.00    +0.000 A 
ATOM     23  C   UNL     1     -11.322  -6.191  15.960  0.00  0.00    +0.000 A 
ATOM     24  C   UNL     1     -12.657  -6.569  15.820  0.00  0.00    +0.000 A 
ENDBRANCH  16  18
ENDBRANCH   4  16
ENDBRANCH  12   4
TORSDOF 7
ENDMDL
MODEL 4
REMARK VINA RESULT:      -7.3      2.936      4.796
REMARK  Name = 11867546
REMARK  9 active torsions:
REMARK  status: ('A' for Active; 'I' for Inactive)
REMARK    1  A    between atoms: O_3  and  C_17
REMARK    2  A    between atoms: O_3  and  C_21
REMARK    3  A    between atoms: N_4  and  C_12
REMARK    4  A    between atoms: N_4  and  C_16
REMARK    5  A    between atoms: N_5  and  C_13
REMARK    6  A    between atoms: N_9  and  C_27
REMARK    7  A    between atoms: N_9  and  C_30
REMARK    8  A    between atoms: N_9  and  C_31
REMARK    9  A    between atoms: C_16  and  C_18
REMARK                            x       y       z     vdW  Elec       q    Type
REMARK                         _______ _______ _______ _____ _____    ______ ____
ROOT
ATOM      1  O   UNL     1      16.359   8.974  20.684  0.00  0.00    -0.370 OA
ATOM      2  O   UNL     1      15.272   5.921  19.977  0.00  0.00    -0.370 OA
ATOM     10  C   UNL     1      16.272   6.868  19.586  0.00  0.00    +0.168 C 
ATOM     11  C   UNL     1      15.657   8.257  19.657  0.00  0.00    +0.175 C 
ATOM     12  C   UNL     1      17.407   6.890  20.598  0.00  0.00    +0.111 C 
ATOM     13  C   UNL     1      14.208   8.043  20.057  0.00  0.00    +0.171 C 
ATOM     14  C   UNL     1      17.647   8.368  20.814  0.00  0.00    +0.181 C 
ATOM     15  C   UNL     1      14.201   6.627  20.619  0.00  0.00    +0.190 C 
ENDROOT
BRANCH  13   5
ATOM      5  N   UNL     1      13.271   8.235  18.945  0.00  0.00    -0.187 N 
ATOM      6  N   UNL     1      12.528   7.221  18.492  0.00  0.00    -0.041 NA
ATOM      7  N   UNL     1      12.103   9.078  17.335  0.00  0.00    -0.071 NA
ATOM      8  N   UNL     1      11.812   7.743  17.504  0.00  0.00    -0.020 NA
ATOM     17  C   UNL     1      13.010   9.361  18.241  0.00  0.00    +0.342 A 
BRANCH  17   3
ATOM      3  O   UNL     1      13.583  10.533  18.445  0.00  0.00    -0.423 OA
BRANCH   3  21
ATOM     21  C   UNL     1      13.048  11.488  19.298  0.00  0.00    +0.134 A 
ATOM     25  C   UNL     1      12.414  11.075  20.454  0.00  0.00    +0.069 A 
ATOM     26  C   UNL     1      13.168  12.824  18.968  0.00  0.00    +0.046 A 
ATOM     27  C   UNL     1      11.878  12.035  21.312  0.00  0.00    +0.033 A 
ATOM     28  C   UNL     1      12.632  13.784  19.826  0.00  0.00    +0.005 A 
ATOM     29  C   UNL     1      11.987  13.389  20.998  0.00  0.00    +0.023 A 
BRANCH  27   9
ATOM      9  N   UNL     1      11.226  11.637  22.497  0.00  0.00    -0.336 N 
ATOM     30  C   UNL     1      10.861  10.249  22.703  0.00  0.00    +0.129 C 
ATOM     31  C   UNL     1      10.899  12.611  23.519  0.00  0.00    +0.129 C 
ENDBRANCH  27   9
ENDBRANCH   3  21
ENDBRANCH  17   3
ENDBRANCH  13   5
BRANCH  12   4
ATOM      4  N   UNL     1      18.584   6.206  20.141  0.00  0.00    -0.305 NA
ATOM     32  H   UNL     1      18.661   6.295  19.128  0.00  0.00    +0.123 HD
BRANCH   4  16
ATOM     16  C   UNL     1      19.775   6.748  20.776  0.00  0.00    +0.116 C 
BRANCH  16  18
ATOM     18  C   UNL     1      20.665   5.663  21.320  0.00  0.00    -0.034 A 
ATOM     19  C   UNL     1      20.854   4.502  20.585  0.00  0.00    +0.005 A 
ATOM     20  C   UNL     1      21.285   5.839  22.550  0.00  0.00    +0.005 A 
ATOM     22  C   UNL     1      21.678   3.496  21.087  0.00  0.00    +0.000 A 
ATOM     23  C   UNL     1      22.108   4.832  23.053  0.00  0.00    +0.000 A 
ATOM     24  C   UNL     1      22.306   3.661  22.323  0.00  0.00    +0.000 A 
ENDBRANCH  16  18
ENDBRANCH   4  16
ENDBRANCH  12   4
TORSDOF 7
ENDMDL
MODEL 5
REMARK VINA RESULT:      -7.1     26.905     29.456
REMARK  Name = 11867546
REMARK  9 active torsions:
REMARK  status: ('A' for Active; 'I' for Inactive)
REMARK    1  A    between atoms: O_3  and  C_17
REMARK    2  A    between atoms: O_3  and  C_21
REMARK    3  A    between atoms: N_4  and  C_12
REMARK    4  A    between atoms: N_4  and  C_16
REMARK    5  A    between atoms: N_5  and  C_13
REMARK    6  A    between atoms: N_9  and  C_27
REMARK    7  A    between atoms: N_9  and  C_30
REMARK    8  A    between atoms: N_9  and  C_31
REMARK    9  A    between atoms: C_16  and  C_18
REMARK                            x       y       z     vdW  Elec       q    Type
REMARK                         _______ _______ _______ _____ _____    ______ ____
ROOT
ATOM      1  O   UNL     1      -6.731 -11.046  15.031  0.00  0.00    -0.370 OA
ATOM      2  O   UNL     1      -5.058 -10.667  17.869  0.00  0.00    -0.370 OA
ATOM     10  C   UNL     1      -5.884  -9.937  16.955  0.00  0.00    +0.168 C 
ATOM     11  C   UNL     1      -5.553 -10.408  15.546  0.00  0.00    +0.175 C 
ATOM     12  C   UNL     1      -7.347 -10.299  17.155  0.00  0.00    +0.111 C 
ATOM     13  C   UNL     1      -4.430 -11.418  15.705  0.00  0.00    +0.171 C 
ATOM     14  C   UNL     1      -7.847 -10.506  15.743  0.00  0.00    +0.181 C 
ATOM     15  C   UNL     1      -4.498 -11.793  17.181  0.00  0.00    +0.190 C 
ENDROOT
BRANCH  13   5
ATOM      5  N   UNL     1      -3.124 -10.894  15.294  0.00  0.00    -0.187 N 
ATOM      6  N   UNL     1      -2.292 -10.350  16.187  0.00  0.00    -0.041 NA
ATOM      7  N   UNL     1      -1.388 -10.306  14.151  0.00  0.00    -0.071 NA
ATOM      8  N   UNL     1      -1.227  -9.990  15.481  0.00  0.00    -0.020 NA
ATOM     17  C   UNL     1      -2.572 -10.866  14.059  0.00  0.00    +0.342 A 
BRANCH  17   3
ATOM      3  O   UNL     1      -3.144 -11.327  12.962  0.00  0.00    -0.423 OA
BRANCH   3  21
ATOM     21  C   UNL     1      -3.634 -10.493  11.967  0.00  0.00    +0.134 A 
ATOM     25  C   UNL     1      -4.991 -10.235  11.916  0.00  0.00    +0.069 A 
ATOM     26  C   UNL     1      -2.750  -9.942  11.058  0.00  0.00    +0.046 A 
ATOM     27  C   UNL     1      -5.482  -9.395  10.916  0.00  0.00    +0.033 A 
ATOM     28  C   UNL     1      -3.243  -9.102  10.059  0.00  0.00    +0.005 A 
ATOM     29  C   UNL     1      -4.609  -8.829   9.989  0.00  0.00    +0.023 A 
BRANCH  27   9
ATOM      9  N   UNL     1      -6.863  -9.118  10.845  0.00  0.00    -0.336 N 
ATOM     30  C   UNL     1      -7.730  -9.409  11.970  0.00  0.00    +0.129 C 
ATOM     31  C   UNL     1      -7.437  -8.553   9.640  0.00  0.00    +0.129 C 
ENDBRANCH  27   9
ENDBRANCH   3  21
ENDBRANCH  17   3
ENDBRANCH  13   5
BRANCH  12   4
ATOM      4  N   UNL     1      -8.088  -9.288  17.856  0.00  0.00    -0.305 NA
ATOM     32  H   UNL     1      -7.527  -8.440  17.927  0.00  0.00    +0.123 HD
BRANCH   4  16
ATOM     16  C   UNL     1      -9.337  -8.997  17.170  0.00  0.00    +0.116 C 
BRANCH  16  18
ATOM     18  C   UNL     1     -10.534  -9.351  18.012  0.00  0.00    -0.034 A 
ATOM     19  C   UNL     1     -10.348  -9.973  19.238  0.00  0.00    +0.005 A 
ATOM     20  C   UNL     1     -11.808  -9.049  17.550  0.00  0.00    +0.005 A 
ATOM     22  C   UNL     1     -11.456 -10.301  20.018  0.00  0.00    +0.000 A 
ATOM     23  C   UNL     1     -12.916  -9.377  18.330  0.00  0.00    +0.000 A 
ATOM     24  C   UNL     1     -12.741 -10.003  19.564  0.00  0.00    +0.000 A 
ENDBRANCH  16  18
ENDBRANCH   4  16
ENDBRANCH  12   4
TORSDOF 7
ENDMDL
MODEL 6
REMARK VINA RESULT:      -7.0     27.199     30.355
REMARK  Name = 11867546
REMARK  9 active torsions:
REMARK  status: ('A' for Active; 'I' for Inactive)
REMARK    1  A    between atoms: O_3  and  C_17
REMARK    2  A    between atoms: O_3  and  C_21
REMARK    3  A    between atoms: N_4  and  C_12
REMARK    4  A    between atoms: N_4  and  C_16
REMARK    5  A    between atoms: N_5  and  C_13
REMARK    6  A    between atoms: N_9  and  C_27
REMARK    7  A    between atoms: N_9  and  C_30
REMARK    8  A    between atoms: N_9  and  C_31
REMARK    9  A    between atoms: C_16  and  C_18
REMARK                            x       y       z     vdW  Elec       q    Type
REMARK                         _______ _______ _______ _____ _____    ______ ____
ROOT
ATOM      1  O   UNL     1      -7.047  -9.516  16.901  0.00  0.00    -0.370 OA
ATOM      2  O   UNL     1      -5.193 -11.540  18.762  0.00  0.00    -0.370 OA
ATOM     10  C   UNL     1      -5.691 -11.394  17.427  0.00  0.00    +0.168 C 
ATOM     11  C   UNL     1      -7.094 -10.814  17.511  0.00  0.00    +0.175 C 
ATOM     12  C   UNL     1      -4.881 -10.355  16.668  0.00  0.00    +0.111 C 
ATOM     13  C   UNL     1      -7.399 -10.692  18.993  0.00  0.00    +0.171 C 
ATOM     14  C   UNL     1      -5.944  -9.519  15.991  0.00  0.00    +0.181 C 
ATOM     15  C   UNL     1      -6.024 -10.776  19.645  0.00  0.00    +0.190 C 
ENDROOT
BRANCH  13   5
ATOM      5  N   UNL     1      -8.337 -11.712  19.473  0.00  0.00    -0.187 N 
ATOM      6  N   UNL     1      -8.002 -13.006  19.471  0.00  0.00    -0.041 NA
ATOM      7  N   UNL     1     -10.066 -12.735  20.268  0.00  0.00    -0.071 NA
ATOM      8  N   UNL     1      -9.067 -13.630  19.961  0.00  0.00    -0.020 NA
ATOM     17  C   UNL     1      -9.590 -11.551  19.957  0.00  0.00    +0.342 A 
BRANCH  17   3
ATOM      3  O   UNL     1     -10.211 -10.393  20.086  0.00  0.00    -0.423 OA
BRANCH   3  21
ATOM     21  C   UNL     1     -11.040  -9.875  19.100  0.00  0.00    +0.134 A 
ATOM     25  C   UNL     1     -10.484  -9.125  18.082  0.00  0.00    +0.069 A 
ATOM     26  C   UNL     1     -12.397 -10.128  19.164  0.00  0.00    +0.046 A 
ATOM     27  C   UNL     1     -11.317  -8.606  17.091  0.00  0.00    +0.033 A 
ATOM     28  C   UNL     1     -13.229  -9.609  18.173  0.00  0.00    +0.005 A 
ATOM     29  C   UNL     1     -12.689  -8.849  17.136  0.00  0.00    +0.023 A 
BRANCH  27   9
ATOM      9  N   UNL     1     -10.772  -7.837  16.042  0.00  0.00    -0.336 N 
ATOM     30  C   UNL     1      -9.958  -8.464  15.019  0.00  0.00    +0.129 C 
ATOM     31  C   UNL     1     -11.005  -6.408  15.981  0.00  0.00    +0.129 C 
ENDBRANCH  27   9
ENDBRANCH   3  21
ENDBRANCH  17   3
ENDBRANCH  13   5
BRANCH  12   4
ATOM      4  N   UNL     1      -3.959 -10.932  15.730  0.00  0.00    -0.305 NA
ATOM     32  H   UNL     1      -3.531 -11.763  16.138  0.00  0.00    +0.123 HD
BRANCH   4  16
ATOM     16  C   UNL     1      -4.636 -11.284  14.492  0.00  0.00    +0.116 C 
BRANCH  16  18
ATOM     18  C   UNL     1      -3.895 -10.776  13.284  0.00  0.00    -0.034 A 
ATOM     19  C   UNL     1      -4.609 -10.266  12.210  0.00  0.00    +0.005 A 
ATOM     20  C   UNL     1      -2.508 -10.824  13.262  0.00  0.00    +0.005 A 
ATOM     22  C   UNL     1      -3.924  -9.795  11.090  0.00  0.00    +0.000 A 
ATOM     23  C   UNL     1      -1.823 -10.355  12.142  0.00  0.00    +0.000 A 
ATOM     24  C   UNL     1      -2.530  -9.840  11.056  0.00  0.00    +0.000 A 
ENDBRANCH  16  18
ENDBRANCH   4  16
ENDBRANCH  12   4
TORSDOF 7
ENDMDL
MODEL 7
REMARK VINA RESULT:      -7.0     27.176     29.978
REMARK  Name = 11867546
REMARK  9 active torsions:
REMARK  status: ('A' for Active; 'I' for Inactive)
REMARK    1  A    between atoms: O_3  and  C_17
REMARK    2  A    between atoms: O_3  and  C_21
REMARK    3  A    between atoms: N_4  and  C_12
REMARK    4  A    between atoms: N_4  and  C_16
REMARK    5  A    between atoms: N_5  and  C_13
REMARK    6  A    between atoms: N_9  and  C_27
REMARK    7  A    between atoms: N_9  and  C_30
REMARK    8  A    between atoms: N_9  and  C_31
REMARK    9  A    between atoms: C_16  and  C_18
REMARK                            x       y       z     vdW  Elec       q    Type
REMARK                         _______ _______ _______ _____ _____    ______ ____
ROOT
ATOM      1  O   UNL     1      -4.274 -13.086  15.683  0.00  0.00    -0.370 OA
ATOM      2  O   UNL     1      -5.336  -9.954  15.437  0.00  0.00    -0.370 OA
ATOM     10  C   UNL     1      -4.144 -10.713  15.669  0.00  0.00    +0.168 C 
ATOM     11  C   UNL     1      -4.519 -11.932  16.500  0.00  0.00    +0.175 C 
ATOM     12  C   UNL     1      -3.611 -11.278  14.362  0.00  0.00    +0.111 C 
ATOM     13  C   UNL     1      -6.003 -11.791  16.786  0.00  0.00    +0.171 C 
ATOM     14  C   UNL     1      -3.290 -12.714  14.714  0.00  0.00    +0.181 C 
ATOM     15  C   UNL     1      -6.469 -10.775  15.751  0.00  0.00    +0.190 C 
ENDROOT
BRANCH  13   5
ATOM      5  N   UNL     1      -6.286 -11.390  18.168  0.00  0.00    -0.187 N 
ATOM      6  N   UNL     1      -5.306 -10.976  18.976  0.00  0.00    -0.041 NA
ATOM      7  N   UNL     1      -7.263 -10.939  20.042  0.00  0.00    -0.071 NA
ATOM      8  N   UNL     1      -5.910 -10.700  20.125  0.00  0.00    -0.020 NA
ATOM     17  C   UNL     1      -7.473 -11.367  18.818  0.00  0.00    +0.342 A 
BRANCH  17   3
ATOM      3  O   UNL     1      -8.632 -11.719  18.294  0.00  0.00    -0.423 OA
BRANCH   3  21
ATOM     21  C   UNL     1      -9.710 -10.849  18.209  0.00  0.00    +0.134 A 
ATOM     25  C   UNL     1      -9.724  -9.893  17.210  0.00  0.00    +0.069 A 
ATOM     26  C   UNL     1     -10.738 -10.964  19.125  0.00  0.00    +0.046 A 
ATOM     27  C   UNL     1     -10.809  -9.020  17.125  0.00  0.00    +0.033 A 
ATOM     28  C   UNL     1     -11.822 -10.090  19.039  0.00  0.00    +0.005 A 
ATOM     29  C   UNL     1     -11.857  -9.119  18.039  0.00  0.00    +0.023 A 
BRANCH  27   9
ATOM      9  N   UNL     1     -10.844  -8.038  16.114  0.00  0.00    -0.336 N 
ATOM     30  C   UNL     1     -10.492  -8.376  14.749  0.00  0.00    +0.129 C 
ATOM     31  C   UNL     1     -11.219  -6.674  16.428  0.00  0.00    +0.129 C 
ENDBRANCH  27   9
ENDBRANCH   3  21
ENDBRANCH  17   3
ENDBRANCH  13   5
BRANCH  12   4
ATOM      4  N   UNL     1      -2.467 -10.568  13.865  0.00  0.00    -0.305 NA
ATOM     32  H   UNL     1      -1.750 -10.522  14.589  0.00  0.00    +0.123 HD
BRANCH   4  16
ATOM     16  C   UNL     1      -1.930 -11.219  12.681  0.00  0.00    +0.116 C 
BRANCH  16  18
ATOM     18  C   UNL     1      -2.736 -10.898  11.450  0.00  0.00    -0.034 A 
ATOM     19  C   UNL     1      -2.751  -9.600  10.962  0.00  0.00    +0.005 A 
ATOM     20  C   UNL     1      -3.453 -11.906  10.820  0.00  0.00    +0.005 A 
ATOM     22  C   UNL     1      -3.497  -9.301   9.823  0.00  0.00    +0.000 A 
ATOM     23  C   UNL     1      -4.200 -11.608   9.680  0.00  0.00    +0.000 A 
ATOM     24  C   UNL     1      -4.222 -10.306   9.181  0.00  0.00    +0.000 A 
ENDBRANCH  16  18
ENDBRANCH   4  16
ENDBRANCH  12   4
TORSDOF 7
ENDMDL
MODEL 8
REMARK VINA RESULT:      -6.8     27.215     29.714
REMARK  Name = 11867546
REMARK  9 active torsions:
REMARK  status: ('A' for Active; 'I' for Inactive)
REMARK    1  A    between atoms: O_3  and  C_17
REMARK    2  A    between atoms: O_3  and  C_21
REMARK    3  A    between atoms: N_4  and  C_12
REMARK    4  A    between atoms: N_4  and  C_16
REMARK    5  A    between atoms: N_5  and  C_13
REMARK    6  A    between atoms: N_9  and  C_27
REMARK    7  A    between atoms: N_9  and  C_30
REMARK    8  A    between atoms: N_9  and  C_31
REMARK    9  A    between atoms: C_16  and  C_18
REMARK                            x       y       z     vdW  Elec       q    Type
REMARK                         _______ _______ _______ _____ _____    ______ ____
ROOT
ATOM      1  O   UNL     1      -3.653 -12.653  11.124  0.00  0.00    -0.370 OA
ATOM      2  O   UNL     1      -4.770  -9.635  11.928  0.00  0.00    -0.370 OA
ATOM     10  C   UNL     1      -3.835 -10.284  11.059  0.00  0.00    +0.168 C 
ATOM     11  C   UNL     1      -3.236 -11.463  11.812  0.00  0.00    +0.175 C 
ATOM     12  C   UNL     1      -4.554 -10.902   9.871  0.00  0.00    +0.111 C 
ATOM     13  C   UNL     1      -3.845 -11.414  13.202  0.00  0.00    +0.171 C 
ATOM     14  C   UNL     1      -3.939 -12.280   9.774  0.00  0.00    +0.181 C 
ATOM     15  C   UNL     1      -5.061 -10.514  13.023  0.00  0.00    +0.190 C 
ENDROOT
BRANCH  13   5
ATOM      5  N   UNL     1      -2.907 -10.935  14.222  0.00  0.00    -0.187 N 
ATOM      6  N   UNL     1      -1.862 -10.172  13.889  0.00  0.00    -0.041 NA
ATOM      7  N   UNL     1      -1.893 -10.536  16.088  0.00  0.00    -0.071 NA
ATOM      8  N   UNL     1      -1.242  -9.930  15.038  0.00  0.00    -0.020 NA
ATOM     17  C   UNL     1      -2.923 -11.154  15.558  0.00  0.00    +0.342 A 
BRANCH  17   3
ATOM      3  O   UNL     1      -3.828 -11.871  16.198  0.00  0.00    -0.423 OA
BRANCH   3  21
ATOM     21  C   UNL     1      -4.819 -11.297  16.982  0.00  0.00    +0.134 A 
ATOM     25  C   UNL     1      -5.934 -10.760  16.366  0.00  0.00    +0.069 A 
ATOM     26  C   UNL     1      -4.664 -11.281  18.355  0.00  0.00    +0.046 A 
ATOM     27  C   UNL     1      -6.931 -10.184  17.155  0.00  0.00    +0.033 A 
ATOM     28  C   UNL     1      -5.661 -10.705  19.142  0.00  0.00    +0.005 A 
ATOM     29  C   UNL     1      -6.794 -10.157  18.542  0.00  0.00    +0.023 A 
BRANCH  27   9
ATOM      9  N   UNL     1      -8.077  -9.630  16.548  0.00  0.00    -0.336 N 
ATOM     30  C   UNL     1      -9.091  -8.977  17.353  0.00  0.00    +0.129 C 
ATOM     31  C   UNL     1      -8.263  -9.717  15.114  0.00  0.00    +0.129 C 
ENDBRANCH  27   9
ENDBRANCH   3  21
ENDBRANCH  17   3
ENDBRANCH  13   5
BRANCH  12   4
ATOM      4  N   UNL     1      -4.396 -10.146   8.660  0.00  0.00    -0.305 NA
ATOM     32  H   UNL     1      -3.420 -10.167   8.367  0.00  0.00    +0.123 HD
BRANCH   4  16
ATOM     16  C   UNL     1      -5.240 -10.682   7.604  0.00  0.00    +0.116 C 
BRANCH  16  18
ATOM     18  C   UNL     1      -6.220  -9.659   7.094  0.00  0.00    -0.034 A 
ATOM     19  C   UNL     1      -6.943  -8.895   7.999  0.00  0.00    +0.005 A 
ATOM     20  C   UNL     1      -6.386  -9.492   5.726  0.00  0.00    +0.005 A 
ATOM     22  C   UNL     1      -7.850  -7.947   7.529  0.00  0.00    +0.000 A 
ATOM     23  C   UNL     1      -7.294  -8.544   5.255  0.00  0.00    +0.000 A 
ATOM     24  C   UNL     1      -8.026  -7.771   6.156  0.00  0.00    +0.000 A 
ENDBRANCH  16  18
ENDBRANCH   4  16
ENDBRANCH  12   4
TORSDOF 7
ENDMDL
MODEL 9
REMARK VINA RESULT:      -6.7     27.410     29.993
REMARK  Name = 11867546
REMARK  9 active torsions:
REMARK  status: ('A' for Active; 'I' for Inactive)
REMARK    1  A    between atoms: O_3  and  C_17
REMARK    2  A    between atoms: O_3  and  C_21
REMARK    3  A    between atoms: N_4  and  C_12
REMARK    4  A    between atoms: N_4  and  C_16
REMARK    5  A    between atoms: N_5  and  C_13
REMARK    6  A    between atoms: N_9  and  C_27
REMARK    7  A    between atoms: N_9  and  C_30
REMARK    8  A    between atoms: N_9  and  C_31
REMARK    9  A    between atoms: C_16  and  C_18
REMARK                            x       y       z     vdW  Elec       q    Type
REMARK                         _______ _______ _______ _____ _____    ______ ____
ROOT
ATOM      1  O   UNL     1      -5.460  -9.004  12.086  0.00  0.00    -0.370 OA
ATOM      2  O   UNL     1      -2.700 -10.572  11.127  0.00  0.00    -0.370 OA
ATOM     10  C   UNL     1      -4.059 -10.359  10.728  0.00  0.00    +0.168 C 
ATOM     11  C   UNL     1      -4.917 -10.328  11.984  0.00  0.00    +0.175 C 
ATOM     12  C   UNL     1      -4.221  -8.980  10.108  0.00  0.00    +0.111 C 
ATOM     13  C   UNL     1      -3.967 -10.601  13.136  0.00  0.00    +0.171 C 
ATOM     14  C   UNL     1      -5.476  -8.452  10.767  0.00  0.00    +0.181 C 
ATOM     15  C   UNL     1      -2.594 -10.325  12.535  0.00  0.00    +0.190 C 
ENDROOT
BRANCH  13   5
ATOM      5  N   UNL     1      -4.104 -11.954  13.685  0.00  0.00    -0.187 N 
ATOM      6  N   UNL     1      -4.432 -12.983  12.898  0.00  0.00    -0.041 NA
ATOM      7  N   UNL     1      -4.162 -13.665  15.003  0.00  0.00    -0.071 NA
ATOM      8  N   UNL     1      -4.466 -14.032  13.711  0.00  0.00    -0.020 NA
ATOM     17  C   UNL     1      -3.940 -12.372  14.962  0.00  0.00    +0.342 A 
BRANCH  17   3
ATOM      3  O   UNL     1      -3.616 -11.594  15.978  0.00  0.00    -0.423 OA
BRANCH   3  21
ATOM     21  C   UNL     1      -4.445 -11.414  17.076  0.00  0.00    +0.134 A 
ATOM     25  C   UNL     1      -5.708 -10.886  16.884  0.00  0.00    +0.069 A 
ATOM     26  C   UNL     1      -3.985 -11.769  18.330  0.00  0.00    +0.046 A 
ATOM     27  C   UNL     1      -6.541 -10.706  17.988  0.00  0.00    +0.033 A 
ATOM     28  C   UNL     1      -4.819 -11.589  19.433  0.00  0.00    +0.005 A 
ATOM     29  C   UNL     1      -6.097 -11.058  19.262  0.00  0.00    +0.023 A 
BRANCH  27   9
ATOM      9  N   UNL     1      -7.834 -10.170  17.815  0.00  0.00    -0.336 N 
ATOM     30  C   UNL     1      -8.064  -9.102  16.862  0.00  0.00    +0.129 C 
ATOM     31  C   UNL     1      -8.947 -10.668  18.598  0.00  0.00    +0.129 C 
ENDBRANCH  27   9
ENDBRANCH   3  21
ENDBRANCH  17   3
ENDBRANCH  13   5
BRANCH  12   4
ATOM      4  N   UNL     1      -4.327  -9.014   8.676  0.00  0.00    -0.305 NA
ATOM     32  H   UNL     1      -3.594  -9.609   8.292  0.00  0.00    +0.123 HD
BRANCH   4  16
ATOM     16  C   UNL     1      -5.631  -9.512   8.268  0.00  0.00    +0.116 C 
BRANCH  16  18
ATOM     18  C   UNL     1      -5.553 -10.310   6.994  0.00  0.00    -0.034 A 
ATOM     19  C   UNL     1      -4.626 -11.336   6.886  0.00  0.00    +0.005 A 
ATOM     20  C   UNL     1      -6.412 -10.010   5.945  0.00  0.00    +0.005 A 
ATOM     22  C   UNL     1      -4.553 -12.076   5.706  0.00  0.00    +0.000 A 
ATOM     23  C   UNL     1      -6.339 -10.749   4.765  0.00  0.00    +0.000 A 
ATOM     24  C   UNL     1      -5.410 -11.782   4.645  0.00  0.00    +0.000 A 
ENDBRANCH  16  18
ENDBRANCH   4  16
ENDBRANCH  12   4
TORSDOF 7
ENDMDL
MODEL 10
REMARK VINA RESULT:      -6.7     29.036     31.129
REMARK  Name = 11867546
REMARK  9 active torsions:
REMARK  status: ('A' for Active; 'I' for Inactive)
REMARK    1  A    between atoms: O_3  and  C_17
REMARK    2  A    between atoms: O_3  and  C_21
REMARK    3  A    between atoms: N_4  and  C_12
REMARK    4  A    between atoms: N_4  and  C_16
REMARK    5  A    between atoms: N_5  and  C_13
REMARK    6  A    between atoms: N_9  and  C_27
REMARK    7  A    between atoms: N_9  and  C_30
REMARK    8  A    between atoms: N_9  and  C_31
REMARK    9  A    between atoms: C_16  and  C_18
REMARK                            x       y       z     vdW  Elec       q    Type
REMARK                         _______ _______ _______ _____ _____    ______ ____
ROOT
ATOM      1  O   UNL     1     -10.263  -8.645  14.466  0.00  0.00    -0.370 OA
ATOM      2  O   UNL     1     -11.047  -6.404  16.782  0.00  0.00    -0.370 OA
ATOM     10  C   UNL     1     -10.950  -7.819  16.585  0.00  0.00    +0.168 C 
ATOM     11  C   UNL     1     -11.404  -8.128  15.167  0.00  0.00    +0.175 C 
ATOM     12  C   UNL     1      -9.497  -8.265  16.638  0.00  0.00    +0.111 C 
ATOM     13  C   UNL     1     -11.831  -6.797  14.575  0.00  0.00    +0.171 C 
ATOM     14  C   UNL     1      -9.378  -9.190  15.447  0.00  0.00    +0.181 C 
ATOM     15  C   UNL     1     -11.185  -5.774  15.502  0.00  0.00    +0.190 C 
ENDROOT
BRANCH  13   5
ATOM      5  N   UNL     1     -13.287  -6.655  14.471  0.00  0.00    -0.187 N 
ATOM      6  N   UNL     1     -14.100  -7.658  14.815  0.00  0.00    -0.041 NA
ATOM      7  N   UNL     1     -15.281  -5.900  14.120  0.00  0.00    -0.071 NA
ATOM      8  N   UNL     1     -15.323  -7.190  14.598  0.00  0.00    -0.020 NA
ATOM     17  C   UNL     1     -14.007  -5.589  14.049  0.00  0.00    +0.342 A 
BRANCH  17   3
ATOM      3  O   UNL     1     -13.496  -4.443  13.640  0.00  0.00    -0.423 OA
BRANCH   3  21
ATOM     21  C   UNL     1     -13.317  -4.141  12.297  0.00  0.00    +0.134 A 
ATOM     25  C   UNL     1     -14.296  -3.426  11.634  0.00  0.00    +0.069 A 
ATOM     26  C   UNL     1     -12.164  -4.563  11.663  0.00  0.00    +0.046 A 
ATOM     27  C   UNL     1     -14.115  -3.122  10.285  0.00  0.00    +0.033 A 
ATOM     28  C   UNL     1     -11.984  -4.258  10.313  0.00  0.00    +0.005 A 
ATOM     29  C   UNL     1     -12.960  -3.537   9.625  0.00  0.00    +0.023 A 
BRANCH  27   9
ATOM      9  N   UNL     1     -15.101  -2.393   9.588  0.00  0.00    -0.336 N 
ATOM     30  C   UNL     1     -14.870  -1.965   8.222  0.00  0.00    +0.129 C 
ATOM     31  C   UNL     1     -16.353  -2.049  10.232  0.00  0.00    +0.129 C 
ENDBRANCH  27   9
ENDBRANCH   3  21
ENDBRANCH  17   3
ENDBRANCH  13   5
BRANCH  12   4
ATOM      4  N   UNL     1      -9.150  -8.913  17.872  0.00  0.00    -0.305 NA
ATOM     32  H   UNL     1      -9.929  -8.846  18.525  0.00  0.00    +0.123 HD
BRANCH   4  16
ATOM     16  C   UNL     1      -8.817 -10.311  17.643  0.00  0.00    +0.116 C 
BRANCH  16  18
ATOM     18  C   UNL     1      -7.418 -10.635  18.096  0.00  0.00    -0.034 A 
ATOM     19  C   UNL     1      -6.369 -10.543  17.193  0.00  0.00    +0.005 A 
ATOM     20  C   UNL     1      -7.197 -11.020  19.411  0.00  0.00    +0.005 A 
ATOM     22  C   UNL     1      -5.073 -10.843  17.611  0.00  0.00    +0.000 A 
ATOM     23  C   UNL     1      -5.901 -11.321  19.829  0.00  0.00    +0.000 A 
ATOM     24  C   UNL     1      -4.839 -11.233  18.930  0.00  0.00    +0.000 A 
ENDBRANCH  16  18
ENDBRANCH   4  16
ENDBRANCH  12   4
TORSDOF 7
ENDMDL
