REMARK  Name = 75537017
REMARK  3 active torsions:
REMARK  status: ('A' for Active; 'I' for Inactive)
REMARK    1  A    between atoms: S_1  and  N_7
REMARK    2  A    between atoms: S_1  and  C_20
REMARK    3  A    between atoms: N_5  and  C_9
REMARK                            x       y       z     vdW  Elec       q    Type
REMARK                         _______ _______ _______ _____ _____    ______ ____
ROOT
ATOM      2  O   UNL     1       2.256  -1.287  -2.385  0.00  0.00    -0.252 OA
ATOM      5  N   UNL     1       2.578  -0.457  -0.201  0.00  0.00    -0.281 N 
ATOM      6  N   UNL     1       0.641  -1.486  -0.690  0.00  0.00    -0.278 N 
ATOM      7  N   UNL     1      -1.884  -1.410   0.508  0.00  0.00    -0.173 NA
ATOM      8  C   UNL     1       0.559  -1.212   0.732  0.00  0.00    +0.111 C 
ATOM     10  C   UNL     1       1.778  -0.334   1.005  0.00  0.00    +0.133 C 
ATOM     11  C   UNL     1      -0.779  -0.565   1.073  0.00  0.00    +0.133 C 
ATOM     14  C   UNL     1       1.874  -1.104  -1.236  0.00  0.00    +0.305 C 
ATOM     15  C   UNL     1      -0.444  -2.186  -1.349  0.00  0.00    +0.127 C 
ATOM     16  C   UNL     1      -1.778  -1.544  -0.983  0.00  0.00    +0.128 C 
ENDROOT
BRANCH   5   9
ATOM      9  C   UNL     1       3.883   0.146  -0.317  0.00  0.00    +0.078 C 
ATOM     12  C   UNL     1       3.814   1.648  -0.031  0.00  0.00    +0.022 C 
ATOM     13  C   UNL     1       4.881  -0.552   0.610  0.00  0.00    +0.022 C 
ATOM     17  C   UNL     1       5.194   2.297  -0.095  0.00  0.00    +0.002 C 
ATOM     18  C   UNL     1       6.260   0.100   0.546  0.00  0.00    +0.002 C 
ATOM     19  C   UNL     1       6.188   1.598   0.829  0.00  0.00    +0.000 C 
ENDBRANCH   5   9
BRANCH   7   1
ATOM      1  S   UNL     1      -3.452  -1.050   1.099  0.00  0.00    +0.061 S 
ATOM      3  O   UNL     1      -3.371  -0.788   2.519  0.00  0.00    -0.153 OA
ATOM      4  O   UNL     1      -4.386  -2.020   0.571  0.00  0.00    -0.153 OA
BRANCH   1  20
ATOM     20  C   UNL     1      -3.742   0.487   0.281  0.00  0.00    +0.105 A 
ATOM     21  C   UNL     1      -4.345   0.504  -0.977  0.00  0.00    +0.028 A 
ATOM     22  C   UNL     1      -3.366   1.684   0.891  0.00  0.00    +0.028 A 
ATOM     23  C   UNL     1      -4.571   1.718  -1.625  0.00  0.00    +0.002 A 
ATOM     24  C   UNL     1      -3.592   2.898   0.242  0.00  0.00    +0.002 A 
ATOM     25  C   UNL     1      -4.195   2.915  -1.016  0.00  0.00    +0.000 A 
ENDBRANCH   1  20
ENDBRANCH   7   1
TORSDOF 3
