REMARK  Name = 45784328
REMARK  5 active torsions:
REMARK  status: ('A' for Active; 'I' for Inactive)
REMARK    1  A    between atoms: N_1  and  C_9
REMARK    2  A    between atoms: C_5  and  C_10
REMARK    3  A    between atoms: C_9  and  C_11
REMARK    4  A    between atoms: C_9  and  C_12
REMARK    5  A    between atoms: C_17  and  C_19
REMARK                            x       y       z     vdW  Elec       q    Type
REMARK                         _______ _______ _______ _____ _____    ______ ____
ROOT
ATOM      2  N   UNL     1       0.782   1.282   0.277  0.00  0.00    -0.342 N 
ATOM      3  N   UNL     1       0.163  -0.678  -0.570  0.00  0.00    -0.232 NA
ATOM     10  C   UNL     1      -0.251   0.499  -0.158  0.00  0.00    +0.113 A 
ATOM     13  C   UNL     1       1.941   0.562   0.136  0.00  0.00    +0.067 A 
ATOM     14  C   UNL     1       1.528  -0.657  -0.395  0.00  0.00    +0.089 A 
ATOM     15  C   UNL     1       3.274   0.863   0.417  0.00  0.00    +0.046 A 
ATOM     16  C   UNL     1       2.488  -1.646  -0.667  0.00  0.00    +0.031 A 
ATOM     17  C   UNL     1       4.216  -0.133   0.141  0.00  0.00    +0.054 A 
ATOM     18  C   UNL     1       3.833  -1.366  -0.392  0.00  0.00    +0.021 A 
ATOM     20  H   UNL     1       0.710   2.223   0.639  0.00  0.00    +0.167 HD
ENDROOT
BRANCH  10   5
ATOM      1  N   UNL     1      -3.901   0.288   0.085  0.00  0.00    -0.299 NA
ATOM      5  C   UNL     1      -1.677   0.999  -0.136  0.00  0.00    +0.070 C 
ATOM      6  C   UNL     1      -2.599   0.138   0.738  0.00  0.00    +0.096 C 
ATOM      7  C   UNL     1      -2.369   1.040  -1.509  0.00  0.00    +0.028 C 
ATOM      8  C   UNL     1      -3.619   0.184  -1.347  0.00  0.00    +0.085 C 
BRANCH   1   9
ATOM      9  C   UNL     1      -4.866  -0.706   0.533  0.00  0.00    +0.050 C 
ATOM     11  C   UNL     1      -5.080  -0.562   2.037  0.00  0.00    +0.024 C 
ATOM     12  C   UNL     1      -6.180  -0.547  -0.226  0.00  0.00    +0.024 C 
ENDBRANCH   1   9
ENDBRANCH  10   5
BRANCH  17  19
ATOM      4  N   UNL     1       6.720   0.322   0.627  0.00  0.00    -0.191 NA
ATOM     19  C   UNL     1       5.598   0.118   0.409  0.00  0.00    +0.099 C 
ENDBRANCH  17  19
TORSDOF 3
