MODEL 1
REMARK VINA RESULT:      -7.7      0.000      0.000
REMARK  Name = 40777193
REMARK  8 active torsions:
REMARK  status: ('A' for Active; 'I' for Inactive)
REMARK    1  A    between atoms: S_1  and  C_31
REMARK    2  A    between atoms: S_1  and  C_34
REMARK    3  A    between atoms: N_4  and  C_15
REMARK    4  A    between atoms: N_5  and  C_16
REMARK    5  A    between atoms: N_6  and  C_22
REMARK    6  A    between atoms: N_7  and  C_25
REMARK    7  A    between atoms: C_9  and  C_15
REMARK    8  A    between atoms: C_10  and  C_16
REMARK                            x       y       z     vdW  Elec       q    Type
REMARK                         _______ _______ _______ _____ _____    ______ ____
ROOT
ATOM      3  N   UNL     1      11.725   7.254  19.661  0.00  0.00    -0.298 NA
ATOM      8  C   UNL     1      13.394   9.175  19.122  0.00  0.00    -0.003 C 
ATOM      9  C   UNL     1      14.134   7.947  19.699  0.00  0.00    +0.020 C 
ATOM     10  C   UNL     1      11.271   8.520  20.300  0.00  0.00    +0.074 C 
ATOM     11  C   UNL     1      12.319   9.639  20.122  0.00  0.00    +0.024 C 
ATOM     12  C   UNL     1      13.084   6.898  20.133  0.00  0.00    +0.089 C 
ATOM     13  C   UNL     1      12.662   8.701  17.852  0.00  0.00    +0.019 C 
ATOM     14  C   UNL     1      11.788   7.481  18.197  0.00  0.00    +0.085 C 
ENDROOT
BRANCH   9  15
ATOM     15  C   UNL     1      15.085   8.298  20.840  0.00  0.00    +0.089 C 
BRANCH  15   4
ATOM      4  N   UNL     1      16.472   8.029  20.465  0.00  0.00    -0.299 NA
ATOM      6  N   UNL     1      19.042   6.801  20.685  0.00  0.00    -0.327 N 
ATOM     17  C   UNL     1      16.649   6.611  20.129  0.00  0.00    +0.103 C 
ATOM     18  C   UNL     1      17.383   8.401  21.556  0.00  0.00    +0.103 C 
ATOM     19  C   UNL     1      18.085   6.327  19.679  0.00  0.00    +0.120 C 
ATOM     20  C   UNL     1      18.842   8.178  21.154  0.00  0.00    +0.120 C 
BRANCH   6  22
ATOM     22  C   UNL     1      20.341   6.281  20.704  0.00  0.00    +0.030 A 
ATOM     23  C   UNL     1      21.437   7.137  20.598  0.00  0.00    +0.023 A 
ATOM     24  C   UNL     1      20.539   4.906  20.835  0.00  0.00    +0.023 A 
ATOM     26  C   UNL     1      22.732   6.618  20.622  0.00  0.00    +0.002 A 
ATOM     27  C   UNL     1      21.834   4.388  20.859  0.00  0.00    +0.002 A 
ATOM     28  C   UNL     1      22.931   5.245  20.753  0.00  0.00    +0.000 A 
ENDBRANCH   6  22
ENDBRANCH  15   4
ENDBRANCH   9  15
BRANCH  10  16
ATOM     16  C   UNL     1      10.890   8.326  21.770  0.00  0.00    +0.124 C 
BRANCH  16   5
ATOM      2  O   UNL     1      12.282  10.328  23.273  0.00  0.00    -0.253 OA
ATOM      5  N   UNL     1      10.326   9.547  22.322  0.00  0.00    -0.298 N 
ATOM      7  N   UNL     1      10.278  11.538  23.447  0.00  0.00    -0.269 N 
ATOM     21  C   UNL     1      11.083  10.469  23.043  0.00  0.00    +0.304 C 
ATOM     35  H   UNL     1       9.338   9.729  22.176  0.00  0.00    +0.150 HD
ATOM     36  H   UNL     1       9.299  11.500  23.172  0.00  0.00    +0.156 HD
BRANCH   7  25
ATOM     25  C   UNL     1      10.658  12.676  24.195  0.00  0.00    +0.036 A 
ATOM     29  C   UNL     1      11.754  12.611  25.055  0.00  0.00    +0.038 A 
ATOM     30  C   UNL     1       9.935  13.862  24.073  0.00  0.00    +0.023 A 
ATOM     31  C   UNL     1      12.128  13.735  25.793  0.00  0.00    +0.009 A 
ATOM     32  C   UNL     1      10.309  14.986  24.811  0.00  0.00    +0.003 A 
ATOM     33  C   UNL     1      11.405  14.922  25.671  0.00  0.00    +0.015 A 
BRANCH  31   1
ATOM      1  S   UNL     1      13.530  13.653  26.892  0.00  0.00    -0.129 S 
ATOM     34  C   UNL     1      13.363  15.206  27.816  0.00  0.00    +0.090 C 
ENDBRANCH  31   1
ENDBRANCH   7  25
ENDBRANCH  16   5
ENDBRANCH  10  16
TORSDOF 7
ENDMDL
MODEL 2
REMARK VINA RESULT:      -7.6     29.254     33.098
REMARK  Name = 40777193
REMARK  8 active torsions:
REMARK  status: ('A' for Active; 'I' for Inactive)
REMARK    1  A    between atoms: S_1  and  C_31
REMARK    2  A    between atoms: S_1  and  C_34
REMARK    3  A    between atoms: N_4  and  C_15
REMARK    4  A    between atoms: N_5  and  C_16
REMARK    5  A    between atoms: N_6  and  C_22
REMARK    6  A    between atoms: N_7  and  C_25
REMARK    7  A    between atoms: C_9  and  C_15
REMARK    8  A    between atoms: C_10  and  C_16
REMARK                            x       y       z     vdW  Elec       q    Type
REMARK                         _______ _______ _______ _____ _____    ______ ____
ROOT
ATOM      3  N   UNL     1     -13.603 -11.984  19.393  0.00  0.00    -0.298 NA
ATOM      8  C   UNL     1     -13.605  -9.394  19.642  0.00  0.00    -0.003 C 
ATOM      9  C   UNL     1     -13.108  -9.814  18.240  0.00  0.00    +0.020 C 
ATOM     10  C   UNL     1     -12.863 -11.589  20.622  0.00  0.00    +0.074 C 
ATOM     11  C   UNL     1     -12.719 -10.054  20.715  0.00  0.00    +0.024 C 
ATOM     12  C   UNL     1     -12.991 -11.355  18.199  0.00  0.00    +0.089 C 
ATOM     13  C   UNL     1     -15.024  -9.971  19.804  0.00  0.00    +0.019 C 
ATOM     14  C   UNL     1     -14.993 -11.483  19.519  0.00  0.00    +0.085 C 
ENDROOT
BRANCH   9  15
ATOM     15  C   UNL     1     -11.799  -9.139  17.838  0.00  0.00    +0.089 C 
BRANCH  15   4
ATOM      4  N   UNL     1     -11.944  -8.436  16.563  0.00  0.00    -0.299 NA
ATOM      6  N   UNL     1     -12.759  -6.314  14.833  0.00  0.00    -0.327 N 
ATOM     17  C   UNL     1     -11.264  -7.137  16.611  0.00  0.00    +0.103 C 
ATOM     18  C   UNL     1     -13.364  -8.246  16.239  0.00  0.00    +0.103 C 
ATOM     19  C   UNL     1     -11.360  -6.415  15.264  0.00  0.00    +0.120 C 
ATOM     20  C   UNL     1     -13.530  -7.563  14.880  0.00  0.00    +0.120 C 
BRANCH   6  22
ATOM     22  C   UNL     1     -13.125  -5.349  13.889  0.00  0.00    +0.030 A 
ATOM     23  C   UNL     1     -12.143  -4.615  13.225  0.00  0.00    +0.023 A 
ATOM     24  C   UNL     1     -14.473  -5.125  13.609  0.00  0.00    +0.023 A 
ATOM     26  C   UNL     1     -12.509  -3.656  12.280  0.00  0.00    +0.002 A 
ATOM     27  C   UNL     1     -14.838  -4.166  12.664  0.00  0.00    +0.002 A 
ATOM     28  C   UNL     1     -13.855  -3.431  11.999  0.00  0.00    +0.000 A 
ENDBRANCH   6  22
ENDBRANCH  15   4
ENDBRANCH   9  15
BRANCH  10  16
ATOM     16  C   UNL     1     -11.510 -12.294  20.740  0.00  0.00    +0.124 C 
BRANCH  16   5
ATOM      2  O   UNL     1      -9.249 -12.860  19.074  0.00  0.00    -0.253 OA
ATOM      5  N   UNL     1     -10.424 -11.386  20.411  0.00  0.00    -0.298 N 
ATOM      7  N   UNL     1      -8.473 -10.677  19.452  0.00  0.00    -0.269 N 
ATOM     21  C   UNL     1      -9.359 -11.749  19.588  0.00  0.00    +0.304 C 
ATOM     35  H   UNL     1     -10.445 -10.450  20.804  0.00  0.00    +0.150 HD
ATOM     36  H   UNL     1      -8.713  -9.821  19.946  0.00  0.00    +0.156 HD
BRANCH   7  25
ATOM     25  C   UNL     1      -7.273 -10.633  18.705  0.00  0.00    +0.036 A 
ATOM     29  C   UNL     1      -7.315 -10.398  17.331  0.00  0.00    +0.038 A 
ATOM     30  C   UNL     1      -6.048 -10.826  19.343  0.00  0.00    +0.023 A 
ATOM     31  C   UNL     1      -6.130 -10.354  16.595  0.00  0.00    +0.009 A 
ATOM     32  C   UNL     1      -4.863 -10.782  18.607  0.00  0.00    +0.003 A 
ATOM     33  C   UNL     1      -4.905 -10.547  17.233  0.00  0.00    +0.015 A 
BRANCH  31   1
ATOM      1  S   UNL     1      -6.183 -10.053  14.838  0.00  0.00    -0.129 S 
ATOM     34  C   UNL     1      -4.506 -10.530  14.333  0.00  0.00    +0.090 C 
ENDBRANCH  31   1
ENDBRANCH   7  25
ENDBRANCH  16   5
ENDBRANCH  10  16
TORSDOF 7
ENDMDL
MODEL 3
REMARK VINA RESULT:      -7.6     27.394     32.029
REMARK  Name = 40777193
REMARK  8 active torsions:
REMARK  status: ('A' for Active; 'I' for Inactive)
REMARK    1  A    between atoms: S_1  and  C_31
REMARK    2  A    between atoms: S_1  and  C_34
REMARK    3  A    between atoms: N_4  and  C_15
REMARK    4  A    between atoms: N_5  and  C_16
REMARK    5  A    between atoms: N_6  and  C_22
REMARK    6  A    between atoms: N_7  and  C_25
REMARK    7  A    between atoms: C_9  and  C_15
REMARK    8  A    between atoms: C_10  and  C_16
REMARK                            x       y       z     vdW  Elec       q    Type
REMARK                         _______ _______ _______ _____ _____    ______ ____
ROOT
ATOM      3  N   UNL     1      -8.961 -11.751  17.500  0.00  0.00    -0.298 NA
ATOM      8  C   UNL     1     -11.171 -11.136  18.728  0.00  0.00    -0.003 C 
ATOM      9  C   UNL     1     -10.984 -10.271  17.461  0.00  0.00    +0.020 C 
ATOM     10  C   UNL     1      -8.686 -11.467  18.935  0.00  0.00    +0.074 C 
ATOM     11  C   UNL     1      -9.953 -10.955  19.653  0.00  0.00    +0.024 C 
ATOM     12  C   UNL     1      -9.595 -10.576  16.856  0.00  0.00    +0.089 C 
ATOM     13  C   UNL     1     -11.179 -12.607  18.268  0.00  0.00    +0.019 C 
ATOM     14  C   UNL     1      -9.915 -12.885  17.435  0.00  0.00    +0.085 C 
ENDROOT
BRANCH   9  15
ATOM     15  C   UNL     1     -11.170  -8.778  17.719  0.00  0.00    +0.089 C 
BRANCH  15   4
ATOM      4  N   UNL     1     -11.358  -8.051  16.464  0.00  0.00    -0.299 NA
ATOM      6  N   UNL     1     -12.511  -6.095  14.731  0.00  0.00    -0.327 N 
ATOM     17  C   UNL     1     -11.050  -6.627  16.642  0.00  0.00    +0.103 C 
ATOM     18  C   UNL     1     -12.736  -8.208  15.979  0.00  0.00    +0.103 C 
ATOM     19  C   UNL     1     -11.188  -5.864  15.321  0.00  0.00    +0.120 C 
ATOM     20  C   UNL     1     -12.930  -7.499  14.637  0.00  0.00    +0.120 C 
BRANCH   6  22
ATOM     22  C   UNL     1     -13.015  -5.193  13.786  0.00  0.00    +0.030 A 
ATOM     23  C   UNL     1     -12.139  -4.462  12.984  0.00  0.00    +0.023 A 
ATOM     24  C   UNL     1     -14.392  -5.030  13.645  0.00  0.00    +0.023 A 
ATOM     26  C   UNL     1     -12.642  -3.566  12.040  0.00  0.00    +0.002 A 
ATOM     27  C   UNL     1     -14.895  -4.134  12.701  0.00  0.00    +0.002 A 
ATOM     28  C   UNL     1     -14.019  -3.403  11.898  0.00  0.00    +0.000 A 
ENDBRANCH   6  22
ENDBRANCH  15   4
ENDBRANCH   9  15
BRANCH  10  16
ATOM     16  C   UNL     1      -7.501 -10.517  19.124  0.00  0.00    +0.124 C 
BRANCH  16   5
ATOM      2  O   UNL     1      -6.135  -9.409  16.864  0.00  0.00    -0.253 OA
ATOM      5  N   UNL     1      -6.308 -11.046  18.485  0.00  0.00    -0.298 N 
ATOM      7  N   UNL     1      -4.584 -11.167  16.988  0.00  0.00    -0.269 N 
ATOM     21  C   UNL     1      -5.708 -10.437  17.384  0.00  0.00    +0.304 C 
ATOM     35  H   UNL     1      -5.901 -11.899  18.858  0.00  0.00    +0.150 HD
ATOM     36  H   UNL     1      -4.367 -12.001  17.529  0.00  0.00    +0.156 HD
BRANCH   7  25
ATOM     25  C   UNL     1      -3.702 -10.888  15.918  0.00  0.00    +0.036 A 
ATOM     29  C   UNL     1      -4.180 -10.865  14.608  0.00  0.00    +0.038 A 
ATOM     30  C   UNL     1      -2.354 -10.639  16.174  0.00  0.00    +0.023 A 
ATOM     31  C   UNL     1      -3.309 -10.589  13.553  0.00  0.00    +0.009 A 
ATOM     32  C   UNL     1      -1.483 -10.364  15.119  0.00  0.00    +0.003 A 
ATOM     33  C   UNL     1      -1.961 -10.340  13.809  0.00  0.00    +0.015 A 
BRANCH  31   1
ATOM      1  S   UNL     1      -3.920 -10.557  11.878  0.00  0.00    -0.129 S 
ATOM     34  C   UNL     1      -3.181 -12.064  11.189  0.00  0.00    +0.090 C 
ENDBRANCH  31   1
ENDBRANCH   7  25
ENDBRANCH  16   5
ENDBRANCH  10  16
TORSDOF 7
ENDMDL
MODEL 4
REMARK VINA RESULT:      -7.6      5.305     10.023
REMARK  Name = 40777193
REMARK  8 active torsions:
REMARK  status: ('A' for Active; 'I' for Inactive)
REMARK    1  A    between atoms: S_1  and  C_31
REMARK    2  A    between atoms: S_1  and  C_34
REMARK    3  A    between atoms: N_4  and  C_15
REMARK    4  A    between atoms: N_5  and  C_16
REMARK    5  A    between atoms: N_6  and  C_22
REMARK    6  A    between atoms: N_7  and  C_25
REMARK    7  A    between atoms: C_9  and  C_15
REMARK    8  A    between atoms: C_10  and  C_16
REMARK                            x       y       z     vdW  Elec       q    Type
REMARK                         _______ _______ _______ _____ _____    ______ ____
ROOT
ATOM      3  N   UNL     1      11.427   7.379  20.008  0.00  0.00    -0.298 NA
ATOM      8  C   UNL     1      13.393   8.782  20.975  0.00  0.00    -0.003 C 
ATOM      9  C   UNL     1      12.035   9.453  21.278  0.00  0.00    +0.020 C 
ATOM     10  C   UNL     1      12.438   7.639  18.947  0.00  0.00    +0.074 C 
ATOM     11  C   UNL     1      13.541   8.594  19.453  0.00  0.00    +0.024 C 
ATOM     12  C   UNL     1      10.920   8.658  20.560  0.00  0.00    +0.089 C 
ATOM     13  C   UNL     1      13.348   7.376  21.605  0.00  0.00    +0.019 C 
ATOM     14  C   UNL     1      12.096   6.635  21.102  0.00  0.00    +0.085 C 
ENDROOT
BRANCH   9  15
ATOM     15  C   UNL     1      11.999  10.934  20.907  0.00  0.00    +0.089 C 
BRANCH  15   4
ATOM      4  N   UNL     1      11.607  11.750  22.055  0.00  0.00    -0.299 NA
ATOM      6  N   UNL     1      12.012  13.199  24.483  0.00  0.00    -0.327 N 
ATOM     17  C   UNL     1      12.326  13.030  22.046  0.00  0.00    +0.103 C 
ATOM     18  C   UNL     1      11.875  11.036  23.310  0.00  0.00    +0.103 C 
ATOM     19  C   UNL     1      11.883  13.918  23.212  0.00  0.00    +0.120 C 
ATOM     20  C   UNL     1      11.417  11.856  24.517  0.00  0.00    +0.120 C 
BRANCH   6  22
ATOM     22  C   UNL     1      12.084  13.917  25.682  0.00  0.00    +0.030 A 
ATOM     23  C   UNL     1      13.272  13.939  26.412  0.00  0.00    +0.023 A 
ATOM     24  C   UNL     1      10.968  14.615  26.144  0.00  0.00    +0.023 A 
ATOM     26  C   UNL     1      13.344  14.659  27.605  0.00  0.00    +0.002 A 
ATOM     27  C   UNL     1      11.040  15.335  27.337  0.00  0.00    +0.002 A 
ATOM     28  C   UNL     1      12.229  15.357  28.067  0.00  0.00    +0.000 A 
ENDBRANCH   6  22
ENDBRANCH  15   4
ENDBRANCH   9  15
BRANCH  10  16
ATOM     16  C   UNL     1      11.804   8.140  17.647  0.00  0.00    +0.124 C 
BRANCH  16   5
ATOM      2  O   UNL     1      13.153   8.722  15.189  0.00  0.00    -0.253 OA
ATOM      5  N   UNL     1      12.378   9.416  17.252  0.00  0.00    -0.298 N 
ATOM      7  N   UNL     1      13.467  10.928  15.927  0.00  0.00    -0.269 N 
ATOM     21  C   UNL     1      13.019   9.608  16.030  0.00  0.00    +0.304 C 
ATOM     35  H   UNL     1      12.310  10.195  17.900  0.00  0.00    +0.150 HD
ATOM     36  H   UNL     1      13.274  11.538  16.718  0.00  0.00    +0.156 HD
BRANCH   7  25
ATOM     25  C   UNL     1      14.162  11.528  14.852  0.00  0.00    +0.036 A 
ATOM     29  C   UNL     1      13.452  12.095  13.793  0.00  0.00    +0.038 A 
ATOM     30  C   UNL     1      15.556  11.551  14.849  0.00  0.00    +0.023 A 
ATOM     31  C   UNL     1      14.138  12.686  12.732  0.00  0.00    +0.009 A 
ATOM     32  C   UNL     1      16.242  12.143  13.788  0.00  0.00    +0.003 A 
ATOM     33  C   UNL     1      15.533  12.710  12.729  0.00  0.00    +0.015 A 
BRANCH  31   1
ATOM      1  S   UNL     1      13.232  13.412  11.379  0.00  0.00    -0.129 S 
ATOM     34  C   UNL     1      11.806  12.298  11.252  0.00  0.00    +0.090 C 
ENDBRANCH  31   1
ENDBRANCH   7  25
ENDBRANCH  16   5
ENDBRANCH  10  16
TORSDOF 7
ENDMDL
MODEL 5
REMARK VINA RESULT:      -7.4     28.587     32.486
REMARK  Name = 40777193
REMARK  8 active torsions:
REMARK  status: ('A' for Active; 'I' for Inactive)
REMARK    1  A    between atoms: S_1  and  C_31
REMARK    2  A    between atoms: S_1  and  C_34
REMARK    3  A    between atoms: N_4  and  C_15
REMARK    4  A    between atoms: N_5  and  C_16
REMARK    5  A    between atoms: N_6  and  C_22
REMARK    6  A    between atoms: N_7  and  C_25
REMARK    7  A    between atoms: C_9  and  C_15
REMARK    8  A    between atoms: C_10  and  C_16
REMARK                            x       y       z     vdW  Elec       q    Type
REMARK                         _______ _______ _______ _____ _____    ______ ____
ROOT
ATOM      3  N   UNL     1     -11.712 -12.205  19.021  0.00  0.00    -0.298 NA
ATOM      8  C   UNL     1     -11.610  -9.608  19.149  0.00  0.00    -0.003 C 
ATOM      9  C   UNL     1     -11.370 -10.099  17.704  0.00  0.00    +0.020 C 
ATOM     10  C   UNL     1     -10.763 -11.784  20.087  0.00  0.00    +0.074 C 
ATOM     11  C   UNL     1     -10.570 -10.251  20.085  0.00  0.00    +0.024 C 
ATOM     12  C   UNL     1     -11.298 -11.643  17.713  0.00  0.00    +0.089 C 
ATOM     13  C   UNL     1     -12.994 -10.134  19.576  0.00  0.00    +0.019 C 
ATOM     14  C   UNL     1     -13.048 -11.656  19.358  0.00  0.00    +0.085 C 
ENDROOT
BRANCH   9  15
ATOM     15  C   UNL     1     -10.134  -9.482  17.055  0.00  0.00    +0.089 C 
BRANCH  15   4
ATOM      4  N   UNL     1     -10.512  -8.543  15.999  0.00  0.00    -0.299 NA
ATOM      6  N   UNL     1     -12.125  -6.555  14.733  0.00  0.00    -0.327 N 
ATOM     17  C   UNL     1     -10.542  -7.171  16.517  0.00  0.00    +0.103 C 
ATOM     18  C   UNL     1     -11.824  -8.896  15.442  0.00  0.00    +0.103 C 
ATOM     19  C   UNL     1     -10.882  -6.171  15.408  0.00  0.00    +0.120 C 
ATOM     20  C   UNL     1     -12.206  -7.956  14.297  0.00  0.00    +0.120 C 
BRANCH   6  22
ATOM     22  C   UNL     1     -12.845  -5.599  14.008  0.00  0.00    +0.030 A 
ATOM     23  C   UNL     1     -14.240  -5.628  14.007  0.00  0.00    +0.023 A 
ATOM     24  C   UNL     1     -12.168  -4.613  13.291  0.00  0.00    +0.023 A 
ATOM     26  C   UNL     1     -14.957  -4.671  13.288  0.00  0.00    +0.002 A 
ATOM     27  C   UNL     1     -12.885  -3.656  12.572  0.00  0.00    +0.002 A 
ATOM     28  C   UNL     1     -14.280  -3.686  12.571  0.00  0.00    +0.000 A 
ENDBRANCH   6  22
ENDBRANCH  15   4
ENDBRANCH   9  15
BRANCH  10  16
ATOM     16  C   UNL     1      -9.427 -12.525  20.005  0.00  0.00    +0.124 C 
BRANCH  16   5
ATOM      2  O   UNL     1      -7.578 -13.050  17.881  0.00  0.00    -0.253 OA
ATOM      5  N   UNL     1      -8.374 -11.642  19.530  0.00  0.00    -0.298 N 
ATOM      7  N   UNL     1      -6.612 -10.943  18.251  0.00  0.00    -0.269 N 
ATOM     21  C   UNL     1      -7.518 -11.982  18.485  0.00  0.00    +0.304 C 
ATOM     35  H   UNL     1      -8.261 -10.742  19.987  0.00  0.00    +0.150 HD
ATOM     36  H   UNL     1      -6.698 -10.122  18.845  0.00  0.00    +0.156 HD
BRANCH   7  25
ATOM     25  C   UNL     1      -5.583 -10.890  17.283  0.00  0.00    +0.036 A 
ATOM     29  C   UNL     1      -5.896 -10.652  15.945  0.00  0.00    +0.038 A 
ATOM     30  C   UNL     1      -4.255 -11.079  17.667  0.00  0.00    +0.023 A 
ATOM     31  C   UNL     1      -4.880 -10.599  14.990  0.00  0.00    +0.009 A 
ATOM     32  C   UNL     1      -3.239 -11.027  16.712  0.00  0.00    +0.003 A 
ATOM     33  C   UNL     1      -3.552 -10.788  15.374  0.00  0.00    +0.015 A 
BRANCH  31   1
ATOM      1  S   UNL     1      -5.278 -10.292  13.280  0.00  0.00    -0.129 S 
ATOM     34  C   UNL     1      -3.638 -10.343  12.505  0.00  0.00    +0.090 C 
ENDBRANCH  31   1
ENDBRANCH   7  25
ENDBRANCH  16   5
ENDBRANCH  10  16
TORSDOF 7
ENDMDL
MODEL 6
REMARK VINA RESULT:      -7.4     28.932     30.591
REMARK  Name = 40777193
REMARK  8 active torsions:
REMARK  status: ('A' for Active; 'I' for Inactive)
REMARK    1  A    between atoms: S_1  and  C_31
REMARK    2  A    between atoms: S_1  and  C_34
REMARK    3  A    between atoms: N_4  and  C_15
REMARK    4  A    between atoms: N_5  and  C_16
REMARK    5  A    between atoms: N_6  and  C_22
REMARK    6  A    between atoms: N_7  and  C_25
REMARK    7  A    between atoms: C_9  and  C_15
REMARK    8  A    between atoms: C_10  and  C_16
REMARK                            x       y       z     vdW  Elec       q    Type
REMARK                         _______ _______ _______ _____ _____    ______ ____
ROOT
ATOM      3  N   UNL     1      -6.222 -10.074  18.697  0.00  0.00    -0.298 NA
ATOM      8  C   UNL     1      -6.756 -12.608  18.448  0.00  0.00    -0.003 C 
ATOM      9  C   UNL     1      -5.330 -12.292  17.942  0.00  0.00    +0.020 C 
ATOM     10  C   UNL     1      -7.508 -10.256  17.969  0.00  0.00    +0.074 C 
ATOM     11  C   UNL     1      -7.773 -11.749  17.676  0.00  0.00    +0.024 C 
ATOM     12  C   UNL     1      -5.122 -10.760  17.978  0.00  0.00    +0.089 C 
ATOM     13  C   UNL     1      -6.814 -12.168  19.924  0.00  0.00    +0.019 C 
ATOM     14  C   UNL     1      -6.364 -10.700  20.033  0.00  0.00    +0.085 C 
ENDROOT
BRANCH   9  15
ATOM     15  C   UNL     1      -5.042 -12.866  16.557  0.00  0.00    +0.089 C 
BRANCH  15   4
ATOM      4  N   UNL     1      -4.968 -11.803  15.556  0.00  0.00    -0.299 NA
ATOM      6  N   UNL     1      -4.675 -10.704  12.936  0.00  0.00    -0.327 N 
ATOM     17  C   UNL     1      -6.037 -11.955  14.563  0.00  0.00    +0.103 C 
ATOM     18  C   UNL     1      -3.660 -11.814  14.888  0.00  0.00    +0.103 C 
ATOM     19  C   UNL     1      -6.006 -10.816  13.540  0.00  0.00    +0.120 C 
ATOM     20  C   UNL     1      -3.549 -10.670  13.878  0.00  0.00    +0.120 C 
BRANCH   6  22
ATOM     22  C   UNL     1      -4.524 -10.052  11.707  0.00  0.00    +0.030 A 
ATOM     23  C   UNL     1      -5.642  -9.545  11.045  0.00  0.00    +0.023 A 
ATOM     24  C   UNL     1      -3.255  -9.905  11.147  0.00  0.00    +0.023 A 
ATOM     26  C   UNL     1      -5.491  -8.891   9.821  0.00  0.00    +0.002 A 
ATOM     27  C   UNL     1      -3.104  -9.251   9.924  0.00  0.00    +0.002 A 
ATOM     28  C   UNL     1      -4.223  -8.744   9.262  0.00  0.00    +0.000 A 
ENDBRANCH   6  22
ENDBRANCH  15   4
ENDBRANCH   9  15
BRANCH  10  16
ATOM     16  C   UNL     1      -7.584  -9.405  16.699  0.00  0.00    +0.124 C 
BRANCH  16   5
ATOM      2  O   UNL     1      -9.808  -8.978  14.945  0.00  0.00    -0.253 OA
ATOM      5  N   UNL     1      -8.606  -8.379  16.826  0.00  0.00    -0.298 N 
ATOM      7  N   UNL     1     -10.478  -7.178  16.295  0.00  0.00    -0.269 N 
ATOM     21  C   UNL     1      -9.657  -8.245  15.921  0.00  0.00    +0.304 C 
ATOM     35  H   UNL     1      -8.544  -7.733  17.607  0.00  0.00    +0.150 HD
ATOM     36  H   UNL     1     -10.211  -6.670  17.135  0.00  0.00    +0.156 HD
BRANCH   7  25
ATOM     25  C   UNL     1     -11.645  -6.712  15.647  0.00  0.00    +0.036 A 
ATOM     29  C   UNL     1     -12.894  -7.215  16.011  0.00  0.00    +0.038 A 
ATOM     30  C   UNL     1     -11.547  -5.749  14.643  0.00  0.00    +0.023 A 
ATOM     31  C   UNL     1     -14.045  -6.754  15.372  0.00  0.00    +0.009 A 
ATOM     32  C   UNL     1     -12.698  -5.288  14.003  0.00  0.00    +0.003 A 
ATOM     33  C   UNL     1     -13.947  -5.792  14.367  0.00  0.00    +0.015 A 
BRANCH  31   1
ATOM      1  S   UNL     1     -15.642  -7.396  15.838  0.00  0.00    -0.129 S 
ATOM     34  C   UNL     1     -15.792  -8.837  14.745  0.00  0.00    +0.090 C 
ENDBRANCH  31   1
ENDBRANCH   7  25
ENDBRANCH  16   5
ENDBRANCH  10  16
TORSDOF 7
ENDMDL
MODEL 7
REMARK VINA RESULT:      -7.4     28.482     31.697
REMARK  Name = 40777193
REMARK  8 active torsions:
REMARK  status: ('A' for Active; 'I' for Inactive)
REMARK    1  A    between atoms: S_1  and  C_31
REMARK    2  A    between atoms: S_1  and  C_34
REMARK    3  A    between atoms: N_4  and  C_15
REMARK    4  A    between atoms: N_5  and  C_16
REMARK    5  A    between atoms: N_6  and  C_22
REMARK    6  A    between atoms: N_7  and  C_25
REMARK    7  A    between atoms: C_9  and  C_15
REMARK    8  A    between atoms: C_10  and  C_16
REMARK                            x       y       z     vdW  Elec       q    Type
REMARK                         _______ _______ _______ _____ _____    ______ ____
ROOT
ATOM      3  N   UNL     1      -6.729 -12.811  18.417  0.00  0.00    -0.298 NA
ATOM      8  C   UNL     1      -6.068 -10.305  18.648  0.00  0.00    -0.003 C 
ATOM      9  C   UNL     1      -7.280 -10.471  17.704  0.00  0.00    +0.020 C 
ATOM     10  C   UNL     1      -5.278 -12.638  18.134  0.00  0.00    +0.074 C 
ATOM     11  C   UNL     1      -4.890 -11.143  18.117  0.00  0.00    +0.024 C 
ATOM     12  C   UNL     1      -7.537 -11.981  17.491  0.00  0.00    +0.089 C 
ATOM     13  C   UNL     1      -6.476 -10.902  20.009  0.00  0.00    +0.019 C 
ATOM     14  C   UNL     1      -6.983 -12.341  19.800  0.00  0.00    +0.085 C 
ENDROOT
BRANCH   9  15
ATOM     15  C   UNL     1      -7.115  -9.735  16.377  0.00  0.00    +0.089 C 
BRANCH  15   4
ATOM      4  N   UNL     1      -8.284  -8.903  16.093  0.00  0.00    -0.299 NA
ATOM      6  N   UNL     1     -11.065  -8.257  16.000  0.00  0.00    -0.327 N 
ATOM     17  C   UNL     1      -9.020  -8.610  17.328  0.00  0.00    +0.103 C 
ATOM     18  C   UNL     1      -9.170  -9.570  15.130  0.00  0.00    +0.103 C 
ATOM     19  C   UNL     1     -10.215  -7.692  17.053  0.00  0.00    +0.120 C 
ATOM     20  C   UNL     1     -10.367  -8.684  14.781  0.00  0.00    +0.120 C 
BRANCH   6  22
ATOM     22  C   UNL     1     -12.396  -7.839  15.886  0.00  0.00    +0.030 A 
ATOM     23  C   UNL     1     -12.723  -6.778  15.043  0.00  0.00    +0.023 A 
ATOM     24  C   UNL     1     -13.394  -8.488  16.612  0.00  0.00    +0.023 A 
ATOM     26  C   UNL     1     -14.051  -6.365  14.926  0.00  0.00    +0.002 A 
ATOM     27  C   UNL     1     -14.722  -8.075  16.495  0.00  0.00    +0.002 A 
ATOM     28  C   UNL     1     -15.049  -7.013  15.651  0.00  0.00    +0.000 A 
ENDBRANCH   6  22
ENDBRANCH  15   4
ENDBRANCH   9  15
BRANCH  10  16
ATOM     16  C   UNL     1      -4.845 -13.352  16.852  0.00  0.00    +0.124 C 
BRANCH  16   5
ATOM      2  O   UNL     1      -5.517 -12.401  14.235  0.00  0.00    -0.253 OA
ATOM      5  N   UNL     1      -4.046 -12.472  16.015  0.00  0.00    -0.298 N 
ATOM      7  N   UNL     1      -3.487 -11.222  14.184  0.00  0.00    -0.269 N 
ATOM     21  C   UNL     1      -4.454 -12.058  14.749  0.00  0.00    +0.304 C 
ATOM     35  H   UNL     1      -3.151 -12.153  16.373  0.00  0.00    +0.150 HD
ATOM     36  H   UNL     1      -2.659 -11.038  14.746  0.00  0.00    +0.156 HD
BRANCH   7  25
ATOM     25  C   UNL     1      -3.516 -10.594  12.918  0.00  0.00    +0.036 A 
ATOM     29  C   UNL     1      -4.724 -10.135  12.394  0.00  0.00    +0.038 A 
ATOM     30  C   UNL     1      -2.335 -10.434  12.192  0.00  0.00    +0.023 A 
ATOM     31  C   UNL     1      -4.752  -9.515  11.145  0.00  0.00    +0.009 A 
ATOM     32  C   UNL     1      -2.363  -9.814  10.943  0.00  0.00    +0.003 A 
ATOM     33  C   UNL     1      -3.572  -9.355  10.419  0.00  0.00    +0.015 A 
BRANCH  31   1
ATOM      1  S   UNL     1      -6.296  -8.927  10.476  0.00  0.00    -0.129 S 
ATOM     34  C   UNL     1      -6.957 -10.429   9.701  0.00  0.00    +0.090 C 
ENDBRANCH  31   1
ENDBRANCH   7  25
ENDBRANCH  16   5
ENDBRANCH  10  16
TORSDOF 7
ENDMDL
MODEL 8
REMARK VINA RESULT:      -7.2     27.588     31.103
REMARK  Name = 40777193
REMARK  8 active torsions:
REMARK  status: ('A' for Active; 'I' for Inactive)
REMARK    1  A    between atoms: S_1  and  C_31
REMARK    2  A    between atoms: S_1  and  C_34
REMARK    3  A    between atoms: N_4  and  C_15
REMARK    4  A    between atoms: N_5  and  C_16
REMARK    5  A    between atoms: N_6  and  C_22
REMARK    6  A    between atoms: N_7  and  C_25
REMARK    7  A    between atoms: C_9  and  C_15
REMARK    8  A    between atoms: C_10  and  C_16
REMARK                            x       y       z     vdW  Elec       q    Type
REMARK                         _______ _______ _______ _____ _____    ______ ____
ROOT
ATOM      3  N   UNL     1      -7.444 -11.884   6.741  0.00  0.00    -0.298 NA
ATOM      8  C   UNL     1      -5.772  -9.937   6.312  0.00  0.00    -0.003 C 
ATOM      9  C   UNL     1      -5.533 -10.574   7.700  0.00  0.00    +0.020 C 
ATOM     10  C   UNL     1      -8.183 -10.657   6.336  0.00  0.00    +0.074 C 
ATOM     11  C   UNL     1      -7.229  -9.447   6.221  0.00  0.00    +0.024 C 
ATOM     12  C   UNL     1      -6.640 -11.622   7.959  0.00  0.00    +0.089 C 
ATOM     13  C   UNL     1      -5.601 -11.058   5.270  0.00  0.00    +0.019 C 
ATOM     14  C   UNL     1      -6.514 -12.240   5.641  0.00  0.00    +0.085 C 
ENDROOT
BRANCH   9  15
ATOM     15  C   UNL     1      -5.454  -9.548   8.828  0.00  0.00    +0.089 C 
BRANCH  15   4
ATOM      4  N   UNL     1      -5.019 -10.177  10.075  0.00  0.00    -0.299 NA
ATOM      6  N   UNL     1      -3.784 -10.286  12.648  0.00  0.00    -0.327 N 
ATOM     17  C   UNL     1      -5.647  -9.522  11.228  0.00  0.00    +0.103 C 
ATOM     18  C   UNL     1      -3.557 -10.117  10.200  0.00  0.00    +0.103 C 
ATOM     19  C   UNL     1      -5.245 -10.207  12.537  0.00  0.00    +0.120 C 
ATOM     20  C   UNL     1      -3.086 -10.823  11.473  0.00  0.00    +0.120 C 
BRANCH   6  22
ATOM     22  C   UNL     1      -3.193 -10.465  13.904  0.00  0.00    +0.030 A 
ATOM     23  C   UNL     1      -3.988 -10.752  15.014  0.00  0.00    +0.023 A 
ATOM     24  C   UNL     1      -1.810 -10.361  14.044  0.00  0.00    +0.023 A 
ATOM     26  C   UNL     1      -3.397 -10.935  16.265  0.00  0.00    +0.002 A 
ATOM     27  C   UNL     1      -1.220 -10.543  15.295  0.00  0.00    +0.002 A 
ATOM     28  C   UNL     1      -2.014 -10.831  16.406  0.00  0.00    +0.000 A 
ENDBRANCH   6  22
ENDBRANCH  15   4
ENDBRANCH   9  15
BRANCH  10  16
ATOM     16  C   UNL     1      -9.369 -10.361   7.256  0.00  0.00    +0.124 C 
BRANCH  16   5
ATOM      2  O   UNL     1     -11.405  -8.431   7.833  0.00  0.00    -0.253 OA
ATOM      5  N   UNL     1      -9.192  -9.086   7.932  0.00  0.00    -0.298 N 
ATOM      7  N   UNL     1      -9.777  -7.069   8.835  0.00  0.00    -0.269 N 
ATOM     21  C   UNL     1     -10.246  -8.206   8.172  0.00  0.00    +0.304 C 
ATOM     35  H   UNL     1      -8.258  -8.830   8.236  0.00  0.00    +0.150 HD
ATOM     36  H   UNL     1      -8.782  -7.039   9.043  0.00  0.00    +0.156 HD
BRANCH   7  25
ATOM     25  C   UNL     1     -10.520  -5.943   9.258  0.00  0.00    +0.036 A 
ATOM     29  C   UNL     1     -11.560  -6.098  10.174  0.00  0.00    +0.038 A 
ATOM     30  C   UNL     1     -10.215  -4.678   8.757  0.00  0.00    +0.023 A 
ATOM     31  C   UNL     1     -12.293  -4.987  10.592  0.00  0.00    +0.009 A 
ATOM     32  C   UNL     1     -10.948  -3.566   9.174  0.00  0.00    +0.003 A 
ATOM     33  C   UNL     1     -11.988  -3.721  10.091  0.00  0.00    +0.015 A 
BRANCH  31   1
ATOM      1  S   UNL     1     -13.622  -5.184  11.765  0.00  0.00    -0.129 S 
ATOM     34  C   UNL     1     -12.827  -4.663  13.311  0.00  0.00    +0.090 C 
ENDBRANCH  31   1
ENDBRANCH   7  25
ENDBRANCH  16   5
ENDBRANCH  10  16
TORSDOF 7
ENDMDL
MODEL 9
REMARK VINA RESULT:      -7.2     28.576     32.954
REMARK  Name = 40777193
REMARK  8 active torsions:
REMARK  status: ('A' for Active; 'I' for Inactive)
REMARK    1  A    between atoms: S_1  and  C_31
REMARK    2  A    between atoms: S_1  and  C_34
REMARK    3  A    between atoms: N_4  and  C_15
REMARK    4  A    between atoms: N_5  and  C_16
REMARK    5  A    between atoms: N_6  and  C_22
REMARK    6  A    between atoms: N_7  and  C_25
REMARK    7  A    between atoms: C_9  and  C_15
REMARK    8  A    between atoms: C_10  and  C_16
REMARK                            x       y       z     vdW  Elec       q    Type
REMARK                         _______ _______ _______ _____ _____    ______ ____
ROOT
ATOM      3  N   UNL     1     -12.716  -8.511  14.484  0.00  0.00    -0.298 NA
ATOM      8  C   UNL     1     -12.772  -6.255  15.780  0.00  0.00    -0.003 C 
ATOM      9  C   UNL     1     -12.920  -6.022  14.259  0.00  0.00    +0.020 C 
ATOM     10  C   UNL     1     -11.535  -8.410  15.385  0.00  0.00    +0.074 C 
ATOM     11  C   UNL     1     -11.464  -7.020  16.053  0.00  0.00    +0.024 C 
ATOM     12  C   UNL     1     -12.736  -7.374  13.533  0.00  0.00    +0.089 C 
ATOM     13  C   UNL     1     -13.934  -7.172  16.207  0.00  0.00    +0.019 C 
ATOM     14  C   UNL     1     -13.937  -8.432  15.323  0.00  0.00    +0.085 C 
ENDROOT
BRANCH   9  15
ATOM     15  C   UNL     1     -11.969  -4.957  13.718  0.00  0.00    +0.089 C 
BRANCH  15   4
ATOM      4  N   UNL     1     -12.685  -3.993  12.884  0.00  0.00    -0.299 NA
ATOM      6  N   UNL     1     -14.540  -3.147  10.883  0.00  0.00    -0.327 N 
ATOM     17  C   UNL     1     -14.130  -4.074  13.128  0.00  0.00    +0.103 C 
ATOM     18  C   UNL     1     -12.405  -4.233  11.462  0.00  0.00    +0.103 C 
ATOM     19  C   UNL     1     -14.888  -3.030  12.303  0.00  0.00    +0.120 C 
ATOM     20  C   UNL     1     -13.103  -3.194  10.582  0.00  0.00    +0.120 C 
BRANCH   6  22
ATOM     22  C   UNL     1     -15.398  -2.616   9.913  0.00  0.00    +0.030 A 
ATOM     23  C   UNL     1     -15.118  -2.797   8.559  0.00  0.00    +0.023 A 
ATOM     24  C   UNL     1     -16.536  -1.910  10.302  0.00  0.00    +0.023 A 
ATOM     26  C   UNL     1     -15.976  -2.272   7.593  0.00  0.00    +0.002 A 
ATOM     27  C   UNL     1     -17.395  -1.384   9.336  0.00  0.00    +0.002 A 
ATOM     28  C   UNL     1     -17.114  -1.566   7.981  0.00  0.00    +0.000 A 
ENDBRANCH   6  22
ENDBRANCH  15   4
ENDBRANCH   9  15
BRANCH  10  16
ATOM     16  C   UNL     1     -10.228  -8.768  14.674  0.00  0.00    +0.124 C 
BRANCH  16   5
ATOM      2  O   UNL     1      -8.173 -10.714  15.113  0.00  0.00    -0.253 OA
ATOM      5  N   UNL     1      -9.099  -8.649  15.581  0.00  0.00    -0.298 N 
ATOM      7  N   UNL     1      -7.181  -9.261  16.667  0.00  0.00    -0.269 N 
ATOM     21  C   UNL     1      -8.142  -9.652  15.731  0.00  0.00    +0.304 C 
ATOM     35  H   UNL     1      -9.011  -7.800  16.130  0.00  0.00    +0.150 HD
ATOM     36  H   UNL     1      -7.304  -8.344  17.090  0.00  0.00    +0.156 HD
BRANCH   7  25
ATOM     25  C   UNL     1      -6.049  -9.986  17.103  0.00  0.00    +0.036 A 
ATOM     29  C   UNL     1      -4.916 -10.065  16.293  0.00  0.00    +0.038 A 
ATOM     30  C   UNL     1      -6.065 -10.624  18.343  0.00  0.00    +0.023 A 
ATOM     31  C   UNL     1      -3.799 -10.781  16.724  0.00  0.00    +0.009 A 
ATOM     32  C   UNL     1      -4.948 -11.340  18.774  0.00  0.00    +0.003 A 
ATOM     33  C   UNL     1      -3.816 -11.420  17.964  0.00  0.00    +0.015 A 
BRANCH  31   1
ATOM      1  S   UNL     1      -2.351 -10.881  15.689  0.00  0.00    -0.129 S 
ATOM     34  C   UNL     1      -2.715 -12.350  14.688  0.00  0.00    +0.090 C 
ENDBRANCH  31   1
ENDBRANCH   7  25
ENDBRANCH  16   5
ENDBRANCH  10  16
TORSDOF 7
ENDMDL
MODEL 10
REMARK VINA RESULT:      -7.1     28.782     31.955
REMARK  Name = 40777193
REMARK  8 active torsions:
REMARK  status: ('A' for Active; 'I' for Inactive)
REMARK    1  A    between atoms: S_1  and  C_31
REMARK    2  A    between atoms: S_1  and  C_34
REMARK    3  A    between atoms: N_4  and  C_15
REMARK    4  A    between atoms: N_5  and  C_16
REMARK    5  A    between atoms: N_6  and  C_22
REMARK    6  A    between atoms: N_7  and  C_25
REMARK    7  A    between atoms: C_9  and  C_15
REMARK    8  A    between atoms: C_10  and  C_16
REMARK                            x       y       z     vdW  Elec       q    Type
REMARK                         _______ _______ _______ _____ _____    ______ ____
ROOT
ATOM      3  N   UNL     1      -5.890  -8.610   9.759  0.00  0.00    -0.298 NA
ATOM      8  C   UNL     1      -6.805 -10.129   7.855  0.00  0.00    -0.003 C 
ATOM      9  C   UNL     1      -7.267  -8.666   7.664  0.00  0.00    +0.020 C 
ATOM     10  C   UNL     1      -6.582  -9.794  10.338  0.00  0.00    +0.074 C 
ATOM     11  C   UNL     1      -7.264 -10.633   9.235  0.00  0.00    +0.024 C 
ATOM     12  C   UNL     1      -6.818  -7.843   8.894  0.00  0.00    +0.089 C 
ATOM     13  C   UNL     1      -5.265 -10.113   7.863  0.00  0.00    +0.019 C 
ATOM     14  C   UNL     1      -4.774  -9.103   8.916  0.00  0.00    +0.085 C 
ENDROOT
BRANCH   9  15
ATOM     15  C   UNL     1      -8.768  -8.536   7.418  0.00  0.00    +0.089 C 
BRANCH  15   4
ATOM      4  N   UNL     1      -9.362  -7.552   8.322  0.00  0.00    -0.299 NA
ATOM      6  N   UNL     1     -11.400  -5.807   9.301  0.00  0.00    -0.327 N 
ATOM     17  C   UNL     1     -10.565  -8.099   8.960  0.00  0.00    +0.103 C 
ATOM     18  C   UNL     1      -9.698  -6.321   7.595  0.00  0.00    +0.103 C 
ATOM     19  C   UNL     1     -11.166  -7.099   9.953  0.00  0.00    +0.120 C 
ATOM     20  C   UNL     1     -10.267  -5.262   8.542  0.00  0.00    +0.120 C 
BRANCH   6  22
ATOM     22  C   UNL     1     -12.312  -4.904   9.861  0.00  0.00    +0.030 A 
ATOM     23  C   UNL     1     -12.297  -4.658  11.233  0.00  0.00    +0.023 A 
ATOM     24  C   UNL     1     -13.233  -4.249   9.044  0.00  0.00    +0.023 A 
ATOM     26  C   UNL     1     -13.204  -3.755  11.789  0.00  0.00    +0.002 A 
ATOM     27  C   UNL     1     -14.140  -3.346   9.600  0.00  0.00    +0.002 A 
ATOM     28  C   UNL     1     -14.124  -3.099  10.974  0.00  0.00    +0.000 A 
ENDBRANCH   6  22
ENDBRANCH  15   4
ENDBRANCH   9  15
BRANCH  10  16
ATOM     16  C   UNL     1      -7.562  -9.410  11.448  0.00  0.00    +0.124 C 
BRANCH  16   5
ATOM      2  O   UNL     1      -7.380 -11.096  13.757  0.00  0.00    -0.253 OA
ATOM      5  N   UNL     1      -6.854  -9.118  12.684  0.00  0.00    -0.298 N 
ATOM      7  N   UNL     1      -6.067  -9.455  14.804  0.00  0.00    -0.269 N 
ATOM     21  C   UNL     1      -6.819 -10.003  13.760  0.00  0.00    +0.304 C 
ATOM     35  H   UNL     1      -6.370  -8.229  12.761  0.00  0.00    +0.150 HD
ATOM     36  H   UNL     1      -5.668  -8.534  14.644  0.00  0.00    +0.156 HD
BRANCH   7  25
ATOM     25  C   UNL     1      -5.790 -10.029  16.066  0.00  0.00    +0.036 A 
ATOM     29  C   UNL     1      -6.821 -10.233  16.982  0.00  0.00    +0.038 A 
ATOM     30  C   UNL     1      -4.483 -10.389  16.396  0.00  0.00    +0.023 A 
ATOM     31  C   UNL     1      -6.547 -10.799  18.227  0.00  0.00    +0.009 A 
ATOM     32  C   UNL     1      -4.208 -10.955  17.641  0.00  0.00    +0.003 A 
ATOM     33  C   UNL     1      -5.240 -11.160  18.557  0.00  0.00    +0.015 A 
BRANCH  31   1
ATOM      1  S   UNL     1      -7.866 -11.062  19.398  0.00  0.00    -0.129 S 
ATOM     34  C   UNL     1      -7.980 -12.873  19.421  0.00  0.00    +0.090 C 
ENDBRANCH  31   1
ENDBRANCH   7  25
ENDBRANCH  16   5
ENDBRANCH  10  16
TORSDOF 7
ENDMDL
