MODEL 1
REMARK VINA RESULT:      -7.2      0.000      0.000
REMARK  Name = 40777423
REMARK  12 active torsions:
REMARK  status: ('A' for Active; 'I' for Inactive)
REMARK    1  A    between atoms: O_3  and  C_28
REMARK    2  A    between atoms: O_3  and  C_29
REMARK    3  A    between atoms: N_5  and  C_18
REMARK    4  A    between atoms: N_7  and  C_20
REMARK    5  A    between atoms: N_7  and  C_24
REMARK    6  A    between atoms: N_7  and  C_25
REMARK    7  A    between atoms: C_8  and  C_14
REMARK    8  A    between atoms: C_9  and  C_13
REMARK    9  A    between atoms: C_13  and  C_15
REMARK   10  A    between atoms: C_14  and  C_16
REMARK   11  A    between atoms: C_18  and  C_20
REMARK   12  A    between atoms: C_19  and  C_21
REMARK                            x       y       z     vdW  Elec       q    Type
REMARK                         _______ _______ _______ _____ _____    ______ ____
ROOT
ATOM      4  N   UNL     1      11.744   5.950  20.669  0.00  0.00    -0.316 NA
ATOM      8  C   UNL     1      11.817   8.884  20.364  0.00  0.00    +0.004 C 
ATOM      9  C   UNL     1      12.628   7.928  19.458  0.00  0.00    +0.012 C 
ATOM     10  C   UNL     1      10.607   8.126  20.935  0.00  0.00    +0.019 C 
ATOM     11  C   UNL     1      12.953   6.606  20.172  0.00  0.00    +0.085 C 
ATOM     12  C   UNL     1      11.002   6.805  21.593  0.00  0.00    +0.081 C 
ATOM     30  H   UNL     1      12.000   5.084  21.143  0.00  0.00    +0.122 HD
ENDROOT
BRANCH   9  13
ATOM     13  C   UNL     1      13.903   8.566  18.902  0.00  0.00    +0.064 C 
BRANCH  13  15
ATOM      2  O   UNL     1      16.446   6.017  18.905  0.00  0.00    -0.354 OA
ATOM      6  N   UNL     1      15.258   6.569  18.439  0.00  0.00    -0.083 NA
ATOM     15  C   UNL     1      15.101   7.694  19.142  0.00  0.00    +0.085 A 
ATOM     17  C   UNL     1      16.147   7.901  20.058  0.00  0.00    +0.076 A 
ATOM     19  C   UNL     1      16.966   6.820  19.868  0.00  0.00    +0.167 A 
BRANCH  19  21
ATOM     21  C   UNL     1      18.200   6.376  20.447  0.00  0.00    +0.020 A 
ATOM     22  C   UNL     1      18.675   6.969  21.617  0.00  0.00    +0.015 A 
ATOM     23  C   UNL     1      18.926   5.351  19.841  0.00  0.00    +0.015 A 
ATOM     26  C   UNL     1      19.876   6.537  22.180  0.00  0.00    +0.046 A 
ATOM     27  C   UNL     1      20.127   4.918  20.404  0.00  0.00    +0.046 A 
ATOM     28  C   UNL     1      20.602   5.512  21.573  0.00  0.00    +0.120 A 
BRANCH  28   3
ATOM      3  O   UNL     1      21.773   5.089  22.124  0.00  0.00    -0.495 OA
ATOM     29  C   UNL     1      22.121   3.719  21.935  0.00  0.00    +0.277 C 
ENDBRANCH  28   3
ENDBRANCH  19  21
ENDBRANCH  13  15
ENDBRANCH   9  13
BRANCH   8  14
ATOM     14  C   UNL     1      12.639   9.525  21.489  0.00  0.00    +0.099 C 
BRANCH  14  16
ATOM      1  O   UNL     1      11.368  11.572  21.702  0.00  0.00    -0.276 OA
ATOM      5  N   UNL     1      11.776  10.281  23.590  0.00  0.00    -0.314 N 
ATOM     16  C   UNL     1      11.857  10.582  22.238  0.00  0.00    +0.213 C 
ATOM     31  H   UNL     1      12.210   9.429  23.936  0.00  0.00    +0.149 HD
BRANCH   5  18
ATOM     18  C   UNL     1      11.089  11.119  24.546  0.00  0.00    +0.119 C 
BRANCH  18  20
ATOM     20  C   UNL     1      12.026  12.160  25.139  0.00  0.00    +0.102 C 
BRANCH  20   7
ATOM      7  N   UNL     1      11.266  13.296  25.644  0.00  0.00    -0.307 NA
ATOM     24  C   UNL     1      12.166  14.360  26.094  0.00  0.00    +0.104 C 
ATOM     25  C   UNL     1      10.353  13.805  24.618  0.00  0.00    +0.104 C 
ENDBRANCH  20   7
ENDBRANCH  18  20
ENDBRANCH   5  18
ENDBRANCH  14  16
ENDBRANCH   8  14
TORSDOF 9
ENDMDL
MODEL 2
REMARK VINA RESULT:      -6.9      1.929      2.882
REMARK  Name = 40777423
REMARK  12 active torsions:
REMARK  status: ('A' for Active; 'I' for Inactive)
REMARK    1  A    between atoms: O_3  and  C_28
REMARK    2  A    between atoms: O_3  and  C_29
REMARK    3  A    between atoms: N_5  and  C_18
REMARK    4  A    between atoms: N_7  and  C_20
REMARK    5  A    between atoms: N_7  and  C_24
REMARK    6  A    between atoms: N_7  and  C_25
REMARK    7  A    between atoms: C_8  and  C_14
REMARK    8  A    between atoms: C_9  and  C_13
REMARK    9  A    between atoms: C_13  and  C_15
REMARK   10  A    between atoms: C_14  and  C_16
REMARK   11  A    between atoms: C_18  and  C_20
REMARK   12  A    between atoms: C_19  and  C_21
REMARK                            x       y       z     vdW  Elec       q    Type
REMARK                         _______ _______ _______ _____ _____    ______ ____
ROOT
ATOM      4  N   UNL     1      13.941   8.497  15.931  0.00  0.00    -0.316 NA
ATOM      8  C   UNL     1      13.119   9.095  18.701  0.00  0.00    +0.004 C 
ATOM      9  C   UNL     1      14.253   8.099  18.362  0.00  0.00    +0.012 C 
ATOM     10  C   UNL     1      12.966  10.095  17.543  0.00  0.00    +0.019 C 
ATOM     11  C   UNL     1      14.063   7.474  16.970  0.00  0.00    +0.085 C 
ATOM     12  C   UNL     1      12.823   9.403  16.189  0.00  0.00    +0.081 C 
ATOM     30  H   UNL     1      13.808   8.046  15.026  0.00  0.00    +0.122 HD
ENDROOT
BRANCH   9  13
ATOM     13  C   UNL     1      14.431   7.009  19.420  0.00  0.00    +0.064 C 
BRANCH  13  15
ATOM      2  O   UNL     1      17.715   5.585  19.031  0.00  0.00    -0.354 OA
ATOM      6  N   UNL     1      16.396   5.764  18.629  0.00  0.00    -0.083 NA
ATOM     15  C   UNL     1      15.867   6.589  19.537  0.00  0.00    +0.085 A 
ATOM     17  C   UNL     1      16.795   6.959  20.526  0.00  0.00    +0.076 A 
ATOM     19  C   UNL     1      17.940   6.302  20.161  0.00  0.00    +0.167 A 
BRANCH  19  21
ATOM     21  C   UNL     1      19.267   6.215  20.698  0.00  0.00    +0.020 A 
ATOM     22  C   UNL     1      19.707   7.159  21.626  0.00  0.00    +0.015 A 
ATOM     23  C   UNL     1      20.117   5.186  20.292  0.00  0.00    +0.015 A 
ATOM     26  C   UNL     1      20.998   7.073  22.148  0.00  0.00    +0.046 A 
ATOM     27  C   UNL     1      21.408   5.101  20.814  0.00  0.00    +0.046 A 
ATOM     28  C   UNL     1      21.848   6.045  21.742  0.00  0.00    +0.120 A 
BRANCH  28   3
ATOM      3  O   UNL     1      23.107   5.960  22.254  0.00  0.00    -0.495 OA
ATOM     29  C   UNL     1      23.312   6.488  23.563  0.00  0.00    +0.277 C 
ENDBRANCH  28   3
ENDBRANCH  19  21
ENDBRANCH  13  15
ENDBRANCH   9  13
BRANCH   8  14
ATOM     14  C   UNL     1      11.777   8.426  19.024  0.00  0.00    +0.099 C 
BRANCH  14  16
ATOM      1  O   UNL     1      10.745   7.891  21.146  0.00  0.00    -0.276 OA
ATOM      5  N   UNL     1      11.637  10.011  20.813  0.00  0.00    -0.314 N 
ATOM     16  C   UNL     1      11.321   8.713  20.439  0.00  0.00    +0.213 C 
ATOM     31  H   UNL     1      12.124  10.613  20.155  0.00  0.00    +0.149 HD
BRANCH   5  18
ATOM     18  C   UNL     1      11.317  10.558  22.112  0.00  0.00    +0.119 C 
BRANCH  18  20
ATOM     20  C   UNL     1      11.228  12.076  22.063  0.00  0.00    +0.102 C 
BRANCH  20   7
ATOM      7  N   UNL     1      12.280  12.671  22.875  0.00  0.00    -0.307 NA
ATOM     24  C   UNL     1      12.786  11.707  23.854  0.00  0.00    +0.104 C 
ATOM     25  C   UNL     1      13.374  13.155  22.031  0.00  0.00    +0.104 C 
ENDBRANCH  20   7
ENDBRANCH  18  20
ENDBRANCH   5  18
ENDBRANCH  14  16
ENDBRANCH   8  14
TORSDOF 9
ENDMDL
MODEL 3
REMARK VINA RESULT:      -6.7     26.850     30.904
REMARK  Name = 40777423
REMARK  12 active torsions:
REMARK  status: ('A' for Active; 'I' for Inactive)
REMARK    1  A    between atoms: O_3  and  C_28
REMARK    2  A    between atoms: O_3  and  C_29
REMARK    3  A    between atoms: N_5  and  C_18
REMARK    4  A    between atoms: N_7  and  C_20
REMARK    5  A    between atoms: N_7  and  C_24
REMARK    6  A    between atoms: N_7  and  C_25
REMARK    7  A    between atoms: C_8  and  C_14
REMARK    8  A    between atoms: C_9  and  C_13
REMARK    9  A    between atoms: C_13  and  C_15
REMARK   10  A    between atoms: C_14  and  C_16
REMARK   11  A    between atoms: C_18  and  C_20
REMARK   12  A    between atoms: C_19  and  C_21
REMARK                            x       y       z     vdW  Elec       q    Type
REMARK                         _______ _______ _______ _____ _____    ______ ____
ROOT
ATOM      4  N   UNL     1     -19.298   4.233  25.502  0.00  0.00    -0.316 NA
ATOM      8  C   UNL     1     -16.710   4.083  26.912  0.00  0.00    +0.004 C 
ATOM      9  C   UNL     1     -16.820   4.159  25.371  0.00  0.00    +0.012 C 
ATOM     10  C   UNL     1     -17.974   4.696  27.536  0.00  0.00    +0.019 C 
ATOM     11  C   UNL     1     -18.153   3.582  24.866  0.00  0.00    +0.085 C 
ATOM     12  C   UNL     1     -19.258   4.103  26.958  0.00  0.00    +0.081 C 
ATOM     30  H   UNL     1     -20.161   3.819  25.150  0.00  0.00    +0.122 HD
ENDROOT
BRANCH   9  13
ATOM     13  C   UNL     1     -15.642   3.499  24.652  0.00  0.00    +0.064 C 
BRANCH  13  15
ATOM      2  O   UNL     1     -15.344   4.903  21.350  0.00  0.00    -0.354 OA
ATOM      6  N   UNL     1     -15.946   4.063  22.280  0.00  0.00    -0.083 NA
ATOM     15  C   UNL     1     -15.264   4.255  23.412  0.00  0.00    +0.085 A 
ATOM     17  C   UNL     1     -14.229   5.195  23.259  0.00  0.00    +0.076 A 
ATOM     19  C   UNL     1     -14.324   5.572  21.945  0.00  0.00    +0.167 A 
BRANCH  19  21
ATOM     21  C   UNL     1     -13.603   6.482  21.103  0.00  0.00    +0.020 A 
ATOM     22  C   UNL     1     -12.220   6.609  21.236  0.00  0.00    +0.015 A 
ATOM     23  C   UNL     1     -14.285   7.241  20.153  0.00  0.00    +0.015 A 
ATOM     26  C   UNL     1     -11.520   7.494  20.417  0.00  0.00    +0.046 A 
ATOM     27  C   UNL     1     -13.584   8.127  19.333  0.00  0.00    +0.046 A 
ATOM     28  C   UNL     1     -12.201   8.253  19.466  0.00  0.00    +0.120 A 
BRANCH  28   3
ATOM      3  O   UNL     1     -11.517   9.116  18.666  0.00  0.00    -0.495 OA
ATOM     29  C   UNL     1     -10.147   9.349  18.985  0.00  0.00    +0.277 C 
ENDBRANCH  28   3
ENDBRANCH  19  21
ENDBRANCH  13  15
ENDBRANCH   9  13
BRANCH   8  14
ATOM     14  C   UNL     1     -16.468   2.667  27.451  0.00  0.00    +0.099 C 
BRANCH  14  16
ATOM      1  O   UNL     1     -16.949   2.706  29.821  0.00  0.00    -0.276 OA
ATOM      5  N   UNL     1     -14.740   2.620  29.106  0.00  0.00    -0.314 N 
ATOM     16  C   UNL     1     -16.114   2.667  28.922  0.00  0.00    +0.213 C 
ATOM     31  H   UNL     1     -14.130   2.582  28.294  0.00  0.00    +0.149 HD
BRANCH   5  18
ATOM     18  C   UNL     1     -14.118   2.612  30.410  0.00  0.00    +0.119 C 
BRANCH  18  20
ATOM     20  C   UNL     1     -13.583   1.230  30.757  0.00  0.00    +0.102 C 
BRANCH  20   7
ATOM      7  N   UNL     1     -14.337   0.204  30.050  0.00  0.00    -0.307 NA
ATOM     24  C   UNL     1     -13.434  -0.785  29.458  0.00  0.00    +0.104 C 
ATOM     25  C   UNL     1     -15.286  -0.453  30.952  0.00  0.00    +0.104 C 
ENDBRANCH  20   7
ENDBRANCH  18  20
ENDBRANCH   5  18
ENDBRANCH  14  16
ENDBRANCH   8  14
TORSDOF 9
ENDMDL
MODEL 4
REMARK VINA RESULT:      -6.3     26.581     30.544
REMARK  Name = 40777423
REMARK  12 active torsions:
REMARK  status: ('A' for Active; 'I' for Inactive)
REMARK    1  A    between atoms: O_3  and  C_28
REMARK    2  A    between atoms: O_3  and  C_29
REMARK    3  A    between atoms: N_5  and  C_18
REMARK    4  A    between atoms: N_7  and  C_20
REMARK    5  A    between atoms: N_7  and  C_24
REMARK    6  A    between atoms: N_7  and  C_25
REMARK    7  A    between atoms: C_8  and  C_14
REMARK    8  A    between atoms: C_9  and  C_13
REMARK    9  A    between atoms: C_13  and  C_15
REMARK   10  A    between atoms: C_14  and  C_16
REMARK   11  A    between atoms: C_18  and  C_20
REMARK   12  A    between atoms: C_19  and  C_21
REMARK                            x       y       z     vdW  Elec       q    Type
REMARK                         _______ _______ _______ _____ _____    ______ ____
ROOT
ATOM      4  N   UNL     1     -18.237   2.558  23.394  0.00  0.00    -0.316 NA
ATOM      8  C   UNL     1     -17.027   4.068  25.622  0.00  0.00    +0.004 C 
ATOM      9  C   UNL     1     -16.443   4.080  24.189  0.00  0.00    +0.012 C 
ATOM     10  C   UNL     1     -18.524   3.727  25.551  0.00  0.00    +0.019 C 
ATOM     11  C   UNL     1     -16.793   2.794  23.422  0.00  0.00    +0.085 C 
ATOM     12  C   UNL     1     -18.798   2.461  24.740  0.00  0.00    +0.081 C 
ATOM     30  H   UNL     1     -18.428   1.694  22.886  0.00  0.00    +0.122 HD
ENDROOT
BRANCH   9  13
ATOM     13  C   UNL     1     -14.935   4.331  24.158  0.00  0.00    +0.064 C 
BRANCH  13  15
ATOM      2  O   UNL     1     -14.523   7.384  22.294  0.00  0.00    -0.354 OA
ATOM      6  N   UNL     1     -15.028   6.655  23.364  0.00  0.00    -0.083 NA
ATOM     15  C   UNL     1     -14.580   5.410  23.177  0.00  0.00    +0.085 A 
ATOM     17  C   UNL     1     -13.795   5.295  22.016  0.00  0.00    +0.076 A 
ATOM     19  C   UNL     1     -13.790   6.563  21.499  0.00  0.00    +0.167 A 
BRANCH  19  21
ATOM     21  C   UNL     1     -13.202   7.178  20.345  0.00  0.00    +0.020 A 
ATOM     22  C   UNL     1     -14.016   7.663  19.321  0.00  0.00    +0.015 A 
ATOM     23  C   UNL     1     -11.815   7.292  20.246  0.00  0.00    +0.015 A 
ATOM     26  C   UNL     1     -13.443   8.262  18.199  0.00  0.00    +0.046 A 
ATOM     27  C   UNL     1     -11.242   7.890  19.124  0.00  0.00    +0.046 A 
ATOM     28  C   UNL     1     -12.056   8.375  18.100  0.00  0.00    +0.120 A 
BRANCH  28   3
ATOM      3  O   UNL     1     -11.498   8.962  17.006  0.00  0.00    -0.495 OA
ATOM     29  C   UNL     1     -10.107   9.270  17.074  0.00  0.00    +0.277 C 
ENDBRANCH  28   3
ENDBRANCH  19  21
ENDBRANCH  13  15
ENDBRANCH   9  13
BRANCH   8  14
ATOM     14  C   UNL     1     -16.298   3.122  26.584  0.00  0.00    +0.099 C 
BRANCH  14  16
ATOM      1  O   UNL     1     -16.672   4.750  28.334  0.00  0.00    -0.276 OA
ATOM      5  N   UNL     1     -15.137   3.039  28.677  0.00  0.00    -0.314 N 
ATOM     16  C   UNL     1     -16.081   3.747  27.946  0.00  0.00    +0.213 C 
ATOM     31  H   UNL     1     -14.709   2.214  28.268  0.00  0.00    +0.149 HD
BRANCH   5  18
ATOM     18  C   UNL     1     -14.732   3.413  30.013  0.00  0.00    +0.119 C 
BRANCH  18  20
ATOM     20  C   UNL     1     -15.636   2.780  31.060  0.00  0.00    +0.102 C 
BRANCH  20   7
ATOM      7  N   UNL     1     -14.867   1.900  31.928  0.00  0.00    -0.307 NA
ATOM     24  C   UNL     1     -14.880   0.528  31.417  0.00  0.00    +0.104 C 
ATOM     25  C   UNL     1     -13.488   2.378  32.058  0.00  0.00    +0.104 C 
ENDBRANCH  20   7
ENDBRANCH  18  20
ENDBRANCH   5  18
ENDBRANCH  14  16
ENDBRANCH   8  14
TORSDOF 9
ENDMDL
MODEL 5
REMARK VINA RESULT:      -6.3      2.258      5.310
REMARK  Name = 40777423
REMARK  12 active torsions:
REMARK  status: ('A' for Active; 'I' for Inactive)
REMARK    1  A    between atoms: O_3  and  C_28
REMARK    2  A    between atoms: O_3  and  C_29
REMARK    3  A    between atoms: N_5  and  C_18
REMARK    4  A    between atoms: N_7  and  C_20
REMARK    5  A    between atoms: N_7  and  C_24
REMARK    6  A    between atoms: N_7  and  C_25
REMARK    7  A    between atoms: C_8  and  C_14
REMARK    8  A    between atoms: C_9  and  C_13
REMARK    9  A    between atoms: C_13  and  C_15
REMARK   10  A    between atoms: C_14  and  C_16
REMARK   11  A    between atoms: C_18  and  C_20
REMARK   12  A    between atoms: C_19  and  C_21
REMARK                            x       y       z     vdW  Elec       q    Type
REMARK                         _______ _______ _______ _____ _____    ______ ____
ROOT
ATOM      4  N   UNL     1      12.464  13.908  24.556  0.00  0.00    -0.316 NA
ATOM      8  C   UNL     1      12.360  11.156  23.496  0.00  0.00    +0.004 C 
ATOM      9  C   UNL     1      13.350  12.220  22.965  0.00  0.00    +0.012 C 
ATOM     10  C   UNL     1      11.956  11.520  24.934  0.00  0.00    +0.019 C 
ATOM     11  C   UNL     1      12.808  13.646  23.158  0.00  0.00    +0.085 C 
ATOM     12  C   UNL     1      11.467  12.963  25.056  0.00  0.00    +0.081 C 
ATOM     30  H   UNL     1      12.101  14.857  24.642  0.00  0.00    +0.122 HD
ENDROOT
BRANCH   9  13
ATOM     13  C   UNL     1      13.751  11.990  21.507  0.00  0.00    +0.064 C 
BRANCH  13  15
ATOM      2  O   UNL     1      17.109  10.690  21.485  0.00  0.00    -0.354 OA
ATOM      6  N   UNL     1      16.188  11.715  21.670  0.00  0.00    -0.083 NA
ATOM     15  C   UNL     1      15.000  11.163  21.407  0.00  0.00    +0.085 A 
ATOM     17  C   UNL     1      15.108   9.807  21.054  0.00  0.00    +0.076 A 
ATOM     19  C   UNL     1      16.454   9.559  21.119  0.00  0.00    +0.167 A 
BRANCH  19  21
ATOM     21  C   UNL     1      17.279   8.409  20.891  0.00  0.00    +0.020 A 
ATOM     22  C   UNL     1      18.517   8.301  21.526  0.00  0.00    +0.015 A 
ATOM     23  C   UNL     1      16.845   7.399  20.033  0.00  0.00    +0.015 A 
ATOM     26  C   UNL     1      19.319   7.183  21.304  0.00  0.00    +0.046 A 
ATOM     27  C   UNL     1      17.648   6.280  19.810  0.00  0.00    +0.046 A 
ATOM     28  C   UNL     1      18.885   6.172  20.446  0.00  0.00    +0.120 A 
BRANCH  28   3
ATOM      3  O   UNL     1      19.668   5.079  20.231  0.00  0.00    -0.495 OA
ATOM     29  C   UNL     1      20.954   5.070  20.848  0.00  0.00    +0.277 C 
ENDBRANCH  28   3
ENDBRANCH  19  21
ENDBRANCH  13  15
ENDBRANCH   9  13
BRANCH   8  14
ATOM     14  C   UNL     1      11.121  10.961  22.614  0.00  0.00    +0.099 C 
BRANCH  14  16
ATOM      1  O   UNL     1      10.772   8.578  22.835  0.00  0.00    -0.276 OA
ATOM      5  N   UNL     1      11.170   9.483  20.732  0.00  0.00    -0.314 N 
ATOM     16  C   UNL     1      10.996   9.540  22.107  0.00  0.00    +0.213 C 
ATOM     31  H   UNL     1      11.344  10.341  20.216  0.00  0.00    +0.149 HD
BRANCH   5  18
ATOM     18  C   UNL     1      11.106   8.251  19.979  0.00  0.00    +0.119 C 
BRANCH  18  20
ATOM     20  C   UNL     1      11.734   8.412  18.603  0.00  0.00    +0.102 C 
BRANCH  20   7
ATOM      7  N   UNL     1      13.150   8.073  18.650  0.00  0.00    -0.307 NA
ATOM     24  C   UNL     1      13.366   6.868  19.454  0.00  0.00    +0.104 C 
ATOM     25  C   UNL     1      13.680   7.880  17.298  0.00  0.00    +0.104 C 
ENDBRANCH  20   7
ENDBRANCH  18  20
ENDBRANCH   5  18
ENDBRANCH  14  16
ENDBRANCH   8  14
TORSDOF 9
ENDMDL
MODEL 6
REMARK VINA RESULT:      -6.2     27.009     29.437
REMARK  Name = 40777423
REMARK  12 active torsions:
REMARK  status: ('A' for Active; 'I' for Inactive)
REMARK    1  A    between atoms: O_3  and  C_28
REMARK    2  A    between atoms: O_3  and  C_29
REMARK    3  A    between atoms: N_5  and  C_18
REMARK    4  A    between atoms: N_7  and  C_20
REMARK    5  A    between atoms: N_7  and  C_24
REMARK    6  A    between atoms: N_7  and  C_25
REMARK    7  A    between atoms: C_8  and  C_14
REMARK    8  A    between atoms: C_9  and  C_13
REMARK    9  A    between atoms: C_13  and  C_15
REMARK   10  A    between atoms: C_14  and  C_16
REMARK   11  A    between atoms: C_18  and  C_20
REMARK   12  A    between atoms: C_19  and  C_21
REMARK                            x       y       z     vdW  Elec       q    Type
REMARK                         _______ _______ _______ _____ _____    ______ ____
ROOT
ATOM      4  N   UNL     1      -4.084 -13.609  12.016  0.00  0.00    -0.316 NA
ATOM      8  C   UNL     1      -3.217 -11.043  10.845  0.00  0.00    +0.004 C 
ATOM      9  C   UNL     1      -2.613 -11.614  12.150  0.00  0.00    +0.012 C 
ATOM     10  C   UNL     1      -3.787 -12.200  10.008  0.00  0.00    +0.019 C 
ATOM     11  C   UNL     1      -3.606 -12.531  12.882  0.00  0.00    +0.085 C 
ATOM     12  C   UNL     1      -4.733 -13.092  10.812  0.00  0.00    +0.081 C 
ATOM     30  H   UNL     1      -4.745 -14.189  12.532  0.00  0.00    +0.122 HD
ENDROOT
BRANCH   9  13
ATOM     13  C   UNL     1      -2.089 -10.529  13.092  0.00  0.00    +0.064 C 
BRANCH  13  15
ATOM      2  O   UNL     1      -2.803 -10.956  16.596  0.00  0.00    -0.354 OA
ATOM      6  N   UNL     1      -1.931 -10.919  15.514  0.00  0.00    -0.083 NA
ATOM     15  C   UNL     1      -2.702 -10.647  14.457  0.00  0.00    +0.085 A 
ATOM     17  C   UNL     1      -4.056 -10.503  14.808  0.00  0.00    +0.076 A 
ATOM     19  C   UNL     1      -4.064 -10.707  16.163  0.00  0.00    +0.167 A 
BRANCH  19  21
ATOM     21  C   UNL     1      -5.081 -10.713  17.175  0.00  0.00    +0.020 A 
ATOM     22  C   UNL     1      -4.815 -11.266  18.427  0.00  0.00    +0.015 A 
ATOM     23  C   UNL     1      -6.335 -10.166  16.906  0.00  0.00    +0.015 A 
ATOM     26  C   UNL     1      -5.803 -11.271  19.411  0.00  0.00    +0.046 A 
ATOM     27  C   UNL     1      -7.324 -10.172  17.890  0.00  0.00    +0.046 A 
ATOM     28  C   UNL     1      -7.058 -10.725  19.142  0.00  0.00    +0.120 A 
BRANCH  28   3
ATOM      3  O   UNL     1      -8.022 -10.728  20.103  0.00  0.00    -0.495 OA
ATOM     29  C   UNL     1      -9.293 -11.267  19.745  0.00  0.00    +0.277 C 
ENDBRANCH  28   3
ENDBRANCH  19  21
ENDBRANCH  13  15
ENDBRANCH   9  13
BRANCH   8  14
ATOM     14  C   UNL     1      -4.278  -9.959  11.070  0.00  0.00    +0.099 C 
BRANCH  14  16
ATOM      1  O   UNL     1      -3.885  -8.751   9.011  0.00  0.00    -0.276 OA
ATOM      5  N   UNL     1      -6.057  -9.331   9.598  0.00  0.00    -0.314 N 
ATOM     16  C   UNL     1      -4.683  -9.278   9.781  0.00  0.00    +0.213 C 
ATOM     31  H   UNL     1      -6.634  -9.799  10.291  0.00  0.00    +0.149 HD
BRANCH   5  18
ATOM     18  C   UNL     1      -6.723  -8.757   8.450  0.00  0.00    +0.119 C 
BRANCH  18  20
ATOM     20  C   UNL     1      -7.891  -7.879   8.873  0.00  0.00    +0.102 C 
BRANCH  20   7
ATOM      7  N   UNL     1      -8.026  -6.745   7.970  0.00  0.00    -0.307 NA
ATOM     24  C   UNL     1      -8.242  -7.201   6.596  0.00  0.00    +0.104 C 
ATOM     25  C   UNL     1      -9.126  -5.874   8.393  0.00  0.00    +0.104 C 
ENDBRANCH  20   7
ENDBRANCH  18  20
ENDBRANCH   5  18
ENDBRANCH  14  16
ENDBRANCH   8  14
TORSDOF 9
ENDMDL
MODEL 7
REMARK VINA RESULT:      -6.1      3.127      5.926
REMARK  Name = 40777423
REMARK  12 active torsions:
REMARK  status: ('A' for Active; 'I' for Inactive)
REMARK    1  A    between atoms: O_3  and  C_28
REMARK    2  A    between atoms: O_3  and  C_29
REMARK    3  A    between atoms: N_5  and  C_18
REMARK    4  A    between atoms: N_7  and  C_20
REMARK    5  A    between atoms: N_7  and  C_24
REMARK    6  A    between atoms: N_7  and  C_25
REMARK    7  A    between atoms: C_8  and  C_14
REMARK    8  A    between atoms: C_9  and  C_13
REMARK    9  A    between atoms: C_13  and  C_15
REMARK   10  A    between atoms: C_14  and  C_16
REMARK   11  A    between atoms: C_18  and  C_20
REMARK   12  A    between atoms: C_19  and  C_21
REMARK                            x       y       z     vdW  Elec       q    Type
REMARK                         _______ _______ _______ _____ _____    ______ ____
ROOT
ATOM      4  N   UNL     1      18.648  10.505  22.049  0.00  0.00    -0.316 NA
ATOM      8  C   UNL     1      16.517   8.558  21.437  0.00  0.00    +0.004 C 
ATOM      9  C   UNL     1      18.007   8.159  21.552  0.00  0.00    +0.012 C 
ATOM     10  C   UNL     1      16.278   9.841  22.251  0.00  0.00    +0.019 C 
ATOM     11  C   UNL     1      18.939   9.336  21.219  0.00  0.00    +0.085 C 
ATOM     12  C   UNL     1      17.265  10.951  21.895  0.00  0.00    +0.081 C 
ATOM     30  H   UNL     1      19.278  11.266  21.794  0.00  0.00    +0.122 HD
ENDROOT
BRANCH   9  13
ATOM     13  C   UNL     1      18.367   6.935  20.709  0.00  0.00    +0.064 C 
BRANCH  13  15
ATOM      2  O   UNL     1      20.903   5.481  22.811  0.00  0.00    -0.354 OA
ATOM      6  N   UNL     1      19.791   6.289  22.605  0.00  0.00    -0.083 NA
ATOM     15  C   UNL     1      19.524   6.183  21.300  0.00  0.00    +0.085 A 
ATOM     17  C   UNL     1      20.426   5.332  20.638  0.00  0.00    +0.076 A 
ATOM     19  C   UNL     1      21.271   4.917  21.633  0.00  0.00    +0.167 A 
BRANCH  19  21
ATOM     21  C   UNL     1      22.413   4.051  21.689  0.00  0.00    +0.020 A 
ATOM     22  C   UNL     1      22.509   3.086  22.693  0.00  0.00    +0.015 A 
ATOM     23  C   UNL     1      23.428   4.173  20.740  0.00  0.00    +0.015 A 
ATOM     26  C   UNL     1      23.620   2.245  22.747  0.00  0.00    +0.046 A 
ATOM     27  C   UNL     1      24.539   3.331  20.794  0.00  0.00    +0.046 A 
ATOM     28  C   UNL     1      24.635   2.367  21.798  0.00  0.00    +0.120 A 
BRANCH  28   3
ATOM      3  O   UNL     1      25.718   1.544  21.850  0.00  0.00    -0.495 OA
ATOM     29  C   UNL     1      25.786   0.629  22.942  0.00  0.00    +0.277 C 
ENDBRANCH  28   3
ENDBRANCH  19  21
ENDBRANCH  13  15
ENDBRANCH   9  13
BRANCH   8  14
ATOM     14  C   UNL     1      16.026   8.728  19.994  0.00  0.00    +0.099 C 
BRANCH  14  16
ATOM      1  O   UNL     1      15.130   6.576  19.349  0.00  0.00    -0.276 OA
ATOM      5  N   UNL     1      13.680   8.356  19.703  0.00  0.00    -0.314 N 
ATOM     16  C   UNL     1      14.926   7.749  19.645  0.00  0.00    +0.213 C 
ATOM     31  H   UNL     1      13.615   9.335  19.967  0.00  0.00    +0.149 HD
BRANCH   5  18
ATOM     18  C   UNL     1      12.448   7.657  19.415  0.00  0.00    +0.119 C 
BRANCH  18  20
ATOM     20  C   UNL     1      11.256   8.357  20.053  0.00  0.00    +0.102 C 
BRANCH  20   7
ATOM      7  N   UNL     1      10.688   7.529  21.108  0.00  0.00    -0.307 NA
ATOM     24  C   UNL     1      11.439   6.280  21.246  0.00  0.00    +0.104 C 
ATOM     25  C   UNL     1      10.672   8.253  22.381  0.00  0.00    +0.104 C 
ENDBRANCH  20   7
ENDBRANCH  18  20
ENDBRANCH   5  18
ENDBRANCH  14  16
ENDBRANCH   8  14
TORSDOF 9
ENDMDL
MODEL 8
REMARK VINA RESULT:      -6.1      5.139     11.524
REMARK  Name = 40777423
REMARK  12 active torsions:
REMARK  status: ('A' for Active; 'I' for Inactive)
REMARK    1  A    between atoms: O_3  and  C_28
REMARK    2  A    between atoms: O_3  and  C_29
REMARK    3  A    between atoms: N_5  and  C_18
REMARK    4  A    between atoms: N_7  and  C_20
REMARK    5  A    between atoms: N_7  and  C_24
REMARK    6  A    between atoms: N_7  and  C_25
REMARK    7  A    between atoms: C_8  and  C_14
REMARK    8  A    between atoms: C_9  and  C_13
REMARK    9  A    between atoms: C_13  and  C_15
REMARK   10  A    between atoms: C_14  and  C_16
REMARK   11  A    between atoms: C_18  and  C_20
REMARK   12  A    between atoms: C_19  and  C_21
REMARK                            x       y       z     vdW  Elec       q    Type
REMARK                         _______ _______ _______ _____ _____    ______ ____
ROOT
ATOM      4  N   UNL     1      24.428   3.574  19.346  0.00  0.00    -0.316 NA
ATOM      8  C   UNL     1      22.960   2.857  21.803  0.00  0.00    +0.004 C 
ATOM      9  C   UNL     1      22.530   4.023  20.882  0.00  0.00    +0.012 C 
ATOM     10  C   UNL     1      23.773   1.843  20.982  0.00  0.00    +0.019 C 
ATOM     11  C   UNL     1      23.724   4.606  20.108  0.00  0.00    +0.085 C 
ATOM     12  C   UNL     1      24.916   2.499  20.209  0.00  0.00    +0.081 C 
ATOM     30  H   UNL     1      25.216   3.996  18.855  0.00  0.00    +0.122 HD
ENDROOT
BRANCH   9  13
ATOM     13  C   UNL     1      21.781   5.130  21.626  0.00  0.00    +0.064 C 
BRANCH  13  15
ATOM      2  O   UNL     1      18.718   5.090  19.732  0.00  0.00    -0.354 OA
ATOM      6  N   UNL     1      19.951   4.556  20.089  0.00  0.00    -0.083 NA
ATOM     15  C   UNL     1      20.440   5.396  21.006  0.00  0.00    +0.085 A 
ATOM     17  C   UNL     1      19.568   6.467  21.265  0.00  0.00    +0.076 A 
ATOM     19  C   UNL     1      18.502   6.228  20.440  0.00  0.00    +0.167 A 
BRANCH  19  21
ATOM     21  C   UNL     1      17.261   6.896  20.176  0.00  0.00    +0.020 A 
ATOM     22  C   UNL     1      16.998   8.136  20.759  0.00  0.00    +0.015 A 
ATOM     23  C   UNL     1      16.316   6.305  19.337  0.00  0.00    +0.015 A 
ATOM     26  C   UNL     1      15.791   8.785  20.502  0.00  0.00    +0.046 A 
ATOM     27  C   UNL     1      15.108   6.955  19.081  0.00  0.00    +0.046 A 
ATOM     28  C   UNL     1      14.846   8.195  19.664  0.00  0.00    +0.120 A 
BRANCH  28   3
ATOM      3  O   UNL     1      13.669   8.830  19.412  0.00  0.00    -0.495 OA
ATOM     29  C   UNL     1      13.340   9.070  18.044  0.00  0.00    +0.277 C 
ENDBRANCH  28   3
ENDBRANCH  19  21
ENDBRANCH  13  15
ENDBRANCH   9  13
BRANCH   8  14
ATOM     14  C   UNL     1      23.738   3.300  23.048  0.00  0.00    +0.099 C 
BRANCH  14  16
ATOM      1  O   UNL     1      24.898   1.523  24.211  0.00  0.00    -0.276 OA
ATOM      5  N   UNL     1      22.703   2.023  24.788  0.00  0.00    -0.314 N 
ATOM     16  C   UNL     1      23.875   2.186  24.064  0.00  0.00    +0.213 C 
ATOM     31  H   UNL     1      21.911   2.630  24.596  0.00  0.00    +0.149 HD
BRANCH   5  18
ATOM     18  C   UNL     1      22.548   1.029  25.826  0.00  0.00    +0.119 C 
BRANCH  18  20
ATOM     20  C   UNL     1      21.714  -0.148  25.340  0.00  0.00    +0.102 C 
BRANCH  20   7
ATOM      7  N   UNL     1      21.785  -1.246  26.294  0.00  0.00    -0.307 NA
ATOM     24  C   UNL     1      21.044  -0.920  27.514  0.00  0.00    +0.104 C 
ATOM     25  C   UNL     1      21.265  -2.481  25.701  0.00  0.00    +0.104 C 
ENDBRANCH  20   7
ENDBRANCH  18  20
ENDBRANCH   5  18
ENDBRANCH  14  16
ENDBRANCH   8  14
TORSDOF 9
ENDMDL
MODEL 9
REMARK VINA RESULT:      -6.0     25.843     28.885
REMARK  Name = 40777423
REMARK  12 active torsions:
REMARK  status: ('A' for Active; 'I' for Inactive)
REMARK    1  A    between atoms: O_3  and  C_28
REMARK    2  A    between atoms: O_3  and  C_29
REMARK    3  A    between atoms: N_5  and  C_18
REMARK    4  A    between atoms: N_7  and  C_20
REMARK    5  A    between atoms: N_7  and  C_24
REMARK    6  A    between atoms: N_7  and  C_25
REMARK    7  A    between atoms: C_8  and  C_14
REMARK    8  A    between atoms: C_9  and  C_13
REMARK    9  A    between atoms: C_13  and  C_15
REMARK   10  A    between atoms: C_14  and  C_16
REMARK   11  A    between atoms: C_18  and  C_20
REMARK   12  A    between atoms: C_19  and  C_21
REMARK                            x       y       z     vdW  Elec       q    Type
REMARK                         _______ _______ _______ _____ _____    ______ ____
ROOT
ATOM      4  N   UNL     1     -10.109  12.953  16.171  0.00  0.00    -0.316 NA
ATOM      8  C   UNL     1     -11.444  10.321  16.162  0.00  0.00    +0.004 C 
ATOM      9  C   UNL     1     -10.611  10.833  17.361  0.00  0.00    +0.012 C 
ATOM     10  C   UNL     1     -11.954  11.527  15.356  0.00  0.00    +0.019 C 
ATOM     11  C   UNL     1      -9.532  11.835  16.918  0.00  0.00    +0.085 C 
ATOM     12  C   UNL     1     -10.834  12.498  14.986  0.00  0.00    +0.081 C 
ATOM     30  H   UNL     1      -9.364  13.590  15.887  0.00  0.00    +0.122 HD
ENDROOT
BRANCH   9  13
ATOM     13  C   UNL     1      -9.989   9.704  18.184  0.00  0.00    +0.064 C 
BRANCH  13  15
ATOM      2  O   UNL     1     -12.222   9.339  20.985  0.00  0.00    -0.354 OA
ATOM      6  N   UNL     1     -11.406  10.097  20.153  0.00  0.00    -0.083 NA
ATOM     15  C   UNL     1     -10.924   9.230  19.258  0.00  0.00    +0.085 A 
ATOM     17  C   UNL     1     -11.396   7.924  19.474  0.00  0.00    +0.076 A 
ATOM     19  C   UNL     1     -12.209   8.047  20.570  0.00  0.00    +0.167 A 
BRANCH  19  21
ATOM     21  C   UNL     1     -13.011   7.140  21.338  0.00  0.00    +0.020 A 
ATOM     22  C   UNL     1     -12.530   5.864  21.635  0.00  0.00    +0.015 A 
ATOM     23  C   UNL     1     -14.271   7.532  21.786  0.00  0.00    +0.015 A 
ATOM     26  C   UNL     1     -13.310   4.982  22.382  0.00  0.00    +0.046 A 
ATOM     27  C   UNL     1     -15.052   6.650  22.534  0.00  0.00    +0.046 A 
ATOM     28  C   UNL     1     -14.572   5.375  22.831  0.00  0.00    +0.120 A 
BRANCH  28   3
ATOM      3  O   UNL     1     -15.332   4.514  23.562  0.00  0.00    -0.495 OA
ATOM     29  C   UNL     1     -16.748   4.640  23.446  0.00  0.00    +0.277 C 
ENDBRANCH  28   3
ENDBRANCH  19  21
ENDBRANCH  13  15
ENDBRANCH   9  13
BRANCH   8  14
ATOM     14  C   UNL     1     -10.694   9.337  15.256  0.00  0.00    +0.099 C 
BRANCH  14  16
ATOM      1  O   UNL     1     -11.384   9.187  12.942  0.00  0.00    -0.276 OA
ATOM      5  N   UNL     1     -12.537   7.978  14.557  0.00  0.00    -0.314 N 
ATOM     16  C   UNL     1     -11.552   8.847  14.109  0.00  0.00    +0.213 C 
ATOM     31  H   UNL     1     -12.589   7.752  15.546  0.00  0.00    +0.149 HD
BRANCH   5  18
ATOM     18  C   UNL     1     -13.502   7.359  13.678  0.00  0.00    +0.119 C 
BRANCH  18  20
ATOM     20  C   UNL     1     -14.850   7.199  14.365  0.00  0.00    +0.102 C 
BRANCH  20   7
ATOM      7  N   UNL     1     -15.537   6.016  13.865  0.00  0.00    -0.307 NA
ATOM     24  C   UNL     1     -16.985   6.151  14.028  0.00  0.00    +0.104 C 
ATOM     25  C   UNL     1     -15.205   5.782  12.457  0.00  0.00    +0.104 C 
ENDBRANCH  20   7
ENDBRANCH  18  20
ENDBRANCH   5  18
ENDBRANCH  14  16
ENDBRANCH   8  14
TORSDOF 9
ENDMDL
MODEL 10
REMARK VINA RESULT:      -5.9     26.421     28.120
REMARK  Name = 40777423
REMARK  12 active torsions:
REMARK  status: ('A' for Active; 'I' for Inactive)
REMARK    1  A    between atoms: O_3  and  C_28
REMARK    2  A    between atoms: O_3  and  C_29
REMARK    3  A    between atoms: N_5  and  C_18
REMARK    4  A    between atoms: N_7  and  C_20
REMARK    5  A    between atoms: N_7  and  C_24
REMARK    6  A    between atoms: N_7  and  C_25
REMARK    7  A    between atoms: C_8  and  C_14
REMARK    8  A    between atoms: C_9  and  C_13
REMARK    9  A    between atoms: C_13  and  C_15
REMARK   10  A    between atoms: C_14  and  C_16
REMARK   11  A    between atoms: C_18  and  C_20
REMARK   12  A    between atoms: C_19  and  C_21
REMARK                            x       y       z     vdW  Elec       q    Type
REMARK                         _______ _______ _______ _____ _____    ______ ____
ROOT
ATOM      4  N   UNL     1     -13.862   4.443  21.990  0.00  0.00    -0.316 NA
ATOM      8  C   UNL     1     -14.053   7.211  20.986  0.00  0.00    +0.004 C 
ATOM      9  C   UNL     1     -12.748   6.383  20.915  0.00  0.00    +0.012 C 
ATOM     10  C   UNL     1     -15.252   6.252  21.043  0.00  0.00    +0.019 C 
ATOM     11  C   UNL     1     -12.689   5.317  22.021  0.00  0.00    +0.085 C 
ATOM     12  C   UNL     1     -15.106   5.197  22.139  0.00  0.00    +0.081 C 
ATOM     30  H   UNL     1     -13.792   3.757  22.742  0.00  0.00    +0.122 HD
ENDROOT
BRANCH   9  13
ATOM     13  C   UNL     1     -11.487   7.248  20.935  0.00  0.00    +0.064 C 
BRANCH  13  15
ATOM      2  O   UNL     1     -10.618   9.476  18.243  0.00  0.00    -0.354 OA
ATOM      6  N   UNL     1     -10.627   9.113  19.585  0.00  0.00    -0.083 NA
ATOM     15  C   UNL     1     -11.281   7.948  19.624  0.00  0.00    +0.085 A 
ATOM     17  C   UNL     1     -11.705   7.532  18.350  0.00  0.00    +0.076 A 
ATOM     19  C   UNL     1     -11.262   8.526  17.518  0.00  0.00    +0.167 A 
BRANCH  19  21
ATOM     21  C   UNL     1     -11.334   8.765  16.106  0.00  0.00    +0.020 A 
ATOM     22  C   UNL     1     -12.101   9.823  15.615  0.00  0.00    +0.015 A 
ATOM     23  C   UNL     1     -10.638   7.941  15.223  0.00  0.00    +0.015 A 
ATOM     26  C   UNL     1     -12.171  10.055  14.242  0.00  0.00    +0.046 A 
ATOM     27  C   UNL     1     -10.707   8.173  13.849  0.00  0.00    +0.046 A 
ATOM     28  C   UNL     1     -11.474   9.230  13.358  0.00  0.00    +0.120 A 
BRANCH  28   3
ATOM      3  O   UNL     1     -11.541   9.458  12.018  0.00  0.00    -0.495 OA
ATOM     29  C   UNL     1     -12.805   9.851  11.489  0.00  0.00    +0.277 C 
ENDBRANCH  28   3
ENDBRANCH  19  21
ENDBRANCH  13  15
ENDBRANCH   9  13
BRANCH   8  14
ATOM     14  C   UNL     1     -14.095   8.208  22.151  0.00  0.00    +0.099 C 
BRANCH  14  16
ATOM      1  O   UNL     1     -13.250  10.471  22.280  0.00  0.00    -0.276 OA
ATOM      5  N   UNL     1     -14.641   9.871  20.518  0.00  0.00    -0.314 N 
ATOM     16  C   UNL     1     -13.929   9.639  21.686  0.00  0.00    +0.213 C 
ATOM     31  H   UNL     1     -15.169   9.111  20.098  0.00  0.00    +0.149 HD
BRANCH   5  18
ATOM     18  C   UNL     1     -14.665  11.153  19.850  0.00  0.00    +0.119 C 
BRANCH  18  20
ATOM     20  C   UNL     1     -13.713  11.173  18.664  0.00  0.00    +0.102 C 
BRANCH  20   7
ATOM      7  N   UNL     1     -12.736  12.242  18.817  0.00  0.00    -0.307 NA
ATOM     24  C   UNL     1     -12.598  12.998  17.571  0.00  0.00    +0.104 C 
ATOM     25  C   UNL     1     -13.116  13.137  19.912  0.00  0.00    +0.104 C 
ENDBRANCH  20   7
ENDBRANCH  18  20
ENDBRANCH   5  18
ENDBRANCH  14  16
ENDBRANCH   8  14
TORSDOF 9
ENDMDL
