MODEL 1
REMARK VINA RESULT:      -7.1      0.000      0.000
REMARK  Name = 7143745
REMARK  4 active torsions:
REMARK  status: ('A' for Active; 'I' for Inactive)
REMARK    1  A    between atoms: S_2  and  C_19
REMARK    2  A    between atoms: S_2  and  C_25
REMARK    3  A    between atoms: C_16  and  C_19
REMARK    4  A    between atoms: C_17  and  C_20
REMARK                            x       y       z     vdW  Elec       q    Type
REMARK                         _______ _______ _______ _____ _____    ______ ____
ROOT
ATOM      3  O   UNL     1      15.525   6.146  21.755  0.00  0.00    -0.267 OA
ATOM      4  O   UNL     1      12.218   7.010  17.642  0.00  0.00    -0.275 OA
ATOM      5  N   UNL     1      12.365   8.898  18.989  0.00  0.00    -0.300 N 
ATOM      6  N   UNL     1      14.506   8.181  21.248  0.00  0.00    -0.311 N 
ATOM      7  C   UNL     1      11.977   8.538  21.430  0.00  0.00    +0.027 C 
ATOM      8  C   UNL     1      13.420  10.383  20.684  0.00  0.00    +0.054 C 
ATOM      9  C   UNL     1      12.341   9.994  21.693  0.00  0.00    +0.018 C 
ATOM     10  C   UNL     1      11.446   8.363  19.996  0.00  0.00    +0.113 C 
ATOM     11  C   UNL     1      13.207   7.663  21.700  0.00  0.00    +0.130 C 
ATOM     12  C   UNL     1      12.860  10.258  19.254  0.00  0.00    +0.117 C 
ATOM     13  C   UNL     1      14.650   9.507  20.833  0.00  0.00    +0.027 A 
ATOM     14  C   UNL     1      15.867   9.993  20.540  0.00  0.00    +0.022 A 
ATOM     15  C   UNL     1      15.607   7.311  21.360  0.00  0.00    +0.259 A 
ATOM     16  C   UNL     1      12.644   8.151  17.845  0.00  0.00    +0.225 C 
ATOM     17  C   UNL     1      16.954   7.872  20.989  0.00  0.00    +0.047 A 
ATOM     18  C   UNL     1      17.032   9.158  20.615  0.00  0.00    +0.015 A 
ENDROOT
BRANCH  17  20
ATOM      1 CL   UNL     1      21.877   4.474  21.138  0.00  0.00    -0.084 Cl
ATOM     20  C   UNL     1      18.166   7.036  21.025  0.00  0.00    -0.013 A 
ATOM     21  C   UNL     1      18.366   6.054  20.054  0.00  0.00    +0.010 A 
ATOM     22  C   UNL     1      19.114   7.224  22.032  0.00  0.00    +0.010 A 
ATOM     23  C   UNL     1      19.514   5.262  20.089  0.00  0.00    +0.020 A 
ATOM     24  C   UNL     1      20.262   6.431  22.067  0.00  0.00    +0.020 A 
ATOM     26  C   UNL     1      20.461   5.451  21.095  0.00  0.00    +0.041 A 
ENDBRANCH  17  20
BRANCH  16  19
ATOM     19  C   UNL     1      13.529   8.801  16.812  0.00  0.00    +0.164 C 
BRANCH  19   2
ATOM      2  S   UNL     1      12.463   9.578  15.590  0.00  0.00    -0.155 S 
ATOM     25  C   UNL     1      13.543  10.949  15.109  0.00  0.00    +0.085 C 
ENDBRANCH  19   2
ENDBRANCH  16  19
TORSDOF 3
ENDMDL
MODEL 2
REMARK VINA RESULT:      -6.4     26.491     28.454
REMARK  Name = 7143745
REMARK  4 active torsions:
REMARK  status: ('A' for Active; 'I' for Inactive)
REMARK    1  A    between atoms: S_2  and  C_19
REMARK    2  A    between atoms: S_2  and  C_25
REMARK    3  A    between atoms: C_16  and  C_19
REMARK    4  A    between atoms: C_17  and  C_20
REMARK                            x       y       z     vdW  Elec       q    Type
REMARK                         _______ _______ _______ _____ _____    ______ ____
ROOT
ATOM      3  O   UNL     1     -12.993   9.850  20.669  0.00  0.00    -0.267 OA
ATOM      4  O   UNL     1     -14.461  11.820  15.919  0.00  0.00    -0.275 OA
ATOM      5  N   UNL     1     -12.169  11.446  15.981  0.00  0.00    -0.300 N 
ATOM      6  N   UNL     1     -11.586  10.127  18.830  0.00  0.00    -0.311 N 
ATOM      7  C   UNL     1     -10.947  12.434  17.922  0.00  0.00    +0.027 C 
ATOM      8  C   UNL     1     -10.074  10.409  16.835  0.00  0.00    +0.054 C 
ATOM      9  C   UNL     1      -9.670  11.744  17.457  0.00  0.00    +0.018 C 
ATOM     10  C   UNL     1     -11.896  12.671  16.734  0.00  0.00    +0.113 C 
ATOM     11  C   UNL     1     -11.598  11.584  19.019  0.00  0.00    +0.130 C 
ATOM     12  C   UNL     1     -10.980  10.660  15.614  0.00  0.00    +0.117 C 
ATOM     13  C   UNL     1     -10.800   9.534  17.840  0.00  0.00    +0.027 A 
ATOM     14  C   UNL     1     -10.710   8.197  17.764  0.00  0.00    +0.022 A 
ATOM     15  C   UNL     1     -12.317   9.364  19.761  0.00  0.00    +0.259 A 
ATOM     16  C   UNL     1     -13.477  11.147  15.600  0.00  0.00    +0.225 C 
ATOM     17  C   UNL     1     -12.226   7.867  19.627  0.00  0.00    +0.047 A 
ATOM     18  C   UNL     1     -11.440   7.355  18.668  0.00  0.00    +0.015 A 
ENDROOT
BRANCH  17  20
ATOM      1 CL   UNL     1     -15.313   4.234  23.244  0.00  0.00    -0.084 Cl
ATOM     20  C   UNL     1     -12.986   6.973  20.518  0.00  0.00    -0.013 A 
ATOM     21  C   UNL     1     -12.312   6.124  21.396  0.00  0.00    +0.010 A 
ATOM     22  C   UNL     1     -14.381   6.973  20.483  0.00  0.00    +0.010 A 
ATOM     23  C   UNL     1     -13.031   5.277  22.239  0.00  0.00    +0.020 A 
ATOM     24  C   UNL     1     -15.101   6.126  21.326  0.00  0.00    +0.020 A 
ATOM     26  C   UNL     1     -14.425   5.278  22.204  0.00  0.00    +0.041 A 
ENDBRANCH  17  20
BRANCH  16  19
ATOM     19  C   UNL     1     -13.670   9.915  14.752  0.00  0.00    +0.164 C 
BRANCH  19   2
ATOM      2  S   UNL     1     -14.045   8.546  15.856  0.00  0.00    -0.155 S 
ATOM     25  C   UNL     1     -14.918   7.476  14.686  0.00  0.00    +0.085 C 
ENDBRANCH  19   2
ENDBRANCH  16  19
TORSDOF 3
ENDMDL
MODEL 3
REMARK VINA RESULT:      -6.4     27.987     31.249
REMARK  Name = 7143745
REMARK  4 active torsions:
REMARK  status: ('A' for Active; 'I' for Inactive)
REMARK    1  A    between atoms: S_2  and  C_19
REMARK    2  A    between atoms: S_2  and  C_25
REMARK    3  A    between atoms: C_16  and  C_19
REMARK    4  A    between atoms: C_17  and  C_20
REMARK                            x       y       z     vdW  Elec       q    Type
REMARK                         _______ _______ _______ _____ _____    ______ ____
ROOT
ATOM      3  O   UNL     1     -13.332   4.829  22.228  0.00  0.00    -0.267 OA
ATOM      4  O   UNL     1     -17.942   2.193  21.597  0.00  0.00    -0.275 OA
ATOM      5  N   UNL     1     -18.101   3.720  23.340  0.00  0.00    -0.300 N 
ATOM      6  N   UNL     1     -15.304   5.261  23.396  0.00  0.00    -0.311 N 
ATOM      7  C   UNL     1     -16.303   3.602  25.071  0.00  0.00    +0.027 C 
ATOM      8  C   UNL     1     -17.442   5.738  24.639  0.00  0.00    +0.054 C 
ATOM      9  C   UNL     1     -16.882   4.842  25.742  0.00  0.00    +0.018 C 
ATOM     10  C   UNL     1     -17.396   2.853  24.286  0.00  0.00    +0.113 C 
ATOM     11  C   UNL     1     -15.135   4.025  24.172  0.00  0.00    +0.130 C 
ATOM     12  C   UNL     1     -18.572   4.998  23.896  0.00  0.00    +0.117 C 
ATOM     13  C   UNL     1     -16.359   6.139  23.656  0.00  0.00    +0.027 A 
ATOM     14  C   UNL     1     -16.425   7.319  23.019  0.00  0.00    +0.022 A 
ATOM     15  C   UNL     1     -14.295   5.562  22.460  0.00  0.00    +0.259 A 
ATOM     16  C   UNL     1     -18.347   3.269  22.043  0.00  0.00    +0.225 C 
ATOM     17  C   UNL     1     -14.417   6.875  21.734  0.00  0.00    +0.047 A 
ATOM     18  C   UNL     1     -15.441   7.685  22.040  0.00  0.00    +0.015 A 
ENDROOT
BRANCH  17  20
ATOM      1 CL   UNL     1     -10.459   8.475  17.541  0.00  0.00    -0.084 Cl
ATOM     20  C   UNL     1     -13.443   7.269  20.702  0.00  0.00    -0.013 A 
ATOM     21  C   UNL     1     -13.880   7.599  19.418  0.00  0.00    +0.010 A 
ATOM     22  C   UNL     1     -12.081   7.312  21.006  0.00  0.00    +0.010 A 
ATOM     23  C   UNL     1     -12.957   7.971  18.441  0.00  0.00    +0.020 A 
ATOM     24  C   UNL     1     -11.159   7.685  20.029  0.00  0.00    +0.020 A 
ATOM     26  C   UNL     1     -11.597   8.014  18.746  0.00  0.00    +0.041 A 
ENDBRANCH  17  20
BRANCH  16  19
ATOM     19  C   UNL     1     -19.154   4.180  21.153  0.00  0.00    +0.164 C 
BRANCH  19   2
ATOM      2  S   UNL     1     -18.442   4.103  19.504  0.00  0.00    -0.155 S 
ATOM     25  C   UNL     1     -16.994   5.154  19.775  0.00  0.00    +0.085 C 
ENDBRANCH  19   2
ENDBRANCH  16  19
TORSDOF 3
ENDMDL
MODEL 4
REMARK VINA RESULT:      -6.3     17.839     20.289
REMARK  Name = 7143745
REMARK  4 active torsions:
REMARK  status: ('A' for Active; 'I' for Inactive)
REMARK    1  A    between atoms: S_2  and  C_19
REMARK    2  A    between atoms: S_2  and  C_25
REMARK    3  A    between atoms: C_16  and  C_19
REMARK    4  A    between atoms: C_17  and  C_20
REMARK                            x       y       z     vdW  Elec       q    Type
REMARK                         _______ _______ _______ _____ _____    ______ ____
ROOT
ATOM      3  O   UNL     1      12.125   7.837   2.222  0.00  0.00    -0.267 OA
ATOM      4  O   UNL     1      12.866   5.512  -2.538  0.00  0.00    -0.275 OA
ATOM      5  N   UNL     1      13.424   4.056  -0.816  0.00  0.00    -0.300 N 
ATOM      6  N   UNL     1      12.739   5.611   1.887  0.00  0.00    -0.311 N 
ATOM      7  C   UNL     1      15.006   4.942   0.903  0.00  0.00    +0.027 C 
ATOM      8  C   UNL     1      13.381   3.203   1.522  0.00  0.00    +0.054 C 
ATOM      9  C   UNL     1      14.824   3.664   1.714  0.00  0.00    +0.018 C 
ATOM     10  C   UNL     1      14.730   4.679  -0.589  0.00  0.00    +0.113 C 
ATOM     11  C   UNL     1      14.087   6.027   1.476  0.00  0.00    +0.130 C 
ATOM     12  C   UNL     1      13.132   2.890   0.033  0.00  0.00    +0.117 C 
ATOM     13  C   UNL     1      12.401   4.260   1.994  0.00  0.00    +0.027 A 
ATOM     14  C   UNL     1      11.205   3.903   2.488  0.00  0.00    +0.022 A 
ATOM     15  C   UNL     1      11.851   6.636   2.269  0.00  0.00    +0.259 A 
ATOM     16  C   UNL     1      12.601   4.532  -1.836  0.00  0.00    +0.225 C 
ATOM     17  C   UNL     1      10.503   6.205   2.783  0.00  0.00    +0.047 A 
ATOM     18  C   UNL     1      10.243   4.893   2.881  0.00  0.00    +0.015 A 
ENDROOT
BRANCH  17  20
ATOM      1 CL   UNL     1       6.348  10.220   4.338  0.00  0.00    -0.084 Cl
ATOM     20  C   UNL     1       9.481   7.194   3.166  0.00  0.00    -0.013 A 
ATOM     21  C   UNL     1       9.104   7.327   4.503  0.00  0.00    +0.010 A 
ATOM     22  C   UNL     1       8.887   7.998   2.192  0.00  0.00    +0.010 A 
ATOM     23  C   UNL     1       8.135   8.263   4.865  0.00  0.00    +0.020 A 
ATOM     24  C   UNL     1       7.918   8.933   2.554  0.00  0.00    +0.020 A 
ATOM     26  C   UNL     1       7.542   9.065   3.891  0.00  0.00    +0.041 A 
ENDBRANCH  17  20
BRANCH  16  19
ATOM     19  C   UNL     1      11.312   3.786  -2.068  0.00  0.00    +0.164 C 
BRANCH  19   2
ATOM      2  S   UNL     1      10.038   5.000  -2.440  0.00  0.00    -0.155 S 
ATOM     25  C   UNL     1       9.793   5.667  -0.776  0.00  0.00    +0.085 C 
ENDBRANCH  19   2
ENDBRANCH  16  19
TORSDOF 3
ENDMDL
MODEL 5
REMARK VINA RESULT:      -6.2     14.424     17.674
REMARK  Name = 7143745
REMARK  4 active torsions:
REMARK  status: ('A' for Active; 'I' for Inactive)
REMARK    1  A    between atoms: S_2  and  C_19
REMARK    2  A    between atoms: S_2  and  C_25
REMARK    3  A    between atoms: C_16  and  C_19
REMARK    4  A    between atoms: C_17  and  C_20
REMARK                            x       y       z     vdW  Elec       q    Type
REMARK                         _______ _______ _______ _____ _____    ______ ____
ROOT
ATOM      3  O   UNL     1       9.911   7.205   1.985  0.00  0.00    -0.267 OA
ATOM      4  O   UNL     1      12.516   9.681   5.946  0.00  0.00    -0.275 OA
ATOM      5  N   UNL     1      10.797   8.365   6.789  0.00  0.00    -0.300 N 
ATOM      6  N   UNL     1       9.525   6.883   4.263  0.00  0.00    -0.311 N 
ATOM      7  C   UNL     1       8.545   8.711   5.765  0.00  0.00    +0.027 C 
ATOM      8  C   UNL     1       9.126   6.523   6.724  0.00  0.00    +0.054 C 
ATOM      9  C   UNL     1       8.003   7.549   6.589  0.00  0.00    +0.018 C 
ATOM     10  C   UNL     1       9.761   9.347   6.462  0.00  0.00    +0.113 C 
ATOM     11  C   UNL     1       8.888   8.204   4.359  0.00  0.00    +0.130 C 
ATOM     12  C   UNL     1      10.316   7.154   7.472  0.00  0.00    +0.117 C 
ATOM     13  C   UNL     1       9.580   6.026   5.364  0.00  0.00    +0.027 A 
ATOM     14  C   UNL     1      10.057   4.779   5.223  0.00  0.00    +0.022 A 
ATOM     15  C   UNL     1       9.975   6.490   2.987  0.00  0.00    +0.259 A 
ATOM     16  C   UNL     1      12.134   8.658   6.520  0.00  0.00    +0.225 C 
ATOM     17  C   UNL     1      10.539   5.100   2.869  0.00  0.00    +0.047 A 
ATOM     18  C   UNL     1      10.548   4.315   3.957  0.00  0.00    +0.015 A 
ENDROOT
BRANCH  17  20
ATOM      1 CL   UNL     1      12.737   3.074  -2.316  0.00  0.00    -0.084 Cl
ATOM     20  C   UNL     1      11.080   4.602   1.592  0.00  0.00    -0.013 A 
ATOM     21  C   UNL     1      10.322   4.704   0.425  0.00  0.00    +0.010 A 
ATOM     22  C   UNL     1      12.351   4.026   1.549  0.00  0.00    +0.010 A 
ATOM     23  C   UNL     1      10.834   4.231  -0.783  0.00  0.00    +0.020 A 
ATOM     24  C   UNL     1      12.863   3.553   0.341  0.00  0.00    +0.020 A 
ATOM     26  C   UNL     1      12.104   3.656  -0.825  0.00  0.00    +0.041 A 
ENDBRANCH  17  20
BRANCH  16  19
ATOM     19  C   UNL     1      13.152   7.638   6.964  0.00  0.00    +0.164 C 
BRANCH  19   2
ATOM      2  S   UNL     1      14.255   7.328   5.578  0.00  0.00    -0.155 S 
ATOM     25  C   UNL     1      15.738   8.149   6.213  0.00  0.00    +0.085 C 
ENDBRANCH  19   2
ENDBRANCH  16  19
TORSDOF 3
ENDMDL
MODEL 6
REMARK VINA RESULT:      -6.1     27.368     29.315
REMARK  Name = 7143745
REMARK  4 active torsions:
REMARK  status: ('A' for Active; 'I' for Inactive)
REMARK    1  A    between atoms: S_2  and  C_19
REMARK    2  A    between atoms: S_2  and  C_25
REMARK    3  A    between atoms: C_16  and  C_19
REMARK    4  A    between atoms: C_17  and  C_20
REMARK                            x       y       z     vdW  Elec       q    Type
REMARK                         _______ _______ _______ _____ _____    ______ ____
ROOT
ATOM      3  O   UNL     1      -6.642 -10.575  14.329  0.00  0.00    -0.267 OA
ATOM      4  O   UNL     1      -3.961 -14.756  12.345  0.00  0.00    -0.275 OA
ATOM      5  N   UNL     1      -2.536 -12.953  12.688  0.00  0.00    -0.300 N 
ATOM      6  N   UNL     1      -4.333 -10.673  14.018  0.00  0.00    -0.311 N 
ATOM      7  C   UNL     1      -3.259 -10.778  11.696  0.00  0.00    +0.027 C 
ATOM      8  C   UNL     1      -1.836 -10.791  13.702  0.00  0.00    +0.054 C 
ATOM      9  C   UNL     1      -2.074 -10.091  12.366  0.00  0.00    +0.018 C 
ATOM     10  C   UNL     1      -2.957 -12.269  11.464  0.00  0.00    +0.113 C 
ATOM     11  C   UNL     1      -4.506 -10.570  12.563  0.00  0.00    +0.130 C 
ATOM     12  C   UNL     1      -1.482 -12.271  13.454  0.00  0.00    +0.117 C 
ATOM     13  C   UNL     1      -3.060 -10.700  14.594  0.00  0.00    +0.027 A 
ATOM     14  C   UNL     1      -2.924 -10.672  15.929  0.00  0.00    +0.022 A 
ATOM     15  C   UNL     1      -5.504 -10.634  14.799  0.00  0.00    +0.259 A 
ATOM     16  C   UNL     1      -3.077 -14.200  13.001  0.00  0.00    +0.225 C 
ATOM     17  C   UNL     1      -5.322 -10.642  16.293  0.00  0.00    +0.047 A 
ATOM     18  C   UNL     1      -4.075 -10.649  16.787  0.00  0.00    +0.015 A 
ENDROOT
BRANCH  17  20
ATOM      1 CL   UNL     1     -10.028 -10.673  19.989  0.00  0.00    -0.084 Cl
ATOM     20  C   UNL     1      -6.479 -10.649  17.203  0.00  0.00    -0.013 A 
ATOM     21  C   UNL     1      -6.674 -11.719  18.078  0.00  0.00    +0.010 A 
ATOM     22  C   UNL     1      -7.385  -9.587  17.191  0.00  0.00    +0.010 A 
ATOM     23  C   UNL     1      -7.771 -11.726  18.939  0.00  0.00    +0.020 A 
ATOM     24  C   UNL     1      -8.482  -9.595  18.052  0.00  0.00    +0.020 A 
ATOM     26  C   UNL     1      -8.675 -10.664  18.926  0.00  0.00    +0.041 A 
ENDBRANCH  17  20
BRANCH  16  19
ATOM     19  C   UNL     1      -2.532 -14.884  14.230  0.00  0.00    +0.164 C 
BRANCH  19   2
ATOM      2  S   UNL     1      -3.906 -15.693  15.060  0.00  0.00    -0.155 S 
ATOM     25  C   UNL     1      -4.698 -14.232  15.777  0.00  0.00    +0.085 C 
ENDBRANCH  19   2
ENDBRANCH  16  19
TORSDOF 3
ENDMDL
MODEL 7
REMARK VINA RESULT:      -6.0     27.342     29.648
REMARK  Name = 7143745
REMARK  4 active torsions:
REMARK  status: ('A' for Active; 'I' for Inactive)
REMARK    1  A    between atoms: S_2  and  C_19
REMARK    2  A    between atoms: S_2  and  C_25
REMARK    3  A    between atoms: C_16  and  C_19
REMARK    4  A    between atoms: C_17  and  C_20
REMARK                            x       y       z     vdW  Elec       q    Type
REMARK                         _______ _______ _______ _____ _____    ______ ____
ROOT
ATOM      3  O   UNL     1      -6.108 -12.900  15.276  0.00  0.00    -0.267 OA
ATOM      4  O   UNL     1     -10.838 -10.658  16.371  0.00  0.00    -0.275 OA
ATOM      5  N   UNL     1      -9.725 -11.227  18.330  0.00  0.00    -0.300 N 
ATOM      6  N   UNL     1      -6.892 -12.377  17.409  0.00  0.00    -0.311 N 
ATOM      7  C   UNL     1      -8.888 -13.576  18.474  0.00  0.00    +0.027 C 
ATOM      8  C   UNL     1      -7.733 -11.792  19.710  0.00  0.00    +0.054 C 
ATOM      9  C   UNL     1      -8.207 -13.241  19.795  0.00  0.00    +0.018 C 
ATOM     10  C   UNL     1     -10.088 -12.642  18.233  0.00  0.00    +0.113 C 
ATOM     11  C   UNL     1      -7.853 -13.487  17.347  0.00  0.00    +0.130 C 
ATOM     12  C   UNL     1      -8.948 -10.861  19.524  0.00  0.00    +0.117 C 
ATOM     13  C   UNL     1      -6.760 -11.601  18.563  0.00  0.00    +0.027 A 
ATOM     14  C   UNL     1      -5.793 -10.672  18.642  0.00  0.00    +0.022 A 
ATOM     15  C   UNL     1      -6.045 -12.212  16.296  0.00  0.00    +0.259 A 
ATOM     16  C   UNL     1     -10.187 -10.330  17.367  0.00  0.00    +0.225 C 
ATOM     17  C   UNL     1      -4.996 -11.138  16.400  0.00  0.00    +0.047 A 
ATOM     18  C   UNL     1      -4.905 -10.436  17.540  0.00  0.00    +0.015 A 
ENDROOT
BRANCH  17  20
ATOM      1 CL   UNL     1      -1.305  -9.957  11.839  0.00  0.00    -0.084 Cl
ATOM     20  C   UNL     1      -4.087 -10.848  15.277  0.00  0.00    -0.013 A 
ATOM     21  C   UNL     1      -2.708 -10.805  15.487  0.00  0.00    +0.010 A 
ATOM     22  C   UNL     1      -4.604 -10.614  14.002  0.00  0.00    +0.010 A 
ATOM     23  C   UNL     1      -1.848 -10.529  14.425  0.00  0.00    +0.020 A 
ATOM     24  C   UNL     1      -3.744 -10.339  12.939  0.00  0.00    +0.020 A 
ATOM     26  C   UNL     1      -2.366 -10.296  13.151  0.00  0.00    +0.041 A 
ENDBRANCH  17  20
BRANCH  16  19
ATOM     19  C   UNL     1      -9.847  -8.876  17.579  0.00  0.00    +0.164 C 
BRANCH  19   2
ATOM      2  S   UNL     1      -9.972  -8.048  15.988  0.00  0.00    -0.155 S 
ATOM     25  C   UNL     1     -11.135  -6.739  16.445  0.00  0.00    +0.085 C 
ENDBRANCH  19   2
ENDBRANCH  16  19
TORSDOF 3
ENDMDL
MODEL 8
REMARK VINA RESULT:      -6.0     23.141     26.082
REMARK  Name = 7143745
REMARK  4 active torsions:
REMARK  status: ('A' for Active; 'I' for Inactive)
REMARK    1  A    between atoms: S_2  and  C_19
REMARK    2  A    between atoms: S_2  and  C_25
REMARK    3  A    between atoms: C_16  and  C_19
REMARK    4  A    between atoms: C_17  and  C_20
REMARK                            x       y       z     vdW  Elec       q    Type
REMARK                         _______ _______ _______ _____ _____    ______ ____
ROOT
ATOM      3  O   UNL     1      -6.477   9.778   5.432  0.00  0.00    -0.267 OA
ATOM      4  O   UNL     1      -2.709  11.854   2.256  0.00  0.00    -0.275 OA
ATOM      5  N   UNL     1      -1.746  10.700   4.028  0.00  0.00    -0.300 N 
ATOM      6  N   UNL     1      -4.182   9.432   5.657  0.00  0.00    -0.311 N 
ATOM      7  C   UNL     1      -2.564  11.307   6.308  0.00  0.00    +0.027 C 
ATOM      8  C   UNL     1      -1.703   9.043   5.884  0.00  0.00    +0.054 C 
ATOM      9  C   UNL     1      -1.720  10.184   6.899  0.00  0.00    +0.018 C 
ATOM     10  C   UNL     1      -1.962  11.793   4.977  0.00  0.00    +0.113 C 
ATOM     11  C   UNL     1      -4.004  10.808   6.141  0.00  0.00    +0.130 C 
ATOM     12  C   UNL     1      -1.049   9.525   4.574  0.00  0.00    +0.117 C 
ATOM     13  C   UNL     1      -3.107   8.542   5.601  0.00  0.00    +0.027 A 
ATOM     14  C   UNL     1      -3.314   7.256   5.272  0.00  0.00    +0.022 A 
ATOM     15  C   UNL     1      -5.499   9.031   5.361  0.00  0.00    +0.259 A 
ATOM     16  C   UNL     1      -2.124  10.860   2.695  0.00  0.00    +0.225 C 
ATOM     17  C   UNL     1      -5.694   7.594   4.958  0.00  0.00    +0.047 A 
ATOM     18  C   UNL     1      -4.627   6.782   4.941  0.00  0.00    +0.015 A 
ENDROOT
BRANCH  17  20
ATOM      1 CL   UNL     1     -11.089   5.505   3.428  0.00  0.00    -0.084 Cl
ATOM     20  C   UNL     1      -7.023   7.080   4.583  0.00  0.00    -0.013 A 
ATOM     21  C   UNL     1      -7.602   6.041   5.311  0.00  0.00    +0.010 A 
ATOM     22  C   UNL     1      -7.703   7.631   3.495  0.00  0.00    +0.010 A 
ATOM     23  C   UNL     1      -8.859   5.553   4.954  0.00  0.00    +0.020 A 
ATOM     24  C   UNL     1      -8.960   7.144   3.138  0.00  0.00    +0.020 A 
ATOM     26  C   UNL     1      -9.538   6.105   3.868  0.00  0.00    +0.041 A 
ENDBRANCH  17  20
BRANCH  16  19
ATOM     19  C   UNL     1      -1.791   9.727   1.756  0.00  0.00    +0.164 C 
BRANCH  19   2
ATOM      2  S   UNL     1      -0.763  10.393   0.440  0.00  0.00    -0.155 S 
ATOM     25  C   UNL     1       0.740  10.714   1.395  0.00  0.00    +0.085 C 
ENDBRANCH  19   2
ENDBRANCH  16  19
TORSDOF 3
ENDMDL
MODEL 9
REMARK VINA RESULT:      -6.0     26.677     29.175
REMARK  Name = 7143745
REMARK  4 active torsions:
REMARK  status: ('A' for Active; 'I' for Inactive)
REMARK    1  A    between atoms: S_2  and  C_19
REMARK    2  A    between atoms: S_2  and  C_25
REMARK    3  A    between atoms: C_16  and  C_19
REMARK    4  A    between atoms: C_17  and  C_20
REMARK                            x       y       z     vdW  Elec       q    Type
REMARK                         _______ _______ _______ _____ _____    ______ ____
ROOT
ATOM      3  O   UNL     1     -14.131   9.214  18.093  0.00  0.00    -0.267 OA
ATOM      4  O   UNL     1     -16.558  10.034  22.788  0.00  0.00    -0.275 OA
ATOM      5  N   UNL     1     -15.774   7.852  22.638  0.00  0.00    -0.300 N 
ATOM      6  N   UNL     1     -14.238   7.677  19.844  0.00  0.00    -0.311 N 
ATOM      7  C   UNL     1     -16.432   6.587  20.587  0.00  0.00    +0.027 C 
ATOM      8  C   UNL     1     -14.336   6.028  21.745  0.00  0.00    +0.054 C 
ATOM      9  C   UNL     1     -15.545   5.429  21.030  0.00  0.00    +0.018 C 
ATOM     10  C   UNL     1     -16.893   7.410  21.804  0.00  0.00    +0.113 C 
ATOM     11  C   UNL     1     -15.662   7.440  19.573  0.00  0.00    +0.130 C 
ATOM     12  C   UNL     1     -14.805   6.803  22.992  0.00  0.00    +0.117 C 
ATOM     13  C   UNL     1     -13.560   6.953  20.828  0.00  0.00    +0.027 A 
ATOM     14  C   UNL     1     -12.233   7.098  20.976  0.00  0.00    +0.022 A 
ATOM     15  C   UNL     1     -13.575   8.583  18.994  0.00  0.00    +0.259 A 
ATOM     16  C   UNL     1     -15.735   9.169  23.097  0.00  0.00    +0.225 C 
ATOM     17  C   UNL     1     -12.094   8.753  19.209  0.00  0.00    +0.047 A 
ATOM     18  C   UNL     1     -11.495   8.017  20.157  0.00  0.00    +0.015 A 
ENDROOT
BRANCH  17  20
ATOM      1 CL   UNL     1      -8.914  12.636  15.951  0.00  0.00    -0.084 Cl
ATOM     20  C   UNL     1     -11.311   9.709  18.408  0.00  0.00    -0.013 A 
ATOM     21  C   UNL     1     -11.164  11.028  18.840  0.00  0.00    +0.010 A 
ATOM     22  C   UNL     1     -10.716   9.297  17.214  0.00  0.00    +0.010 A 
ATOM     23  C   UNL     1     -10.424  11.933  18.080  0.00  0.00    +0.020 A 
ATOM     24  C   UNL     1      -9.975  10.202  16.454  0.00  0.00    +0.020 A 
ATOM     26  C   UNL     1      -9.829  11.520  16.888  0.00  0.00    +0.041 A 
ENDBRANCH  17  20
BRANCH  16  19
ATOM     19  C   UNL     1     -14.600   9.529  24.022  0.00  0.00    +0.164 C 
BRANCH  19   2
ATOM      2  S   UNL     1     -13.307  10.290  23.030  0.00  0.00    -0.155 S 
ATOM     25  C   UNL     1     -12.347  11.053  24.361  0.00  0.00    +0.085 C 
ENDBRANCH  19   2
ENDBRANCH  16  19
TORSDOF 3
ENDMDL
MODEL 10
REMARK VINA RESULT:      -5.9     21.430     23.399
REMARK  Name = 7143745
REMARK  4 active torsions:
REMARK  status: ('A' for Active; 'I' for Inactive)
REMARK    1  A    between atoms: S_2  and  C_19
REMARK    2  A    between atoms: S_2  and  C_25
REMARK    3  A    between atoms: C_16  and  C_19
REMARK    4  A    between atoms: C_17  and  C_20
REMARK                            x       y       z     vdW  Elec       q    Type
REMARK                         _______ _______ _______ _____ _____    ______ ____
ROOT
ATOM      3  O   UNL     1       9.465  -9.382  32.548  0.00  0.00    -0.267 OA
ATOM      4  O   UNL     1       9.081  -7.839  37.654  0.00  0.00    -0.275 OA
ATOM      5  N   UNL     1       8.597  -6.073  36.223  0.00  0.00    -0.300 N 
ATOM      6  N   UNL     1       8.731  -7.291  33.275  0.00  0.00    -0.311 N 
ATOM      7  C   UNL     1      10.280  -5.615  34.436  0.00  0.00    +0.027 C 
ATOM      8  C   UNL     1       7.919  -5.041  34.063  0.00  0.00    +0.054 C 
ATOM      9  C   UNL     1       9.352  -4.560  33.846  0.00  0.00    +0.018 C 
ATOM     10  C   UNL     1      10.006  -5.797  35.940  0.00  0.00    +0.113 C 
ATOM     11  C   UNL     1      10.102  -6.923  33.656  0.00  0.00    +0.130 C 
ATOM     12  C   UNL     1       7.638  -5.166  35.574  0.00  0.00    +0.117 C 
ATOM     13  C   UNL     1       7.681  -6.377  33.385  0.00  0.00    +0.027 A 
ATOM     14  C   UNL     1       6.462  -6.692  32.918  0.00  0.00    +0.022 A 
ATOM     15  C   UNL     1       8.556  -8.562  32.695  0.00  0.00    +0.259 A 
ATOM     16  C   UNL     1       8.261  -7.088  37.120  0.00  0.00    +0.225 C 
ATOM     17  C   UNL     1       7.170  -8.902  32.215  0.00  0.00    +0.047 A 
ATOM     18  C   UNL     1       6.206  -7.976  32.331  0.00  0.00    +0.015 A 
ENDROOT
BRANCH  17  20
ATOM      1 CL   UNL     1       5.925 -14.260  29.860  0.00  0.00    -0.084 Cl
ATOM     20  C   UNL     1       6.865 -10.221  31.635  0.00  0.00    -0.013 A 
ATOM     21  C   UNL     1       7.034 -10.439  30.267  0.00  0.00    +0.010 A 
ATOM     22  C   UNL     1       6.404 -11.254  32.453  0.00  0.00    +0.010 A 
ATOM     23  C   UNL     1       6.743 -11.688  29.718  0.00  0.00    +0.020 A 
ATOM     24  C   UNL     1       6.113 -12.503  31.904  0.00  0.00    +0.020 A 
ATOM     26  C   UNL     1       6.283 -12.719  30.537  0.00  0.00    +0.041 A 
ENDBRANCH  17  20
BRANCH  16  19
ATOM     19  C   UNL     1       6.795  -7.258  37.430  0.00  0.00    +0.164 C 
BRANCH  19   2
ATOM      2  S   UNL     1       6.142  -8.508  36.315  0.00  0.00    -0.155 S 
ATOM     25  C   UNL     1       4.528  -8.762  37.094  0.00  0.00    +0.085 C 
ENDBRANCH  19   2
ENDBRANCH  16  19
TORSDOF 3
ENDMDL
