REMARK  Name = 45360622
REMARK  11 active torsions:
REMARK  status: ('A' for Active; 'I' for Inactive)
REMARK    1  A    between atoms: O_4  and  C_27
REMARK    2  A    between atoms: N_7  and  C_10
REMARK    3  A    between atoms: N_7  and  C_18
REMARK    4  A    between atoms: N_8  and  C_22
REMARK    5  A    between atoms: C_11  and  C_16
REMARK    6  A    between atoms: C_16  and  C_17
REMARK    7  A    between atoms: C_17  and  C_19
REMARK    8  A    between atoms: C_18  and  C_20
REMARK    9  A    between atoms: C_22  and  C_25
REMARK   10  A    between atoms: C_22  and  C_26
REMARK   11  A    between atoms: C_23  and  C_27
REMARK                            x       y       z     vdW  Elec       q    Type
REMARK                         _______ _______ _______ _____ _____    ______ ____
ROOT
ATOM      1  O   UNL     1       0.145  -5.033  -0.448  0.00  0.00    -0.274 OA
ATOM      5  N   UNL     1      -1.344  -1.702  -0.348  0.00  0.00    -0.286 NA
ATOM      6  N   UNL     1      -1.464  -4.199   0.926  0.00  0.00    -0.313 N 
ATOM      9  C   UNL     1      -0.629  -2.822  -0.973  0.00  0.00    +0.145 C 
ATOM     10  C   UNL     1       0.778  -0.874  -0.627  0.00  0.00    +0.070 C 
ATOM     11  C   UNL     1      -2.566  -2.084   0.351  0.00  0.00    +0.075 C 
ATOM     12  C   UNL     1       0.794  -2.290  -1.204  0.00  0.00    +0.048 C 
ATOM     13  C   UNL     1      -0.356  -0.916   0.387  0.00  0.00    +0.104 C 
ATOM     14  C   UNL     1      -2.272  -3.113   1.431  0.00  0.00    +0.123 C 
ATOM     15  C   UNL     1      -0.597  -4.097  -0.135  0.00  0.00    +0.230 C 
ATOM     28  H   UNL     1      -1.448  -5.061   1.463  0.00  0.00    +0.149 HD
ENDROOT
BRANCH  10   7
ATOM      7  N   UNL     1       2.054  -0.477  -0.054  0.00  0.00    -0.305 NA
ATOM     29  H   UNL     1       1.906   0.307   0.583  0.00  0.00    +0.123 HD
BRANCH   7  18
ATOM     18  C   UNL     1       2.990  -0.066  -1.093  0.00  0.00    +0.156 C 
BRANCH  18  20
ATOM      2  O   UNL     1       4.379   1.557   0.072  0.00  0.00    -0.461 OA
ATOM     20  C   UNL     1       4.323   0.336  -0.521  0.00  0.00    +0.119 A 
ATOM     21  C   UNL     1       5.548  -0.287  -0.463  0.00  0.00    +0.046 A 
ATOM     23  C   UNL     1       5.655   1.716   0.514  0.00  0.00    +0.131 A 
ATOM     24  C   UNL     1       6.413   0.610   0.209  0.00  0.00    +0.047 A 
BRANCH  23  27
ATOM     27  C   UNL     1       5.953   2.982   1.198  0.00  0.00    +0.230 C 
BRANCH  27   4
ATOM      4  O   UNL     1       6.053   4.046   0.248  0.00  0.00    -0.387 OA
ATOM     31  H   UNL     1       6.248   4.856   0.750  0.00  0.00    +0.210 HD
ENDBRANCH  27   4
ENDBRANCH  23  27
ENDBRANCH  18  20
ENDBRANCH   7  18
ENDBRANCH  10   7
BRANCH  11  16
ATOM     16  C   UNL     1      -3.321  -0.884   0.926  0.00  0.00    +0.029 C 
BRANCH  16  17
ATOM     17  C   UNL     1      -3.580   0.168  -0.144  0.00  0.00    +0.097 C 
BRANCH  17  19
ATOM      3  O   UNL     1      -4.648   1.483   1.585  0.00  0.00    -0.276 OA
ATOM      8  N   UNL     1      -4.541   2.329  -0.574  0.00  0.00    -0.313 N 
ATOM     19  C   UNL     1      -4.310   1.378   0.409  0.00  0.00    +0.213 C 
ATOM     30  H   UNL     1      -4.170   2.178  -1.508  0.00  0.00    +0.149 HD
BRANCH   8  22
ATOM     22  C   UNL     1      -5.222   3.572  -0.299  0.00  0.00    +0.067 C 
ATOM     25  C   UNL     1      -4.229   4.638   0.149  0.00  0.00    +0.027 C 
ATOM     26  C   UNL     1      -6.006   4.028  -1.523  0.00  0.00    +0.027 C 
ENDBRANCH   8  22
ENDBRANCH  17  19
ENDBRANCH  16  17
ENDBRANCH  11  16
TORSDOF 9
