REMARK  Name = 11911940
REMARK  6 active torsions:
REMARK  status: ('A' for Active; 'I' for Inactive)
REMARK    1  A    between atoms: N_4  and  C_10
REMARK    2  A    between atoms: N_5  and  C_11
REMARK    3  A    between atoms: C_14  and  C_17
REMARK    4  A    between atoms: C_17  and  C_21
REMARK    5  A    between atoms: C_23  and  C_24
REMARK    6  A    between atoms: C_29  and  C_30
REMARK                            x       y       z     vdW  Elec       q    Type
REMARK                         _______ _______ _______ _____ _____    ______ ____
ROOT
ATOM      1  O   UNL     1      -0.531  -3.295   1.058  0.00  0.00    -0.370 OA
ATOM      2  O   UNL     1      -0.909  -2.078  -1.817  0.00  0.00    -0.370 OA
ATOM      8  C   UNL     1      -0.148  -1.687  -0.660  0.00  0.00    +0.175 C 
ATOM      9  C   UNL     1      -0.982  -2.025   0.560  0.00  0.00    +0.171 C 
ATOM     10  C   UNL     1       1.087  -2.559  -0.537  0.00  0.00    +0.166 C 
ATOM     11  C   UNL     1      -2.393  -2.142   0.028  0.00  0.00    +0.130 C 
ATOM     12  C   UNL     1       0.589  -3.744   0.283  0.00  0.00    +0.190 C 
ATOM     13  C   UNL     1      -2.164  -2.627  -1.392  0.00  0.00    +0.185 C 
ENDROOT
BRANCH  10   4
ATOM      4  N   UNL     1       2.227  -1.841   0.040  0.00  0.00    -0.244 N 
ATOM      6  N   UNL     1       2.132  -1.267   1.250  0.00  0.00    -0.065 NA
ATOM      7  N   UNL     1       3.303  -0.693   1.506  0.00  0.00    -0.134 NA
ATOM     20  C   UNL     1       3.456  -1.652  -0.511  0.00  0.00    +0.134 A 
ATOM     21  C   UNL     1       4.099  -0.929   0.438  0.00  0.00    +0.083 A 
BRANCH  21  17
ATOM     17  C   UNL     1       5.502  -0.409   0.412  0.00  0.00    +0.062 C 
BRANCH  17  14
ATOM     14  C   UNL     1       5.590   0.988  -0.200  0.00  0.00    -0.005 C 
ATOM     15  C   UNL     1       5.147   2.053   0.812  0.00  0.00    +0.004 C 
ATOM     16  C   UNL     1       7.013   1.270  -0.703  0.00  0.00    +0.004 C 
ATOM     18  C   UNL     1       5.278   3.462   0.241  0.00  0.00    +0.000 C 
ATOM     19  C   UNL     1       7.141   2.681  -1.271  0.00  0.00    +0.000 C 
ATOM     22  C   UNL     1       6.691   3.736  -0.265  0.00  0.00    +0.000 C 
ENDBRANCH  17  14
ENDBRANCH  21  17
ENDBRANCH  10   4
BRANCH  11   5
ATOM      3  O   UNL     1      -5.226  -1.695   0.155  0.00  0.00    -0.270 OA
ATOM      5  N   UNL     1      -3.064  -0.865   0.041  0.00  0.00    -0.304 N 
ATOM     23  C   UNL     1      -4.445  -0.749   0.105  0.00  0.00    +0.244 C 
ATOM     31  H   UNL     1      -2.489  -0.044  -0.114  0.00  0.00    +0.149 HD
BRANCH  23  24
ATOM     24  C   UNL     1      -4.983   0.636   0.084  0.00  0.00    +0.037 A 
ATOM     25  C   UNL     1      -6.253   0.851  -0.409  0.00  0.00    +0.013 A 
ATOM     26  C   UNL     1      -4.195   1.663   0.560  0.00  0.00    +0.013 A 
ATOM     27  C   UNL     1      -6.758   2.151  -0.427  0.00  0.00    +0.004 A 
ATOM     28  C   UNL     1      -4.700   2.964   0.542  0.00  0.00    +0.004 A 
ATOM     29  C   UNL     1      -5.981   3.207   0.049  0.00  0.00    -0.050 A 
ATOM     30  C   UNL     1      -6.521   4.597   0.028  0.00  0.00    +0.044 C 
ENDBRANCH  23  24
ENDBRANCH  11   5
TORSDOF 5
