REMARK  Name = 51136810
REMARK  4 active torsions:
REMARK  status: ('A' for Active; 'I' for Inactive)
REMARK    1  A    between atoms: N_3  and  C_9
REMARK    2  A    between atoms: C_10  and  C_19
REMARK    3  A    between atoms: C_20  and  C_23
REMARK    4  A    between atoms: C_29  and  C_31
REMARK                            x       y       z     vdW  Elec       q    Type
REMARK                         _______ _______ _______ _____ _____    ______ ____
ROOT
ATOM      1  O   UNL     1      -3.353   2.483   0.203  0.00  0.00    -0.336 OA
ATOM      4  N   UNL     1      -1.667   1.040   0.503  0.00  0.00    -0.190 NA
ATOM      5  N   UNL     1      -2.193   3.150  -0.209  0.00  0.00    -0.056 NA
ATOM     19  C   UNL     1      -2.955   1.248   0.608  0.00  0.00    +0.245 A 
ATOM     20  C   UNL     1      -1.241   2.234  -0.002  0.00  0.00    +0.202 A 
ENDROOT
BRANCH  20  23
ATOM      2  O   UNL     1       6.231  -2.941   1.754  0.00  0.00    -0.276 OA
ATOM      6  N   UNL     1       3.354   0.780  -0.106  0.00  0.00    -0.312 N 
ATOM      7  N   UNL     1       5.253  -1.353   0.368  0.00  0.00    -0.299 N 
ATOM      8  N   UNL     1       2.840   2.962  -0.849  0.00  0.00    -0.240 NA
ATOM     21  C   UNL     1       4.572   0.674  -0.914  0.00  0.00    +0.125 C 
ATOM     22  C   UNL     1       3.167  -0.173   0.991  0.00  0.00    +0.125 C 
ATOM     23  C   UNL     1       0.144   2.482  -0.288  0.00  0.00    +0.027 A 
ATOM     24  C   UNL     1       5.067  -0.771  -0.963  0.00  0.00    +0.126 C 
ATOM     25  C   UNL     1       4.511  -0.728   1.460  0.00  0.00    +0.126 C 
ATOM     26  C   UNL     1       2.416   1.780  -0.348  0.00  0.00    +0.122 A 
ATOM     27  C   UNL     1       1.093   1.492  -0.054  0.00  0.00    +0.055 A 
ATOM     28  C   UNL     1       0.541   3.711  -0.802  0.00  0.00    +0.031 A 
ATOM     29  C   UNL     1       6.073  -2.450   0.634  0.00  0.00    +0.213 C 
ATOM     30  C   UNL     1       1.889   3.899  -1.063  0.00  0.00    +0.113 A 
ATOM     31  C   UNL     1       6.799  -3.042  -0.549  0.00  0.00    +0.109 C 
ENDBRANCH  20  23
BRANCH  19  10
ATOM      3  N   UNL     1      -3.700  -1.106   0.915  0.00  0.00    -0.288 NA
ATOM     10  C   UNL     1      -4.041   0.318   1.106  0.00  0.00    +0.146 C 
ATOM     13  C   UNL     1      -4.379  -1.840   1.983  0.00  0.00    +0.085 C 
ATOM     14  C   UNL     1      -4.296   0.459   2.618  0.00  0.00    +0.030 C 
ATOM     15  C   UNL     1      -4.136  -0.946   3.182  0.00  0.00    +0.017 C 
BRANCH   3   9
ATOM      9  C   UNL     1      -4.055  -1.610  -0.410  0.00  0.00    +0.057 C 
ATOM     11  C   UNL     1      -3.720  -3.102  -0.507  0.00  0.00    +0.019 C 
ATOM     12  C   UNL     1      -3.318  -0.807  -1.488  0.00  0.00    +0.019 C 
ATOM     16  C   UNL     1      -4.007  -3.647  -1.905  0.00  0.00    +0.002 C 
ATOM     17  C   UNL     1      -3.605  -1.355  -2.885  0.00  0.00    +0.002 C 
ATOM     18  C   UNL     1      -3.284  -2.843  -2.982  0.00  0.00    +0.000 C 
ENDBRANCH   3   9
ENDBRANCH  19  10
TORSDOF 3
