MODEL 1
REMARK VINA RESULT:      -6.9      0.000      0.000
REMARK  Name = 26743082
REMARK  7 active torsions:
REMARK  status: ('A' for Active; 'I' for Inactive)
REMARK    1  A    between atoms: S_1  and  C_20
REMARK    2  A    between atoms: S_1  and  C_24
REMARK    3  A    between atoms: C_9  and  C_15
REMARK    4  A    between atoms: C_10  and  C_14
REMARK    5  A    between atoms: C_14  and  C_16
REMARK    6  A    between atoms: C_15  and  C_17
REMARK    7  A    between atoms: C_19  and  C_20
REMARK                            x       y       z     vdW  Elec       q    Type
REMARK                         _______ _______ _______ _____ _____    ______ ____
ROOT
ATOM      5  N   UNL     1      -7.312 -11.282  20.062  0.00  0.00    -0.316 NA
ATOM      9  C   UNL     1      -7.151 -10.831  17.151  0.00  0.00    +0.004 C 
ATOM     10  C   UNL     1      -5.899 -11.050  18.034  0.00  0.00    +0.012 C 
ATOM     11  C   UNL     1      -8.368 -11.474  17.837  0.00  0.00    +0.019 C 
ATOM     12  C   UNL     1      -6.146 -10.611  19.487  0.00  0.00    +0.085 C 
ATOM     13  C   UNL     1      -8.524 -11.024  19.289  0.00  0.00    +0.081 C 
ATOM     30  H   UNL     1      -7.447 -10.962  21.020  0.00  0.00    +0.122 HD
ENDROOT
BRANCH  10  14
ATOM     14  C   UNL     1      -4.646 -10.375  17.475  0.00  0.00    +0.064 C 
BRANCH  14  16
ATOM      3  O   UNL     1      -3.646 -12.921  15.135  0.00  0.00    -0.359 OA
ATOM      6  N   UNL     1      -4.410 -12.462  16.200  0.00  0.00    -0.083 NA
ATOM     16  C   UNL     1      -4.020 -11.199  16.387  0.00  0.00    +0.084 A 
ATOM     18  C   UNL     1      -3.020 -10.809  15.478  0.00  0.00    +0.071 A 
ATOM     19  C   UNL     1      -2.822 -11.927  14.714  0.00  0.00    +0.148 A 
BRANCH  19  20
ATOM     20  C   UNL     1      -1.937 -12.244  13.586  0.00  0.00    +0.151 C 
BRANCH  20   1
ATOM      1  S   UNL     1      -2.803 -13.052  12.195  0.00  0.00    -0.117 S 
BRANCH   1  24
ATOM     24  C   UNL     1      -3.164 -11.646  11.153  0.00  0.00    +0.008 A 
ATOM     25  C   UNL     1      -4.084 -11.768  10.111  0.00  0.00    +0.015 A 
ATOM     26  C   UNL     1      -2.528 -10.427  11.382  0.00  0.00    +0.015 A 
ATOM     27  C   UNL     1      -4.366 -10.670   9.297  0.00  0.00    +0.001 A 
ATOM     28  C   UNL     1      -2.809  -9.329  10.569  0.00  0.00    +0.001 A 
ATOM     29  C   UNL     1      -3.728  -9.451   9.526  0.00  0.00    +0.000 A 
ENDBRANCH   1  24
ENDBRANCH  20   1
ENDBRANCH  19  20
ENDBRANCH  14  16
ENDBRANCH  10  14
BRANCH   9  15
ATOM     15  C   UNL     1      -7.428  -9.362  16.814  0.00  0.00    +0.100 C 
BRANCH  15  17
ATOM      2  S   UNL     1     -11.215  -6.201  16.198  0.00  0.00    -0.061 S 
ATOM      4  O   UNL     1      -8.753  -9.969  14.896  0.00  0.00    -0.275 OA
ATOM      7  N   UNL     1      -9.345  -8.089  16.176  0.00  0.00    -0.265 N 
ATOM      8  N   UNL     1     -11.080  -8.097  14.446  0.00  0.00    -0.233 NA
ATOM     17  C   UNL     1      -8.577  -9.199  15.835  0.00  0.00    +0.219 C 
ATOM     21  C   UNL     1     -10.498  -7.603  15.515  0.00  0.00    +0.164 A 
ATOM     22  C   UNL     1     -12.410  -6.243  14.968  0.00  0.00    +0.068 A 
ATOM     23  C   UNL     1     -12.177  -7.316  14.133  0.00  0.00    +0.120 A 
ATOM     31  H   UNL     1      -9.076  -7.534  16.984  0.00  0.00    +0.157 HD
ENDBRANCH  15  17
ENDBRANCH   9  15
TORSDOF 7
ENDMDL
MODEL 2
REMARK VINA RESULT:      -6.8      2.402      8.081
REMARK  Name = 26743082
REMARK  7 active torsions:
REMARK  status: ('A' for Active; 'I' for Inactive)
REMARK    1  A    between atoms: S_1  and  C_20
REMARK    2  A    between atoms: S_1  and  C_24
REMARK    3  A    between atoms: C_9  and  C_15
REMARK    4  A    between atoms: C_10  and  C_14
REMARK    5  A    between atoms: C_14  and  C_16
REMARK    6  A    between atoms: C_15  and  C_17
REMARK    7  A    between atoms: C_19  and  C_20
REMARK                            x       y       z     vdW  Elec       q    Type
REMARK                         _______ _______ _______ _____ _____    ______ ____
ROOT
ATOM      5  N   UNL     1      -8.071 -10.893  19.711  0.00  0.00    -0.316 NA
ATOM      9  C   UNL     1      -6.298 -10.079  17.499  0.00  0.00    +0.004 C 
ATOM     10  C   UNL     1      -7.795  -9.690  17.557  0.00  0.00    +0.012 C 
ATOM     11  C   UNL     1      -5.793 -10.350  18.926  0.00  0.00    +0.019 C 
ATOM     12  C   UNL     1      -8.614 -10.710  18.366  0.00  0.00    +0.085 C 
ATOM     13  C   UNL     1      -6.680 -11.338  19.680  0.00  0.00    +0.081 C 
ATOM     30  H   UNL     1      -8.635 -11.579  20.212  0.00  0.00    +0.122 HD
ENDROOT
BRANCH  10  14
ATOM     14  C   UNL     1      -8.413  -9.478  16.175  0.00  0.00    +0.064 C 
BRANCH  14  16
ATOM      3  O   UNL     1     -10.789  -6.915  17.040  0.00  0.00    -0.359 OA
ATOM      6  N   UNL     1      -9.756  -7.790  17.352  0.00  0.00    -0.083 NA
ATOM     16  C   UNL     1      -9.495  -8.438  16.213  0.00  0.00    +0.084 A 
ATOM     18  C   UNL     1     -10.325  -8.019  15.158  0.00  0.00    +0.071 A 
ATOM     19  C   UNL     1     -11.119  -7.061  15.731  0.00  0.00    +0.148 A 
BRANCH  19  20
ATOM     20  C   UNL     1     -12.203  -6.206  15.229  0.00  0.00    +0.151 C 
BRANCH  20   1
ATOM      1  S   UNL     1     -13.009  -6.871  13.730  0.00  0.00    -0.117 S 
BRANCH   1  24
ATOM     24  C   UNL     1     -12.578  -5.621  12.527  0.00  0.00    +0.008 A 
ATOM     25  C   UNL     1     -12.297  -5.987  11.211  0.00  0.00    +0.015 A 
ATOM     26  C   UNL     1     -12.524  -4.279  12.904  0.00  0.00    +0.015 A 
ATOM     27  C   UNL     1     -11.960  -5.011  10.271  0.00  0.00    +0.001 A 
ATOM     28  C   UNL     1     -12.188  -3.304  11.966  0.00  0.00    +0.001 A 
ATOM     29  C   UNL     1     -11.905  -3.670  10.650  0.00  0.00    +0.000 A 
ENDBRANCH   1  24
ENDBRANCH  20   1
ENDBRANCH  19  20
ENDBRANCH  14  16
ENDBRANCH  10  14
BRANCH   9  15
ATOM     15  C   UNL     1      -5.998 -11.268  16.579  0.00  0.00    +0.100 C 
BRANCH  15  17
ATOM      2  S   UNL     1      -4.482 -10.293  11.946  0.00  0.00    -0.061 S 
ATOM      4  O   UNL     1      -3.593 -11.255  16.444  0.00  0.00    -0.275 OA
ATOM      7  N   UNL     1      -4.872 -10.837  14.518  0.00  0.00    -0.265 N 
ATOM      8  N   UNL     1      -2.584 -10.669  13.658  0.00  0.00    -0.233 NA
ATOM     17  C   UNL     1      -4.666 -11.125  15.864  0.00  0.00    +0.219 C 
ATOM     21  C   UNL     1      -3.889 -10.631  13.520  0.00  0.00    +0.164 A 
ATOM     22  C   UNL     1      -2.865 -10.184  11.386  0.00  0.00    +0.068 A 
ATOM     23  C   UNL     1      -1.997 -10.412  12.434  0.00  0.00    +0.120 A 
ATOM     31  H   UNL     1      -5.824 -10.751  14.172  0.00  0.00    +0.157 HD
ENDBRANCH  15  17
ENDBRANCH   9  15
TORSDOF 7
ENDMDL
MODEL 3
REMARK VINA RESULT:      -6.7     28.916     31.584
REMARK  Name = 26743082
REMARK  7 active torsions:
REMARK  status: ('A' for Active; 'I' for Inactive)
REMARK    1  A    between atoms: S_1  and  C_20
REMARK    2  A    between atoms: S_1  and  C_24
REMARK    3  A    between atoms: C_9  and  C_15
REMARK    4  A    between atoms: C_10  and  C_14
REMARK    5  A    between atoms: C_14  and  C_16
REMARK    6  A    between atoms: C_15  and  C_17
REMARK    7  A    between atoms: C_19  and  C_20
REMARK                            x       y       z     vdW  Elec       q    Type
REMARK                         _______ _______ _______ _____ _____    ______ ____
ROOT
ATOM      5  N   UNL     1      20.649   9.235  21.530  0.00  0.00    -0.316 NA
ATOM      9  C   UNL     1      20.628   6.398  20.720  0.00  0.00    +0.004 C 
ATOM     10  C   UNL     1      19.336   7.239  20.856  0.00  0.00    +0.012 C 
ATOM     11  C   UNL     1      21.815   7.340  20.457  0.00  0.00    +0.019 C 
ATOM     12  C   UNL     1      19.508   8.385  21.867  0.00  0.00    +0.085 C 
ATOM     13  C   UNL     1      21.896   8.475  21.476  0.00  0.00    +0.081 C 
ATOM     30  H   UNL     1      20.735   9.976  22.225  0.00  0.00    +0.122 HD
ENDROOT
BRANCH  10  14
ATOM     14  C   UNL     1      18.107   6.398  21.200  0.00  0.00    +0.064 C 
BRANCH  14  16
ATOM      3  O   UNL     1      15.825   6.309  18.418  0.00  0.00    -0.359 OA
ATOM      6  N   UNL     1      16.949   5.862  19.101  0.00  0.00    -0.083 NA
ATOM     16  C   UNL     1      17.002   6.610  20.206  0.00  0.00    +0.084 A 
ATOM     18  C   UNL     1      15.948   7.538  20.274  0.00  0.00    +0.071 A 
ATOM     19  C   UNL     1      15.238   7.308  19.126  0.00  0.00    +0.148 A 
BRANCH  19  20
ATOM     20  C   UNL     1      14.028   7.900  18.543  0.00  0.00    +0.151 C 
BRANCH  20   1
ATOM      1  S   UNL     1      12.497   7.014  19.004  0.00  0.00    -0.117 S 
BRANCH   1  24
ATOM     24  C   UNL     1      11.887   8.048  20.327  0.00  0.00    +0.008 A 
ATOM     25  C   UNL     1      11.187   7.479  21.391  0.00  0.00    +0.015 A 
ATOM     26  C   UNL     1      12.112   9.424  20.297  0.00  0.00    +0.015 A 
ATOM     27  C   UNL     1      10.710   8.286  22.424  0.00  0.00    +0.001 A 
ATOM     28  C   UNL     1      11.636  10.232  21.329  0.00  0.00    +0.001 A 
ATOM     29  C   UNL     1      10.934   9.663  22.393  0.00  0.00    +0.000 A 
ENDBRANCH   1  24
ENDBRANCH  20   1
ENDBRANCH  19  20
ENDBRANCH  14  16
ENDBRANCH  10  14
BRANCH   9  15
ATOM     15  C   UNL     1      20.909   5.489  21.922  0.00  0.00    +0.100 C 
BRANCH  15  17
ATOM      2  S   UNL     1      25.416   3.500  22.586  0.00  0.00    -0.061 S 
ATOM      4  O   UNL     1      21.062   3.330  20.865  0.00  0.00    -0.275 OA
ATOM      7  N   UNL     1      22.918   4.202  22.012  0.00  0.00    -0.265 N 
ATOM      8  N   UNL     1      23.773   2.046  21.220  0.00  0.00    -0.233 NA
ATOM     17  C   UNL     1      21.615   4.205  21.524  0.00  0.00    +0.219 C 
ATOM     21  C   UNL     1      23.895   3.189  21.856  0.00  0.00    +0.164 A 
ATOM     22  C   UNL     1      25.973   1.983  22.013  0.00  0.00    +0.068 A 
ATOM     23  C   UNL     1      24.965   1.355  21.311  0.00  0.00    +0.120 A 
ATOM     31  H   UNL     1      23.244   4.999  22.553  0.00  0.00    +0.157 HD
ENDBRANCH  15  17
ENDBRANCH   9  15
TORSDOF 7
ENDMDL
MODEL 4
REMARK VINA RESULT:      -6.5      3.307      8.794
REMARK  Name = 26743082
REMARK  7 active torsions:
REMARK  status: ('A' for Active; 'I' for Inactive)
REMARK    1  A    between atoms: S_1  and  C_20
REMARK    2  A    between atoms: S_1  and  C_24
REMARK    3  A    between atoms: C_9  and  C_15
REMARK    4  A    between atoms: C_10  and  C_14
REMARK    5  A    between atoms: C_14  and  C_16
REMARK    6  A    between atoms: C_15  and  C_17
REMARK    7  A    between atoms: C_19  and  C_20
REMARK                            x       y       z     vdW  Elec       q    Type
REMARK                         _______ _______ _______ _____ _____    ______ ____
ROOT
ATOM      5  N   UNL     1      -6.102 -10.978   6.760  0.00  0.00    -0.316 NA
ATOM      9  C   UNL     1      -4.937 -10.632   9.448  0.00  0.00    +0.004 C 
ATOM     10  C   UNL     1      -6.358 -10.139   9.083  0.00  0.00    +0.012 C 
ATOM     11  C   UNL     1      -4.544 -11.778   8.502  0.00  0.00    +0.019 C 
ATOM     12  C   UNL     1      -6.482  -9.829   7.582  0.00  0.00    +0.085 C 
ATOM     13  C   UNL     1      -4.733 -11.411   7.031  0.00  0.00    +0.081 C 
ATOM     30  H   UNL     1      -6.190 -10.732   5.775  0.00  0.00    +0.122 HD
ENDROOT
BRANCH  10  14
ATOM     14  C   UNL     1      -6.811  -8.942   9.919  0.00  0.00    +0.064 C 
BRANCH  14  16
ATOM      3  O   UNL     1      -6.563  -9.345  13.487  0.00  0.00    -0.359 OA
ATOM      6  N   UNL     1      -6.137  -8.810  12.278  0.00  0.00    -0.083 NA
ATOM     16  C   UNL     1      -6.972  -9.313  11.365  0.00  0.00    +0.084 A 
ATOM     18  C   UNL     1      -7.935 -10.165  11.933  0.00  0.00    +0.071 A 
ATOM     19  C   UNL     1      -7.634 -10.150  13.269  0.00  0.00    +0.148 A 
BRANCH  19  20
ATOM     20  C   UNL     1      -8.214 -10.804  14.449  0.00  0.00    +0.151 C 
BRANCH  20   1
ATOM      1  S   UNL     1      -8.622  -9.634  15.792  0.00  0.00    -0.117 S 
BRANCH   1  24
ATOM     24  C   UNL     1      -7.464 -10.144  17.054  0.00  0.00    +0.008 A 
ATOM     25  C   UNL     1      -7.933 -10.649  18.268  0.00  0.00    +0.015 A 
ATOM     26  C   UNL     1      -6.093 -10.039  16.826  0.00  0.00    +0.015 A 
ATOM     27  C   UNL     1      -7.029 -11.048  19.254  0.00  0.00    +0.001 A 
ATOM     28  C   UNL     1      -5.189 -10.438  17.810  0.00  0.00    +0.001 A 
ATOM     29  C   UNL     1      -5.657 -10.941  19.025  0.00  0.00    +0.000 A 
ENDBRANCH   1  24
ENDBRANCH  20   1
ENDBRANCH  19  20
ENDBRANCH  14  16
ENDBRANCH  10  14
BRANCH   9  15
ATOM     15  C   UNL     1      -3.873  -9.528   9.440  0.00  0.00    +0.100 C 
BRANCH  15  17
ATOM      2  S   UNL     1      -4.008 -11.575  13.968  0.00  0.00    -0.061 S 
ATOM      4  O   UNL     1      -1.836  -9.085  10.647  0.00  0.00    -0.275 OA
ATOM      7  N   UNL     1      -3.543 -10.342  11.660  0.00  0.00    -0.265 N 
ATOM      8  N   UNL     1      -1.832 -10.295  13.414  0.00  0.00    -0.233 NA
ATOM     17  C   UNL     1      -2.945  -9.610  10.639  0.00  0.00    +0.219 C 
ATOM     21  C   UNL     1      -3.004 -10.644  12.934  0.00  0.00    +0.164 A 
ATOM     22  C   UNL     1      -2.784 -11.518  15.168  0.00  0.00    +0.068 A 
ATOM     23  C   UNL     1      -1.707 -10.797  14.695  0.00  0.00    +0.120 A 
ATOM     31  H   UNL     1      -4.472 -10.728  11.512  0.00  0.00    +0.157 HD
ENDBRANCH  15  17
ENDBRANCH   9  15
TORSDOF 7
ENDMDL
MODEL 5
REMARK VINA RESULT:      -6.4      2.623      7.865
REMARK  Name = 26743082
REMARK  7 active torsions:
REMARK  status: ('A' for Active; 'I' for Inactive)
REMARK    1  A    between atoms: S_1  and  C_20
REMARK    2  A    between atoms: S_1  and  C_24
REMARK    3  A    between atoms: C_9  and  C_15
REMARK    4  A    between atoms: C_10  and  C_14
REMARK    5  A    between atoms: C_14  and  C_16
REMARK    6  A    between atoms: C_15  and  C_17
REMARK    7  A    between atoms: C_19  and  C_20
REMARK                            x       y       z     vdW  Elec       q    Type
REMARK                         _______ _______ _______ _____ _____    ______ ____
ROOT
ATOM      5  N   UNL     1      -3.471 -11.854  18.170  0.00  0.00    -0.316 NA
ATOM      9  C   UNL     1      -5.729 -10.767  16.613  0.00  0.00    +0.004 C 
ATOM     10  C   UNL     1      -5.927 -11.654  17.865  0.00  0.00    +0.012 C 
ATOM     11  C   UNL     1      -4.356 -10.080  16.697  0.00  0.00    +0.019 C 
ATOM     12  C   UNL     1      -4.730 -12.594  18.090  0.00  0.00    +0.085 C 
ATOM     13  C   UNL     1      -3.223 -11.070  16.962  0.00  0.00    +0.081 C 
ATOM     30  H   UNL     1      -2.703 -12.509  18.311  0.00  0.00    +0.122 HD
ENDROOT
BRANCH  10  14
ATOM     14  C   UNL     1      -7.235 -12.447  17.838  0.00  0.00    +0.064 C 
BRANCH  14  16
ATOM      3  O   UNL     1      -9.479 -10.887  20.181  0.00  0.00    -0.359 OA
ATOM      6  N   UNL     1      -8.345 -11.628  19.871  0.00  0.00    -0.083 NA
ATOM     16  C   UNL     1      -8.338 -11.707  18.537  0.00  0.00    +0.084 A 
ATOM     18  C   UNL     1      -9.432 -11.041  17.957  0.00  0.00    +0.071 A 
ATOM     19  C   UNL     1     -10.118 -10.544  19.033  0.00  0.00    +0.148 A 
BRANCH  19  20
ATOM     20  C   UNL     1     -11.346  -9.753  19.178  0.00  0.00    +0.151 C 
BRANCH  20   1
ATOM      1  S   UNL     1     -12.500  -9.951  17.775  0.00  0.00    -0.117 S 
BRANCH   1  24
ATOM     24  C   UNL     1     -12.257  -8.405  16.911  0.00  0.00    +0.008 A 
ATOM     25  C   UNL     1     -11.019  -7.764  16.964  0.00  0.00    +0.015 A 
ATOM     26  C   UNL     1     -13.304  -7.841  16.184  0.00  0.00    +0.015 A 
ATOM     27  C   UNL     1     -10.829  -6.557  16.290  0.00  0.00    +0.001 A 
ATOM     28  C   UNL     1     -13.115  -6.635  15.509  0.00  0.00    +0.001 A 
ATOM     29  C   UNL     1     -11.877  -5.992  15.563  0.00  0.00    +0.000 A 
ENDBRANCH   1  24
ENDBRANCH  20   1
ENDBRANCH  19  20
ENDBRANCH  14  16
ENDBRANCH  10  14
BRANCH   9  15
ATOM     15  C   UNL     1      -5.884 -11.518  15.285  0.00  0.00    +0.100 C 
BRANCH  15  17
ATOM      2  S   UNL     1      -3.048 -10.521  11.326  0.00  0.00    -0.061 S 
ATOM      4  O   UNL     1      -6.881  -9.801  13.922  0.00  0.00    -0.275 OA
ATOM      7  N   UNL     1      -4.829 -10.752  13.285  0.00  0.00    -0.265 N 
ATOM      8  N   UNL     1      -5.221  -9.132  11.488  0.00  0.00    -0.233 NA
ATOM     17  C   UNL     1      -5.948 -10.579  14.094  0.00  0.00    +0.219 C 
ATOM     21  C   UNL     1      -4.519 -10.068  12.085  0.00  0.00    +0.164 A 
ATOM     22  C   UNL     1      -3.362  -9.377  10.088  0.00  0.00    +0.068 A 
ATOM     23  C   UNL     1      -4.557  -8.736  10.343  0.00  0.00    +0.120 A 
ATOM     31  H   UNL     1      -4.132 -11.444  13.549  0.00  0.00    +0.157 HD
ENDBRANCH  15  17
ENDBRANCH   9  15
TORSDOF 7
ENDMDL
MODEL 6
REMARK VINA RESULT:      -6.3     29.024     30.667
REMARK  Name = 26743082
REMARK  7 active torsions:
REMARK  status: ('A' for Active; 'I' for Inactive)
REMARK    1  A    between atoms: S_1  and  C_20
REMARK    2  A    between atoms: S_1  and  C_24
REMARK    3  A    between atoms: C_9  and  C_15
REMARK    4  A    between atoms: C_10  and  C_14
REMARK    5  A    between atoms: C_14  and  C_16
REMARK    6  A    between atoms: C_15  and  C_17
REMARK    7  A    between atoms: C_19  and  C_20
REMARK                            x       y       z     vdW  Elec       q    Type
REMARK                         _______ _______ _______ _____ _____    ______ ____
ROOT
ATOM      5  N   UNL     1      13.749   6.977  21.937  0.00  0.00    -0.316 NA
ATOM      9  C   UNL     1      14.969   7.797  19.379  0.00  0.00    +0.004 C 
ATOM     10  C   UNL     1      15.796   7.586  20.670  0.00  0.00    +0.012 C 
ATOM     11  C   UNL     1      13.678   6.967  19.467  0.00  0.00    +0.019 C 
ATOM     12  C   UNL     1      14.947   7.817  21.931  0.00  0.00    +0.085 C 
ATOM     13  C   UNL     1      12.911   7.219  20.764  0.00  0.00    +0.081 C 
ATOM     30  H   UNL     1      13.210   7.163  22.782  0.00  0.00    +0.122 HD
ENDROOT
BRANCH  10  14
ATOM     14  C   UNL     1      17.066   8.435  20.714  0.00  0.00    +0.064 C 
BRANCH  14  16
ATOM      3  O   UNL     1      20.301   7.012  21.401  0.00  0.00    -0.359 OA
ATOM      6  N   UNL     1      19.368   8.038  21.478  0.00  0.00    -0.083 NA
ATOM     16  C   UNL     1      18.294   7.578  20.831  0.00  0.00    +0.084 A 
ATOM     18  C   UNL     1      18.488   6.279  20.329  0.00  0.00    +0.071 A 
ATOM     19  C   UNL     1      19.765   5.970  20.714  0.00  0.00    +0.148 A 
BRANCH  19  20
ATOM     20  C   UNL     1      20.623   4.792  20.537  0.00  0.00    +0.151 C 
BRANCH  20   1
ATOM      1  S   UNL     1      21.808   4.551  21.908  0.00  0.00    -0.117 S 
BRANCH   1  24
ATOM     24  C   UNL     1      23.287   4.108  21.008  0.00  0.00    +0.008 A 
ATOM     25  C   UNL     1      23.632   2.765  20.852  0.00  0.00    +0.015 A 
ATOM     26  C   UNL     1      24.095   5.104  20.462  0.00  0.00    +0.015 A 
ATOM     27  C   UNL     1      24.787   2.419  20.150  0.00  0.00    +0.001 A 
ATOM     28  C   UNL     1      25.250   4.759  19.760  0.00  0.00    +0.001 A 
ATOM     29  C   UNL     1      25.596   3.415  19.604  0.00  0.00    +0.000 A 
ENDBRANCH   1  24
ENDBRANCH  20   1
ENDBRANCH  19  20
ENDBRANCH  14  16
ENDBRANCH  10  14
BRANCH   9  15
ATOM     15  C   UNL     1      14.654   9.266  19.074  0.00  0.00    +0.100 C 
BRANCH  15  17
ATOM      2  S   UNL     1      14.425  13.221  16.070  0.00  0.00    -0.061 S 
ATOM      4  O   UNL     1      14.212   8.598  16.802  0.00  0.00    -0.275 OA
ATOM      7  N   UNL     1      14.469  10.876  17.320  0.00  0.00    -0.265 N 
ATOM      8  N   UNL     1      14.057  10.944  14.905  0.00  0.00    -0.233 NA
ATOM     17  C   UNL     1      14.417   9.512  17.595  0.00  0.00    +0.219 C 
ATOM     21  C   UNL     1      14.300  11.509  16.066  0.00  0.00    +0.164 A 
ATOM     22  C   UNL     1      14.134  13.223  14.380  0.00  0.00    +0.068 A 
ATOM     23  C   UNL     1      13.963  11.927  13.939  0.00  0.00    +0.120 A 
ATOM     31  H   UNL     1      14.655  11.525  18.080  0.00  0.00    +0.157 HD
ENDBRANCH  15  17
ENDBRANCH   9  15
TORSDOF 7
ENDMDL
MODEL 7
REMARK VINA RESULT:      -6.1     25.844     30.102
REMARK  Name = 26743082
REMARK  7 active torsions:
REMARK  status: ('A' for Active; 'I' for Inactive)
REMARK    1  A    between atoms: S_1  and  C_20
REMARK    2  A    between atoms: S_1  and  C_24
REMARK    3  A    between atoms: C_9  and  C_15
REMARK    4  A    between atoms: C_10  and  C_14
REMARK    5  A    between atoms: C_14  and  C_16
REMARK    6  A    between atoms: C_15  and  C_17
REMARK    7  A    between atoms: C_19  and  C_20
REMARK                            x       y       z     vdW  Elec       q    Type
REMARK                         _______ _______ _______ _____ _____    ______ ____
ROOT
ATOM      5  N   UNL     1      23.440  -5.204   0.954  0.00  0.00    -0.316 NA
ATOM      9  C   UNL     1      22.690  -7.422   2.749  0.00  0.00    +0.004 C 
ATOM     10  C   UNL     1      21.798  -6.961   1.571  0.00  0.00    +0.012 C 
ATOM     11  C   UNL     1      24.148  -7.032   2.457  0.00  0.00    +0.019 C 
ATOM     12  C   UNL     1      22.030  -5.479   1.230  0.00  0.00    +0.085 C 
ATOM     13  C   UNL     1      24.295  -5.557   2.086  0.00  0.00    +0.081 C 
ATOM     30  H   UNL     1      23.555  -4.214   0.740  0.00  0.00    +0.122 HD
ENDROOT
BRANCH  10  14
ATOM     14  C   UNL     1      20.311  -7.232   1.803  0.00  0.00    +0.064 C 
BRANCH  14  16
ATOM      3  O   UNL     1      19.462 -10.283   0.091  0.00  0.00    -0.359 OA
ATOM      6  N   UNL     1      19.797  -8.935   0.108  0.00  0.00    -0.083 NA
ATOM     16  C   UNL     1      19.941  -8.630   1.400  0.00  0.00    +0.084 A 
ATOM     18  C   UNL     1      19.710  -9.735   2.238  0.00  0.00    +0.071 A 
ATOM     19  C   UNL     1      19.413 -10.748   1.366  0.00  0.00    +0.148 A 
BRANCH  19  20
ATOM     20  C   UNL     1      19.069 -12.165   1.533  0.00  0.00    +0.151 C 
BRANCH  20   1
ATOM      1  S   UNL     1      17.286 -12.505   1.314  0.00  0.00    -0.117 S 
BRANCH   1  24
ATOM     24  C   UNL     1      16.762 -12.690   3.012  0.00  0.00    +0.008 A 
ATOM     25  C   UNL     1      15.414 -12.556   3.345  0.00  0.00    +0.015 A 
ATOM     26  C   UNL     1      17.700 -12.971   4.005  0.00  0.00    +0.015 A 
ATOM     27  C   UNL     1      15.004 -12.700   4.671  0.00  0.00    +0.001 A 
ATOM     28  C   UNL     1      17.292 -13.115   5.331  0.00  0.00    +0.001 A 
ATOM     29  C   UNL     1      15.943 -12.979   5.664  0.00  0.00    +0.000 A 
ENDBRANCH   1  24
ENDBRANCH  20   1
ENDBRANCH  19  20
ENDBRANCH  14  16
ENDBRANCH  10  14
BRANCH   9  15
ATOM     15  C   UNL     1      22.244  -6.887   4.115  0.00  0.00    +0.100 C 
BRANCH  15  17
ATOM      2  S   UNL     1      22.214 -11.858   4.153  0.00  0.00    -0.061 S 
ATOM      4  O   UNL     1      22.090  -7.730   6.366  0.00  0.00    -0.275 OA
ATOM      7  N   UNL     1      22.202  -9.232   4.563  0.00  0.00    -0.265 N 
ATOM      8  N   UNL     1      22.066 -10.748   6.483  0.00  0.00    -0.233 NA
ATOM     17  C   UNL     1      22.168  -7.979   5.167  0.00  0.00    +0.219 C 
ATOM     21  C   UNL     1      22.153 -10.497   5.196  0.00  0.00    +0.164 A 
ATOM     22  C   UNL     1      22.119 -12.883   5.525  0.00  0.00    +0.068 A 
ATOM     23  C   UNL     1      22.047 -12.117   6.670  0.00  0.00    +0.120 A 
ATOM     31  H   UNL     1      22.275  -9.289   3.550  0.00  0.00    +0.157 HD
ENDBRANCH  15  17
ENDBRANCH   9  15
TORSDOF 7
ENDMDL
MODEL 8
REMARK VINA RESULT:      -6.1      1.942      2.337
REMARK  Name = 26743082
REMARK  7 active torsions:
REMARK  status: ('A' for Active; 'I' for Inactive)
REMARK    1  A    between atoms: S_1  and  C_20
REMARK    2  A    between atoms: S_1  and  C_24
REMARK    3  A    between atoms: C_9  and  C_15
REMARK    4  A    between atoms: C_10  and  C_14
REMARK    5  A    between atoms: C_14  and  C_16
REMARK    6  A    between atoms: C_15  and  C_17
REMARK    7  A    between atoms: C_19  and  C_20
REMARK                            x       y       z     vdW  Elec       q    Type
REMARK                         _______ _______ _______ _____ _____    ______ ____
ROOT
ATOM      5  N   UNL     1      -8.619 -13.795  18.282  0.00  0.00    -0.316 NA
ATOM      9  C   UNL     1      -9.036 -11.048  17.289  0.00  0.00    +0.004 C 
ATOM     10  C   UNL     1      -7.645 -11.585  17.705  0.00  0.00    +0.012 C 
ATOM     11  C   UNL     1      -9.934 -12.232  16.893  0.00  0.00    +0.019 C 
ATOM     12  C   UNL     1      -7.760 -12.708  18.750  0.00  0.00    +0.085 C 
ATOM     13  C   UNL     1      -9.964 -13.325  17.960  0.00  0.00    +0.081 C 
ATOM     30  H   UNL     1      -8.675 -14.514  19.003  0.00  0.00    +0.122 HD
ENDROOT
BRANCH  10  14
ATOM     14  C   UNL     1      -6.701 -10.488  18.196  0.00  0.00    +0.064 C 
BRANCH  14  16
ATOM      3  O   UNL     1      -3.256 -11.362  17.629  0.00  0.00    -0.359 OA
ATOM      6  N   UNL     1      -4.414 -11.361  18.396  0.00  0.00    -0.083 NA
ATOM     16  C   UNL     1      -5.309 -10.687  17.670  0.00  0.00    +0.084 A 
ATOM     18  C   UNL     1      -4.778 -10.242  16.447  0.00  0.00    +0.071 A 
ATOM     19  C   UNL     1      -3.485 -10.692  16.471  0.00  0.00    +0.148 A 
BRANCH  19  20
ATOM     20  C   UNL     1      -2.358 -10.595  15.535  0.00  0.00    +0.151 C 
BRANCH  20   1
ATOM      1  S   UNL     1      -2.417 -11.845  14.203  0.00  0.00    -0.117 S 
BRANCH   1  24
ATOM     24  C   UNL     1      -2.926 -10.842  12.815  0.00  0.00    +0.008 A 
ATOM     25  C   UNL     1      -4.278 -10.558  12.618  0.00  0.00    +0.015 A 
ATOM     26  C   UNL     1      -1.973 -10.342  11.929  0.00  0.00    +0.015 A 
ATOM     27  C   UNL     1      -4.676  -9.776  11.533  0.00  0.00    +0.001 A 
ATOM     28  C   UNL     1      -2.370  -9.560  10.845  0.00  0.00    +0.001 A 
ATOM     29  C   UNL     1      -3.722  -9.277  10.647  0.00  0.00    +0.000 A 
ENDBRANCH   1  24
ENDBRANCH  20   1
ENDBRANCH  19  20
ENDBRANCH  14  16
ENDBRANCH  10  14
BRANCH   9  15
ATOM     15  C   UNL     1      -9.715 -10.183  18.358  0.00  0.00    +0.100 C 
BRANCH  15  17
ATOM      2  S   UNL     1     -10.661  -6.282  15.425  0.00  0.00    -0.061 S 
ATOM      4  O   UNL     1     -12.087  -9.845  18.112  0.00  0.00    -0.275 OA
ATOM      7  N   UNL     1     -10.584  -8.405  17.022  0.00  0.00    -0.265 N 
ATOM      8  N   UNL     1     -12.753  -7.490  16.341  0.00  0.00    -0.233 NA
ATOM     17  C   UNL     1     -10.951  -9.477  17.831  0.00  0.00    +0.219 C 
ATOM     21  C   UNL     1     -11.440  -7.503  16.346  0.00  0.00    +0.164 A 
ATOM     22  C   UNL     1     -12.199  -5.675  14.972  0.00  0.00    +0.068 A 
ATOM     23  C   UNL     1     -13.188  -6.442  15.553  0.00  0.00    +0.120 A 
ATOM     31  H   UNL     1      -9.597  -8.218  16.870  0.00  0.00    +0.157 HD
ENDBRANCH  15  17
ENDBRANCH   9  15
TORSDOF 7
ENDMDL
MODEL 9
REMARK VINA RESULT:      -6.1     24.577     28.221
REMARK  Name = 26743082
REMARK  7 active torsions:
REMARK  status: ('A' for Active; 'I' for Inactive)
REMARK    1  A    between atoms: S_1  and  C_20
REMARK    2  A    between atoms: S_1  and  C_24
REMARK    3  A    between atoms: C_9  and  C_15
REMARK    4  A    between atoms: C_10  and  C_14
REMARK    5  A    between atoms: C_14  and  C_16
REMARK    6  A    between atoms: C_15  and  C_17
REMARK    7  A    between atoms: C_19  and  C_20
REMARK                            x       y       z     vdW  Elec       q    Type
REMARK                         _______ _______ _______ _____ _____    ______ ____
ROOT
ATOM      5  N   UNL     1      16.317   4.378  -0.032  0.00  0.00    -0.316 NA
ATOM      9  C   UNL     1      13.453   4.372  -0.737  0.00  0.00    +0.004 C 
ATOM     10  C   UNL     1      13.954   4.284   0.725  0.00  0.00    +0.012 C 
ATOM     11  C   UNL     1      14.530   5.052  -1.598  0.00  0.00    +0.019 C 
ATOM     12  C   UNL     1      15.358   3.660   0.806  0.00  0.00    +0.085 C 
ATOM     13  C   UNL     1      15.904   4.404  -1.433  0.00  0.00    +0.081 C 
ATOM     30  H   UNL     1      17.231   3.932   0.043  0.00  0.00    +0.122 HD
ENDROOT
BRANCH  10  14
ATOM     14  C   UNL     1      12.984   3.548   1.649  0.00  0.00    +0.064 C 
BRANCH  14  16
ATOM      3  O   UNL     1      10.345   5.234   3.424  0.00  0.00    -0.359 OA
ATOM      6  N   UNL     1      10.879   4.128   2.774  0.00  0.00    -0.083 NA
ATOM     16  C   UNL     1      12.100   4.508   2.391  0.00  0.00    +0.084 A 
ATOM     18  C   UNL     1      12.390   5.831   2.767  0.00  0.00    +0.071 A 
ATOM     19  C   UNL     1      11.255   6.242   3.413  0.00  0.00    +0.148 A 
BRANCH  19  20
ATOM     20  C   UNL     1      10.851   7.496   4.061  0.00  0.00    +0.151 C 
BRANCH  20   1
ATOM      1  S   UNL     1      11.808   7.865   5.574  0.00  0.00    -0.117 S 
BRANCH   1  24
ATOM     24  C   UNL     1      10.728   7.200   6.833  0.00  0.00    +0.008 A 
ATOM     25  C   UNL     1      11.100   6.054   7.536  0.00  0.00    +0.015 A 
ATOM     26  C   UNL     1       9.515   7.828   7.113  0.00  0.00    +0.015 A 
ATOM     27  C   UNL     1      10.256   5.534   8.519  0.00  0.00    +0.001 A 
ATOM     28  C   UNL     1       8.672   7.309   8.096  0.00  0.00    +0.001 A 
ATOM     29  C   UNL     1       9.042   6.162   8.799  0.00  0.00    +0.000 A 
ENDBRANCH   1  24
ENDBRANCH  20   1
ENDBRANCH  19  20
ENDBRANCH  14  16
ENDBRANCH  10  14
BRANCH   9  15
ATOM     15  C   UNL     1      13.045   3.022  -1.338  0.00  0.00    +0.100 C 
BRANCH  15  17
ATOM      2  S   UNL     1       9.043   5.883  -2.051  0.00  0.00    -0.061 S 
ATOM      4  O   UNL     1      11.940   2.458  -3.403  0.00  0.00    -0.275 OA
ATOM      7  N   UNL     1      11.076   4.171  -2.047  0.00  0.00    -0.265 N 
ATOM      8  N   UNL     1       9.492   4.152  -3.917  0.00  0.00    -0.233 NA
ATOM     17  C   UNL     1      11.968   3.162  -2.399  0.00  0.00    +0.219 C 
ATOM     21  C   UNL     1       9.939   4.608  -2.769  0.00  0.00    +0.164 A 
ATOM     22  C   UNL     1       7.959   5.836  -3.380  0.00  0.00    +0.068 A 
ATOM     23  C   UNL     1       8.357   4.857  -4.267  0.00  0.00    +0.120 A 
ATOM     31  H   UNL     1      11.226   4.682  -1.180  0.00  0.00    +0.157 HD
ENDBRANCH  15  17
ENDBRANCH   9  15
TORSDOF 7
ENDMDL
MODEL 10
REMARK VINA RESULT:      -6.0     22.920     26.680
REMARK  Name = 26743082
REMARK  7 active torsions:
REMARK  status: ('A' for Active; 'I' for Inactive)
REMARK    1  A    between atoms: S_1  and  C_20
REMARK    2  A    between atoms: S_1  and  C_24
REMARK    3  A    between atoms: C_9  and  C_15
REMARK    4  A    between atoms: C_10  and  C_14
REMARK    5  A    between atoms: C_14  and  C_16
REMARK    6  A    between atoms: C_15  and  C_17
REMARK    7  A    between atoms: C_19  and  C_20
REMARK                            x       y       z     vdW  Elec       q    Type
REMARK                         _______ _______ _______ _____ _____    ______ ____
ROOT
ATOM      5  N   UNL     1     -13.999  10.033  30.161  0.00  0.00    -0.316 NA
ATOM      9  C   UNL     1     -11.631   9.523  31.846  0.00  0.00    +0.004 C 
ATOM     10  C   UNL     1     -13.030   8.947  32.173  0.00  0.00    +0.012 C 
ATOM     11  C   UNL     1     -11.545   9.808  30.338  0.00  0.00    +0.019 C 
ATOM     12  C   UNL     1     -14.154   9.828  31.601  0.00  0.00    +0.085 C 
ATOM     13  C   UNL     1     -12.715  10.651  29.835  0.00  0.00    +0.081 C 
ATOM     30  H   UNL     1     -14.755  10.625  29.821  0.00  0.00    +0.122 HD
ENDROOT
BRANCH  10  14
ATOM     14  C   UNL     1     -13.244   8.705  33.667  0.00  0.00    +0.064 C 
BRANCH  14  16
ATOM      3  O   UNL     1     -13.850   5.456  35.094  0.00  0.00    -0.359 OA
ATOM      6  N   UNL     1     -13.469   6.788  35.188  0.00  0.00    -0.083 NA
ATOM     16  C   UNL     1     -13.579   7.268  33.947  0.00  0.00    +0.084 A 
ATOM     18  C   UNL     1     -14.020   6.294  33.034  0.00  0.00    +0.071 A 
ATOM     19  C   UNL     1     -14.176   5.173  33.806  0.00  0.00    +0.148 A 
BRANCH  19  20
ATOM     20  C   UNL     1     -14.604   3.797  33.526  0.00  0.00    +0.151 C 
BRANCH  20   1
ATOM      1  S   UNL     1     -16.049   3.705  32.411  0.00  0.00    -0.117 S 
BRANCH   1  24
ATOM     24  C   UNL     1     -15.571   2.355  31.342  0.00  0.00    +0.008 A 
ATOM     25  C   UNL     1     -14.884   1.260  31.866  0.00  0.00    +0.015 A 
ATOM     26  C   UNL     1     -15.885   2.396  29.984  0.00  0.00    +0.015 A 
ATOM     27  C   UNL     1     -14.511   0.205  31.032  0.00  0.00    +0.001 A 
ATOM     28  C   UNL     1     -15.513   1.343  29.149  0.00  0.00    +0.001 A 
ATOM     29  C   UNL     1     -14.825   0.247  29.673  0.00  0.00    +0.000 A 
ENDBRANCH   1  24
ENDBRANCH  20   1
ENDBRANCH  19  20
ENDBRANCH  14  16
ENDBRANCH  10  14
BRANCH   9  15
ATOM     15  C   UNL     1     -11.265  10.771  32.659  0.00  0.00    +0.100 C 
BRANCH  15  17
ATOM      2  S   UNL     1      -9.240   8.859  36.776  0.00  0.00    -0.061 S 
ATOM      4  O   UNL     1      -8.888  11.157  32.709  0.00  0.00    -0.275 OA
ATOM      7  N   UNL     1      -9.921  10.005  34.477  0.00  0.00    -0.265 N 
ATOM      8  N   UNL     1      -7.574  10.025  35.182  0.00  0.00    -0.233 NA
ATOM     17  C   UNL     1      -9.875  10.681  33.262  0.00  0.00    +0.219 C 
ATOM     21  C   UNL     1      -8.840   9.715  35.344  0.00  0.00    +0.164 A 
ATOM     22  C   UNL     1      -7.587   8.895  37.231  0.00  0.00    +0.068 A 
ATOM     23  C   UNL     1      -6.856   9.554  36.264  0.00  0.00    +0.120 A 
ATOM     31  H   UNL     1     -10.815   9.656  34.814  0.00  0.00    +0.157 HD
ENDBRANCH  15  17
ENDBRANCH   9  15
TORSDOF 7
ENDMDL
