MODEL 1
REMARK VINA RESULT:      -6.8      0.000      0.000
REMARK  Name = 11886303
REMARK  8 active torsions:
REMARK  status: ('A' for Active; 'I' for Inactive)
REMARK    1  A    between atoms: O_3  and  C_20
REMARK    2  A    between atoms: O_3  and  C_24
REMARK    3  A    between atoms: O_7  and  C_25
REMARK    4  A    between atoms: N_9  and  C_16
REMARK    5  A    between atoms: N_10  and  C_17
REMARK    6  A    between atoms: C_21  and  C_22
REMARK    7  A    between atoms: C_22  and  C_23
REMARK    8  A    between atoms: C_23  and  C_25
REMARK                            x       y       z     vdW  Elec       q    Type
REMARK                         _______ _______ _______ _____ _____    ______ ____
ROOT
ATOM      1  O   UNL     1      15.904  12.477  23.533  0.00  0.00    -0.370 OA
ATOM      2  O   UNL     1      14.900  11.279  20.804  0.00  0.00    -0.370 OA
ATOM     14  C   UNL     1      14.514  11.094  22.178  0.00  0.00    +0.176 C 
ATOM     15  C   UNL     1      15.780  11.146  23.010  0.00  0.00    +0.171 C 
ATOM     16  C   UNL     1      13.695  12.280  22.648  0.00  0.00    +0.171 C 
ATOM     17  C   UNL     1      16.890  10.866  22.022  0.00  0.00    +0.130 C 
ATOM     18  C   UNL     1      14.757  13.250  23.155  0.00  0.00    +0.190 C 
ATOM     19  C   UNL     1      16.325  11.433  20.733  0.00  0.00    +0.185 C 
ENDROOT
BRANCH  16   9
ATOM      9  N   UNL     1      12.677  11.906  23.632  0.00  0.00    -0.187 N 
ATOM     11  N   UNL     1      12.886  12.070  24.945  0.00  0.00    -0.041 NA
ATOM     12  N   UNL     1      10.867  11.196  24.592  0.00  0.00    -0.071 NA
ATOM     13  N   UNL     1      11.776  11.634  25.527  0.00  0.00    -0.020 NA
ATOM     20  C   UNL     1      11.443  11.373  23.426  0.00  0.00    +0.342 A 
BRANCH  20   3
ATOM      3  O   UNL     1      10.933  11.089  22.242  0.00  0.00    -0.423 OA
BRANCH   3  24
ATOM      5  O   UNL     1      12.682   8.552  18.504  0.00  0.00    -0.452 OA
ATOM      6  O   UNL     1      12.053   6.456  19.513  0.00  0.00    -0.453 OA
ATOM     24  C   UNL     1      11.201   9.900  21.578  0.00  0.00    +0.136 A 
ATOM     26  C   UNL     1      11.835   9.928  20.334  0.00  0.00    +0.096 A 
ATOM     27  C   UNL     1      10.834   8.678  22.167  0.00  0.00    +0.050 A 
ATOM     28  C   UNL     1      12.081   8.721  19.712  0.00  0.00    +0.170 A 
ATOM     29  C   UNL     1      11.721   7.523  20.289  0.00  0.00    +0.166 A 
ATOM     30  C   UNL     1      11.095   7.468  21.517  0.00  0.00    +0.053 A 
ATOM     31  C   UNL     1      12.663   7.115  18.384  0.00  0.00    +0.466 C 
ENDBRANCH   3  24
ENDBRANCH  20   3
ENDBRANCH  16   9
BRANCH  17  10
ATOM      4  O   UNL     1      19.369   9.581  21.262  0.00  0.00    -0.276 OA
ATOM     10  N   UNL     1      17.139   9.449  21.903  0.00  0.00    -0.308 N 
ATOM     21  C   UNL     1      18.368   8.922  21.530  0.00  0.00    +0.214 C 
ATOM     32  H   UNL     1      16.360   8.813  22.051  0.00  0.00    +0.149 HD
BRANCH  21  22
ATOM     22  C   UNL     1      18.338   7.404  21.488  0.00  0.00    +0.107 C 
BRANCH  22  23
ATOM     23  C   UNL     1      17.009   6.861  20.972  0.00  0.00    +0.129 C 
BRANCH  23  25
ATOM      8  O   UNL     1      16.234   5.927  18.863  0.00  0.00    -0.251 OA
ATOM     25  C   UNL     1      17.154   6.203  19.620  0.00  0.00    +0.305 C 
BRANCH  25   7
ATOM      7  O   UNL     1      18.457   5.947  19.330  0.00  0.00    -0.481 OA
ATOM     33  H   UNL     1      18.611   5.888  18.364  0.00  0.00    +0.295 HD
ENDBRANCH  25   7
ENDBRANCH  23  25
ENDBRANCH  22  23
ENDBRANCH  21  22
ENDBRANCH  17  10
TORSDOF 8
ENDMDL
MODEL 2
REMARK VINA RESULT:      -6.8      2.970      7.903
REMARK  Name = 11886303
REMARK  8 active torsions:
REMARK  status: ('A' for Active; 'I' for Inactive)
REMARK    1  A    between atoms: O_3  and  C_20
REMARK    2  A    between atoms: O_3  and  C_24
REMARK    3  A    between atoms: O_7  and  C_25
REMARK    4  A    between atoms: N_9  and  C_16
REMARK    5  A    between atoms: N_10  and  C_17
REMARK    6  A    between atoms: C_21  and  C_22
REMARK    7  A    between atoms: C_22  and  C_23
REMARK    8  A    between atoms: C_23  and  C_25
REMARK                            x       y       z     vdW  Elec       q    Type
REMARK                         _______ _______ _______ _____ _____    ______ ____
ROOT
ATOM      1  O   UNL     1      13.309   7.642  21.933  0.00  0.00    -0.370 OA
ATOM      2  O   UNL     1      10.439   8.409  20.902  0.00  0.00    -0.370 OA
ATOM     14  C   UNL     1      11.768   8.581  20.376  0.00  0.00    +0.176 C 
ATOM     15  C   UNL     1      12.680   8.874  21.551  0.00  0.00    +0.171 C 
ATOM     16  C   UNL     1      12.273   7.266  19.815  0.00  0.00    +0.171 C 
ATOM     17  C   UNL     1      11.745   9.346  22.642  0.00  0.00    +0.130 C 
ATOM     18  C   UNL     1      12.919   6.602  21.026  0.00  0.00    +0.190 C 
ATOM     19  C   UNL     1      10.470   8.588  22.326  0.00  0.00    +0.185 C 
ENDROOT
BRANCH  16   9
ATOM      9  N   UNL     1      13.159   7.450  18.663  0.00  0.00    -0.187 N 
ATOM     11  N   UNL     1      12.762   8.141  17.585  0.00  0.00    -0.041 NA
ATOM     12  N   UNL     1      14.844   7.398  17.299  0.00  0.00    -0.071 NA
ATOM     13  N   UNL     1      13.796   8.106  16.754  0.00  0.00    -0.020 NA
ATOM     20  C   UNL     1      14.428   7.001  18.479  0.00  0.00    +0.342 A 
BRANCH  20   3
ATOM      3  O   UNL     1      15.109   6.287  19.356  0.00  0.00    -0.423 OA
BRANCH   3  24
ATOM      5  O   UNL     1      17.857   9.387  21.868  0.00  0.00    -0.452 OA
ATOM      6  O   UNL     1      19.840   8.066  21.505  0.00  0.00    -0.453 OA
ATOM     24  C   UNL     1      16.321   6.709  19.885  0.00  0.00    +0.136 A 
ATOM     26  C   UNL     1      16.380   7.893  20.624  0.00  0.00    +0.096 A 
ATOM     27  C   UNL     1      17.477   5.939  19.673  0.00  0.00    +0.050 A 
ATOM     28  C   UNL     1      17.606   8.271  21.130  0.00  0.00    +0.170 A 
ATOM     29  C   UNL     1      18.739   7.517  20.923  0.00  0.00    +0.166 A 
ATOM     30  C   UNL     1      18.707   6.344  20.197  0.00  0.00    +0.053 A 
ATOM     31  C   UNL     1      19.273   9.250  22.103  0.00  0.00    +0.466 C 
ENDBRANCH   3  24
ENDBRANCH  20   3
ENDBRANCH  16   9
BRANCH  17  10
ATOM      4  O   UNL     1      11.001  11.118  24.806  0.00  0.00    -0.276 OA
ATOM     10  N   UNL     1      11.536  10.772  22.570  0.00  0.00    -0.308 N 
ATOM     21  C   UNL     1      11.178  11.545  23.668  0.00  0.00    +0.214 C 
ATOM     32  H   UNL     1      11.604  11.220  21.660  0.00  0.00    +0.149 HD
BRANCH  21  22
ATOM     22  C   UNL     1      11.026  13.009  23.297  0.00  0.00    +0.107 C 
BRANCH  22  23
ATOM     23  C   UNL     1       9.968  13.717  24.137  0.00  0.00    +0.129 C 
BRANCH  23  25
ATOM      8  O   UNL     1      11.046  15.548  25.322  0.00  0.00    -0.251 OA
ATOM     25  C   UNL     1      10.571  14.421  25.329  0.00  0.00    +0.305 C 
BRANCH  25   7
ATOM      7  O   UNL     1      10.522  13.643  26.442  0.00  0.00    -0.481 OA
ATOM     33  H   UNL     1       9.644  13.222  26.555  0.00  0.00    +0.295 HD
ENDBRANCH  25   7
ENDBRANCH  23  25
ENDBRANCH  22  23
ENDBRANCH  21  22
ENDBRANCH  17  10
TORSDOF 8
ENDMDL
MODEL 3
REMARK VINA RESULT:      -6.7      4.661      7.813
REMARK  Name = 11886303
REMARK  8 active torsions:
REMARK  status: ('A' for Active; 'I' for Inactive)
REMARK    1  A    between atoms: O_3  and  C_20
REMARK    2  A    between atoms: O_3  and  C_24
REMARK    3  A    between atoms: O_7  and  C_25
REMARK    4  A    between atoms: N_9  and  C_16
REMARK    5  A    between atoms: N_10  and  C_17
REMARK    6  A    between atoms: C_21  and  C_22
REMARK    7  A    between atoms: C_22  and  C_23
REMARK    8  A    between atoms: C_23  and  C_25
REMARK                            x       y       z     vdW  Elec       q    Type
REMARK                         _______ _______ _______ _____ _____    ______ ____
ROOT
ATOM      1  O   UNL     1      14.449   8.894  19.513  0.00  0.00    -0.370 OA
ATOM      2  O   UNL     1      12.357   6.740  20.448  0.00  0.00    -0.370 OA
ATOM     14  C   UNL     1      12.301   7.862  19.548  0.00  0.00    +0.176 C 
ATOM     15  C   UNL     1      13.161   8.958  20.144  0.00  0.00    +0.171 C 
ATOM     16  C   UNL     1      12.980   7.507  18.240  0.00  0.00    +0.171 C 
ATOM     17  C   UNL     1      13.276   8.590  21.607  0.00  0.00    +0.130 C 
ATOM     18  C   UNL     1      14.435   7.882  18.496  0.00  0.00    +0.190 C 
ATOM     19  C   UNL     1      13.191   7.076  21.567  0.00  0.00    +0.185 C 
ENDROOT
BRANCH  16   9
ATOM      9  N   UNL     1      12.362   8.170  17.088  0.00  0.00    -0.187 N 
ATOM     11  N   UNL     1      11.039   8.117  16.884  0.00  0.00    -0.041 NA
ATOM     12  N   UNL     1      12.019   9.304  15.272  0.00  0.00    -0.071 NA
ATOM     13  N   UNL     1      10.835   8.812  15.772  0.00  0.00    -0.020 NA
ATOM     20  C   UNL     1      12.951   8.896  16.102  0.00  0.00    +0.342 A 
BRANCH  20   3
ATOM      3  O   UNL     1      14.246   9.135  16.013  0.00  0.00    -0.423 OA
BRANCH   3  24
ATOM      5  O   UNL     1      16.589  12.418  13.328  0.00  0.00    -0.452 OA
ATOM      6  O   UNL     1      16.317  14.122  15.010  0.00  0.00    -0.453 OA
ATOM     24  C   UNL     1      14.758  10.406  15.791  0.00  0.00    +0.136 A 
ATOM     26  C   UNL     1      15.424  10.686  14.595  0.00  0.00    +0.096 A 
ATOM     27  C   UNL     1      14.600  11.400  16.771  0.00  0.00    +0.050 A 
ATOM     28  C   UNL     1      15.915  11.964  14.420  0.00  0.00    +0.170 A 
ATOM     29  C   UNL     1      15.760  12.937  15.381  0.00  0.00    +0.166 A 
ATOM     30  C   UNL     1      15.106  12.686  16.569  0.00  0.00    +0.053 A 
ATOM     31  C   UNL     1      16.839  13.786  13.708  0.00  0.00    +0.466 C 
ENDBRANCH   3  24
ENDBRANCH  20   3
ENDBRANCH  16   9
BRANCH  17  10
ATOM      4  O   UNL     1      12.909  11.366  22.339  0.00  0.00    -0.276 OA
ATOM     10  N   UNL     1      12.192   9.155  22.374  0.00  0.00    -0.308 N 
ATOM     21  C   UNL     1      12.099  10.507  22.679  0.00  0.00    +0.214 C 
ATOM     32  H   UNL     1      11.493   8.521  22.752  0.00  0.00    +0.149 HD
BRANCH  21  22
ATOM     22  C   UNL     1      10.857  10.812  23.497  0.00  0.00    +0.107 C 
BRANCH  22  23
ATOM     23  C   UNL     1      10.819  12.258  23.982  0.00  0.00    +0.129 C 
BRANCH  23  25
ATOM      8  O   UNL     1      12.461  11.961  25.754  0.00  0.00    -0.251 OA
ATOM     25  C   UNL     1      11.385  12.402  25.376  0.00  0.00    +0.305 C 
BRANCH  25   7
ATOM      7  O   UNL     1      10.541  13.097  26.184  0.00  0.00    -0.481 OA
ATOM     33  H   UNL     1      10.569  12.771  27.108  0.00  0.00    +0.295 HD
ENDBRANCH  25   7
ENDBRANCH  23  25
ENDBRANCH  22  23
ENDBRANCH  21  22
ENDBRANCH  17  10
TORSDOF 8
ENDMDL
MODEL 4
REMARK VINA RESULT:      -6.7      3.588      6.636
REMARK  Name = 11886303
REMARK  8 active torsions:
REMARK  status: ('A' for Active; 'I' for Inactive)
REMARK    1  A    between atoms: O_3  and  C_20
REMARK    2  A    between atoms: O_3  and  C_24
REMARK    3  A    between atoms: O_7  and  C_25
REMARK    4  A    between atoms: N_9  and  C_16
REMARK    5  A    between atoms: N_10  and  C_17
REMARK    6  A    between atoms: C_21  and  C_22
REMARK    7  A    between atoms: C_22  and  C_23
REMARK    8  A    between atoms: C_23  and  C_25
REMARK                            x       y       z     vdW  Elec       q    Type
REMARK                         _______ _______ _______ _____ _____    ______ ____
ROOT
ATOM      1  O   UNL     1      14.609  13.331  17.666  0.00  0.00    -0.370 OA
ATOM      2  O   UNL     1      15.356  11.132  19.787  0.00  0.00    -0.370 OA
ATOM     14  C   UNL     1      14.366  11.220  18.745  0.00  0.00    +0.176 C 
ATOM     15  C   UNL     1      13.884  12.657  18.705  0.00  0.00    +0.171 C 
ATOM     16  C   UNL     1      15.017  10.994  17.395  0.00  0.00    +0.171 C 
ATOM     17  C   UNL     1      14.264  13.217  20.058  0.00  0.00    +0.130 C 
ATOM     18  C   UNL     1      15.460  12.396  16.989  0.00  0.00    +0.190 C 
ATOM     19  C   UNL     1      15.510  12.421  20.399  0.00  0.00    +0.185 C 
ENDROOT
BRANCH  16   9
ATOM      9  N   UNL     1      14.124  10.327  16.444  0.00  0.00    -0.187 N 
ATOM     11  N   UNL     1      13.464  11.021  15.507  0.00  0.00    -0.041 NA
ATOM     12  N   UNL     1      12.976   8.852  15.345  0.00  0.00    -0.071 NA
ATOM     13  N   UNL     1      12.764  10.114  14.838  0.00  0.00    -0.020 NA
ATOM     20  C   UNL     1      13.820   9.007  16.338  0.00  0.00    +0.342 A 
BRANCH  20   3
ATOM      3  O   UNL     1      14.305   8.057  17.116  0.00  0.00    -0.423 OA
BRANCH   3  24
ATOM      5  O   UNL     1      10.641   7.960  20.283  0.00  0.00    -0.452 OA
ATOM      6  O   UNL     1      11.995   6.877  21.957  0.00  0.00    -0.453 OA
ATOM     24  C   UNL     1      13.752   7.745  18.350  0.00  0.00    +0.136 A 
ATOM     26  C   UNL     1      12.416   8.060  18.610  0.00  0.00    +0.096 A 
ATOM     27  C   UNL     1      14.542   7.114  19.325  0.00  0.00    +0.050 A 
ATOM     28  C   UNL     1      11.911   7.731  19.851  0.00  0.00    +0.170 A 
ATOM     29  C   UNL     1      12.684   7.112  20.807  0.00  0.00    +0.166 A 
ATOM     30  C   UNL     1      14.006   6.790  20.575  0.00  0.00    +0.053 A 
ATOM     31  C   UNL     1      10.701   7.416  21.617  0.00  0.00    +0.466 C 
ENDBRANCH   3  24
ENDBRANCH  20   3
ENDBRANCH  16   9
BRANCH  17  10
ATOM      4  O   UNL     1      12.757  15.222  21.502  0.00  0.00    -0.276 OA
ATOM     10  N   UNL     1      13.219  12.993  21.028  0.00  0.00    -0.308 N 
ATOM     21  C   UNL     1      12.548  14.023  21.674  0.00  0.00    +0.214 C 
ATOM     32  H   UNL     1      13.004  12.034  21.286  0.00  0.00    +0.149 HD
BRANCH  21  22
ATOM     22  C   UNL     1      11.504  13.493  22.640  0.00  0.00    +0.107 C 
BRANCH  22  23
ATOM     23  C   UNL     1      12.099  12.554  23.684  0.00  0.00    +0.129 C 
BRANCH  23  25
ATOM      8  O   UNL     1      11.231  11.097  25.430  0.00  0.00    -0.251 OA
ATOM     25  C   UNL     1      11.031  11.899  24.529  0.00  0.00    +0.305 C 
BRANCH  25   7
ATOM      7  O   UNL     1       9.788  12.315  24.168  0.00  0.00    -0.481 OA
ATOM     33  H   UNL     1       9.764  13.279  23.990  0.00  0.00    +0.295 HD
ENDBRANCH  25   7
ENDBRANCH  23  25
ENDBRANCH  22  23
ENDBRANCH  21  22
ENDBRANCH  17  10
TORSDOF 8
ENDMDL
MODEL 5
REMARK VINA RESULT:      -6.5     27.869     29.631
REMARK  Name = 11886303
REMARK  8 active torsions:
REMARK  status: ('A' for Active; 'I' for Inactive)
REMARK    1  A    between atoms: O_3  and  C_20
REMARK    2  A    between atoms: O_3  and  C_24
REMARK    3  A    between atoms: O_7  and  C_25
REMARK    4  A    between atoms: N_9  and  C_16
REMARK    5  A    between atoms: N_10  and  C_17
REMARK    6  A    between atoms: C_21  and  C_22
REMARK    7  A    between atoms: C_22  and  C_23
REMARK    8  A    between atoms: C_23  and  C_25
REMARK                            x       y       z     vdW  Elec       q    Type
REMARK                         _______ _______ _______ _____ _____    ______ ____
ROOT
ATOM      1  O   UNL     1      -4.889 -10.671  18.581  0.00  0.00    -0.370 OA
ATOM      2  O   UNL     1      -6.474 -12.342  16.439  0.00  0.00    -0.370 OA
ATOM     14  C   UNL     1      -5.454 -11.329  16.361  0.00  0.00    +0.176 C 
ATOM     15  C   UNL     1      -5.728 -10.330  17.468  0.00  0.00    +0.171 C 
ATOM     16  C   UNL     1      -4.105 -11.928  16.707  0.00  0.00    +0.171 C 
ATOM     17  C   UNL     1      -7.182 -10.553  17.821  0.00  0.00    +0.130 C 
ATOM     18  C   UNL     1      -4.039 -11.770  18.222  0.00  0.00    +0.190 C 
ATOM     19  C   UNL     1      -7.366 -12.028  17.519  0.00  0.00    +0.185 C 
ENDROOT
BRANCH  16   9
ATOM      9  N   UNL     1      -3.006 -11.300  15.971  0.00  0.00    -0.187 N 
ATOM     11  N   UNL     1      -1.968 -10.745  16.612  0.00  0.00    -0.041 NA
ATOM     12  N   UNL     1      -1.709 -10.540  14.407  0.00  0.00    -0.071 NA
ATOM     13  N   UNL     1      -1.178 -10.282  15.651  0.00  0.00    -0.020 NA
ATOM     20  C   UNL     1      -2.839 -11.170  14.628  0.00  0.00    +0.342 A 
BRANCH  20   3
ATOM      3  O   UNL     1      -3.687 -11.611  13.718  0.00  0.00    -0.423 OA
BRANCH   3  24
ATOM      5  O   UNL     1      -3.718  -9.615   9.303  0.00  0.00    -0.452 OA
ATOM      6  O   UNL     1      -5.741  -8.392   9.771  0.00  0.00    -0.453 OA
ATOM     24  C   UNL     1      -4.232 -10.788  12.742  0.00  0.00    +0.136 A 
ATOM     26  C   UNL     1      -3.605 -10.679  11.498  0.00  0.00    +0.096 A 
ATOM     27  C   UNL     1      -5.411 -10.075  13.015  0.00  0.00    +0.050 A 
ATOM     28  C   UNL     1      -4.184  -9.848  10.560  0.00  0.00    +0.170 A 
ATOM     29  C   UNL     1      -5.340  -9.149  10.827  0.00  0.00    +0.166 A 
ATOM     30  C   UNL     1      -5.978  -9.241  12.047  0.00  0.00    +0.053 A 
ATOM     31  C   UNL     1      -4.710  -8.693   8.808  0.00  0.00    +0.466 C 
ENDBRANCH   3  24
ENDBRANCH  20   3
ENDBRANCH  16   9
BRANCH  17  10
ATOM      4  O   UNL     1      -9.868  -9.678  18.448  0.00  0.00    -0.276 OA
ATOM     10  N   UNL     1      -8.049  -9.740  17.002  0.00  0.00    -0.308 N 
ATOM     21  C   UNL     1      -9.330  -9.368  17.388  0.00  0.00    +0.214 C 
ATOM     32  H   UNL     1      -7.722  -9.473  16.078  0.00  0.00    +0.149 HD
BRANCH  21  22
ATOM     22  C   UNL     1     -10.009  -8.516  16.330  0.00  0.00    +0.107 C 
BRANCH  22  23
ATOM     23  C   UNL     1     -10.748  -7.323  16.927  0.00  0.00    +0.129 C 
BRANCH  23  25
ATOM      8  O   UNL     1     -12.012  -5.751  15.565  0.00  0.00    -0.251 OA
ATOM     25  C   UNL     1     -10.937  -6.214  15.918  0.00  0.00    +0.305 C 
BRANCH  25   7
ATOM      7  O   UNL     1      -9.744  -5.773  15.437  0.00  0.00    -0.481 OA
ATOM     33  H   UNL     1      -9.559  -6.128  14.542  0.00  0.00    +0.295 HD
ENDBRANCH  25   7
ENDBRANCH  23  25
ENDBRANCH  22  23
ENDBRANCH  21  22
ENDBRANCH  17  10
TORSDOF 8
ENDMDL
MODEL 6
REMARK VINA RESULT:      -6.3     17.792     20.749
REMARK  Name = 11886303
REMARK  8 active torsions:
REMARK  status: ('A' for Active; 'I' for Inactive)
REMARK    1  A    between atoms: O_3  and  C_20
REMARK    2  A    between atoms: O_3  and  C_24
REMARK    3  A    between atoms: O_7  and  C_25
REMARK    4  A    between atoms: N_9  and  C_16
REMARK    5  A    between atoms: N_10  and  C_17
REMARK    6  A    between atoms: C_21  and  C_22
REMARK    7  A    between atoms: C_22  and  C_23
REMARK    8  A    between atoms: C_23  and  C_25
REMARK                            x       y       z     vdW  Elec       q    Type
REMARK                         _______ _______ _______ _____ _____    ______ ____
ROOT
ATOM      1  O   UNL     1      14.129   4.722  -1.765  0.00  0.00    -0.370 OA
ATOM      2  O   UNL     1      14.816   3.307   0.957  0.00  0.00    -0.370 OA
ATOM     14  C   UNL     1      13.764   4.191   0.529  0.00  0.00    +0.176 C 
ATOM     15  C   UNL     1      14.380   5.189  -0.431  0.00  0.00    +0.171 C 
ATOM     16  C   UNL     1      12.755   3.425  -0.305  0.00  0.00    +0.171 C 
ATOM     17  C   UNL     1      15.860   5.136  -0.128  0.00  0.00    +0.130 C 
ATOM     18  C   UNL     1      13.321   3.537  -1.716  0.00  0.00    +0.190 C 
ATOM     19  C   UNL     1      16.045   3.701   0.329  0.00  0.00    +0.185 C 
ENDROOT
BRANCH  16   9
ATOM      9  N   UNL     1      11.391   3.933  -0.142  0.00  0.00    -0.187 N 
ATOM     11  N   UNL     1      10.666   4.328  -1.198  0.00  0.00    -0.041 NA
ATOM     12  N   UNL     1       9.489   4.575   0.678  0.00  0.00    -0.071 NA
ATOM     13  N   UNL     1       9.504   4.720  -0.691  0.00  0.00    -0.020 NA
ATOM     20  C   UNL     1      10.665   4.087   0.996  0.00  0.00    +0.342 A 
BRANCH  20   3
ATOM      3  O   UNL     1      11.093   3.789   2.209  0.00  0.00    -0.423 OA
BRANCH   3  24
ATOM      5  O   UNL     1       9.776   5.406   6.582  0.00  0.00    -0.452 OA
ATOM      6  O   UNL     1      11.135   7.384   6.360  0.00  0.00    -0.453 OA
ATOM     24  C   UNL     1      11.126   4.718   3.240  0.00  0.00    +0.136 A 
ATOM     26  C   UNL     1      10.373   4.497   4.396  0.00  0.00    +0.096 A 
ATOM     27  C   UNL     1      11.917   5.871   3.110  0.00  0.00    +0.050 A 
ATOM     28  C   UNL     1      10.437   5.449   5.393  0.00  0.00    +0.170 A 
ATOM     29  C   UNL     1      11.213   6.579   5.267  0.00  0.00    +0.166 A 
ATOM     30  C   UNL     1      11.966   6.820   4.135  0.00  0.00    +0.053 A 
ATOM     31  C   UNL     1      10.223   6.635   7.190  0.00  0.00    +0.466 C 
ENDBRANCH   3  24
ENDBRANCH  20   3
ENDBRANCH  16   9
BRANCH  17  10
ATOM      4  O   UNL     1      16.550   7.929  -0.432  0.00  0.00    -0.276 OA
ATOM     10  N   UNL     1      16.214   6.066   0.916  0.00  0.00    -0.308 N 
ATOM     21  C   UNL     1      16.532   7.397   0.674  0.00  0.00    +0.214 C 
ATOM     32  H   UNL     1      16.283   5.714   1.868  0.00  0.00    +0.149 HD
BRANCH  21  22
ATOM     22  C   UNL     1      16.863   8.136   1.958  0.00  0.00    +0.107 C 
BRANCH  22  23
ATOM     23  C   UNL     1      15.637   8.360   2.836  0.00  0.00    +0.129 C 
BRANCH  23  25
ATOM      8  O   UNL     1      15.791   7.992   5.237  0.00  0.00    -0.251 OA
ATOM     25  C   UNL     1      15.692   7.541   4.104  0.00  0.00    +0.305 C 
BRANCH  25   7
ATOM      7  O   UNL     1      15.614   6.210   3.839  0.00  0.00    -0.481 OA
ATOM     33  H   UNL     1      14.933   5.768   4.388  0.00  0.00    +0.295 HD
ENDBRANCH  25   7
ENDBRANCH  23  25
ENDBRANCH  22  23
ENDBRANCH  21  22
ENDBRANCH  17  10
TORSDOF 8
ENDMDL
MODEL 7
REMARK VINA RESULT:      -6.3      3.541      5.212
REMARK  Name = 11886303
REMARK  8 active torsions:
REMARK  status: ('A' for Active; 'I' for Inactive)
REMARK    1  A    between atoms: O_3  and  C_20
REMARK    2  A    between atoms: O_3  and  C_24
REMARK    3  A    between atoms: O_7  and  C_25
REMARK    4  A    between atoms: N_9  and  C_16
REMARK    5  A    between atoms: N_10  and  C_17
REMARK    6  A    between atoms: C_21  and  C_22
REMARK    7  A    between atoms: C_22  and  C_23
REMARK    8  A    between atoms: C_23  and  C_25
REMARK                            x       y       z     vdW  Elec       q    Type
REMARK                         _______ _______ _______ _____ _____    ______ ____
ROOT
ATOM      1  O   UNL     1      12.270  10.786  23.625  0.00  0.00    -0.370 OA
ATOM      2  O   UNL     1      11.558  12.184  20.899  0.00  0.00    -0.370 OA
ATOM     14  C   UNL     1      12.140  10.914  21.248  0.00  0.00    +0.176 C 
ATOM     15  C   UNL     1      13.025  11.144  22.457  0.00  0.00    +0.171 C 
ATOM     16  C   UNL     1      11.059   9.969  21.736  0.00  0.00    +0.171 C 
ATOM     17  C   UNL     1      13.296  12.632  22.445  0.00  0.00    +0.130 C 
ATOM     18  C   UNL     1      10.993  10.265  23.230  0.00  0.00    +0.190 C 
ATOM     19  C   UNL     1      12.034  13.186  21.810  0.00  0.00    +0.185 C 
ENDROOT
BRANCH  16   9
ATOM      9  N   UNL     1      11.338   8.572  21.392  0.00  0.00    -0.187 N 
ATOM     11  N   UNL     1      11.907   7.740  22.275  0.00  0.00    -0.041 NA
ATOM     12  N   UNL     1      11.507   6.673  20.359  0.00  0.00    -0.071 NA
ATOM     13  N   UNL     1      12.009   6.580  21.638  0.00  0.00    -0.020 NA
ATOM     20  C   UNL     1      11.098   7.913  20.228  0.00  0.00    +0.342 A 
BRANCH  20   3
ATOM      3  O   UNL     1      10.545   8.452  19.158  0.00  0.00    -0.423 OA
BRANCH   3  24
ATOM      5  O   UNL     1      14.598  10.033  17.027  0.00  0.00    -0.452 OA
ATOM      6  O   UNL     1      13.577   9.991  14.844  0.00  0.00    -0.453 OA
ATOM     24  C   UNL     1      11.283   8.835  18.047  0.00  0.00    +0.136 A 
ATOM     26  C   UNL     1      12.611   9.240  18.203  0.00  0.00    +0.096 A 
ATOM     27  C   UNL     1      10.688   8.811  16.775  0.00  0.00    +0.050 A 
ATOM     28  C   UNL     1      13.305   9.612  17.070  0.00  0.00    +0.170 A 
ATOM     29  C   UNL     1      12.721   9.587  15.823  0.00  0.00    +0.166 A 
ATOM     30  C   UNL     1      11.412   9.191  15.642  0.00  0.00    +0.053 A 
ATOM     31  C   UNL     1      14.764  10.271  15.614  0.00  0.00    +0.466 C 
ENDBRANCH   3  24
ENDBRANCH  20   3
ENDBRANCH  16   9
BRANCH  17  10
ATOM      4  O   UNL     1      14.852  15.071  22.506  0.00  0.00    -0.276 OA
ATOM     10  N   UNL     1      14.460  12.945  21.652  0.00  0.00    -0.308 N 
ATOM     21  C   UNL     1      15.146  14.149  21.750  0.00  0.00    +0.214 C 
ATOM     32  H   UNL     1      14.757  12.270  20.953  0.00  0.00    +0.149 HD
BRANCH  21  22
ATOM     22  C   UNL     1      16.326  14.200  20.796  0.00  0.00    +0.107 C 
BRANCH  22  23
ATOM     23  C   UNL     1      15.897  14.407  19.347  0.00  0.00    +0.129 C 
BRANCH  23  25
ATOM      8  O   UNL     1      16.890  12.819  17.794  0.00  0.00    -0.251 OA
ATOM     25  C   UNL     1      15.977  13.129  18.546  0.00  0.00    +0.305 C 
BRANCH  25   7
ATOM      7  O   UNL     1      14.892  12.339  18.763  0.00  0.00    -0.481 OA
ATOM     33  H   UNL     1      14.243  12.403  18.031  0.00  0.00    +0.295 HD
ENDBRANCH  25   7
ENDBRANCH  23  25
ENDBRANCH  22  23
ENDBRANCH  21  22
ENDBRANCH  17  10
TORSDOF 8
ENDMDL
MODEL 8
REMARK VINA RESULT:      -6.2     27.358     30.860
REMARK  Name = 11886303
REMARK  8 active torsions:
REMARK  status: ('A' for Active; 'I' for Inactive)
REMARK    1  A    between atoms: O_3  and  C_20
REMARK    2  A    between atoms: O_3  and  C_24
REMARK    3  A    between atoms: O_7  and  C_25
REMARK    4  A    between atoms: N_9  and  C_16
REMARK    5  A    between atoms: N_10  and  C_17
REMARK    6  A    between atoms: C_21  and  C_22
REMARK    7  A    between atoms: C_22  and  C_23
REMARK    8  A    between atoms: C_23  and  C_25
REMARK                            x       y       z     vdW  Elec       q    Type
REMARK                         _______ _______ _______ _____ _____    ______ ____
ROOT
ATOM      1  O   UNL     1     -14.471   3.949  33.756  0.00  0.00    -0.370 OA
ATOM      2  O   UNL     1     -15.779   5.777  31.556  0.00  0.00    -0.370 OA
ATOM     14  C   UNL     1     -14.857   4.672  31.518  0.00  0.00    +0.176 C 
ATOM     15  C   UNL     1     -13.951   4.803  32.726  0.00  0.00    +0.171 C 
ATOM     16  C   UNL     1     -15.603   3.371  31.735  0.00  0.00    +0.171 C 
ATOM     17  C   UNL     1     -14.078   6.254  33.134  0.00  0.00    +0.130 C 
ATOM     18  C   UNL     1     -15.601   3.222  33.252  0.00  0.00    +0.190 C 
ATOM     19  C   UNL     1     -15.495   6.587  32.706  0.00  0.00    +0.185 C 
ENDROOT
BRANCH  16   9
ATOM      9  N   UNL     1     -15.006   2.252  31.002  0.00  0.00    -0.187 N 
ATOM     11  N   UNL     1     -13.885   1.658  31.433  0.00  0.00    -0.041 NA
ATOM     12  N   UNL     1     -14.591   0.692  29.553  0.00  0.00    -0.071 NA
ATOM     13  N   UNL     1     -13.636   0.705  30.544  0.00  0.00    -0.020 NA
ATOM     20  C   UNL     1     -15.429   1.657  29.855  0.00  0.00    +0.342 A 
BRANCH  20   3
ATOM      3  O   UNL     1     -16.505   2.008  29.177  0.00  0.00    -0.423 OA
BRANCH   3  24
ATOM      5  O   UNL     1     -15.718   4.218  24.939  0.00  0.00    -0.452 OA
ATOM      6  O   UNL     1     -16.555   2.332  23.695  0.00  0.00    -0.453 OA
ATOM     24  C   UNL     1     -16.532   2.058  27.790  0.00  0.00    +0.136 A 
ATOM     26  C   UNL     1     -16.072   3.199  27.129  0.00  0.00    +0.096 A 
ATOM     27  C   UNL     1     -17.021   0.958  27.065  0.00  0.00    +0.050 A 
ATOM     28  C   UNL     1     -16.118   3.202  25.749  0.00  0.00    +0.170 A 
ATOM     29  C   UNL     1     -16.597   2.124  25.039  0.00  0.00    +0.166 A 
ATOM     30  C   UNL     1     -17.056   0.985  25.668  0.00  0.00    +0.053 A 
ATOM     31  C   UNL     1     -15.996   3.661  23.638  0.00  0.00    +0.466 C 
ENDBRANCH   3  24
ENDBRANCH  20   3
ENDBRANCH  16   9
BRANCH  17  10
ATOM      4  O   UNL     1     -12.603   8.500  34.208  0.00  0.00    -0.276 OA
ATOM     10  N   UNL     1     -13.115   7.077  32.443  0.00  0.00    -0.308 N 
ATOM     21  C   UNL     1     -12.454   8.141  33.043  0.00  0.00    +0.214 C 
ATOM     32  H   UNL     1     -12.957   6.899  31.454  0.00  0.00    +0.149 HD
BRANCH  21  22
ATOM     22  C   UNL     1     -11.504   8.826  32.077  0.00  0.00    +0.107 C 
BRANCH  22  23
ATOM     23  C   UNL     1     -11.180  10.257  32.494  0.00  0.00    +0.129 C 
BRANCH  23  25
ATOM      8  O   UNL     1      -8.870  11.001  32.678  0.00  0.00    -0.251 OA
ATOM     25  C   UNL     1      -9.813  10.365  33.128  0.00  0.00    +0.305 C 
BRANCH  25   7
ATOM      7  O   UNL     1      -9.747   9.660  34.288  0.00  0.00    -0.481 OA
ATOM     33  H   UNL     1      -9.006   9.019  34.284  0.00  0.00    +0.295 HD
ENDBRANCH  25   7
ENDBRANCH  23  25
ENDBRANCH  22  23
ENDBRANCH  21  22
ENDBRANCH  17  10
TORSDOF 8
ENDMDL
MODEL 9
REMARK VINA RESULT:      -6.2      4.024      6.674
REMARK  Name = 11886303
REMARK  8 active torsions:
REMARK  status: ('A' for Active; 'I' for Inactive)
REMARK    1  A    between atoms: O_3  and  C_20
REMARK    2  A    between atoms: O_3  and  C_24
REMARK    3  A    between atoms: O_7  and  C_25
REMARK    4  A    between atoms: N_9  and  C_16
REMARK    5  A    between atoms: N_10  and  C_17
REMARK    6  A    between atoms: C_21  and  C_22
REMARK    7  A    between atoms: C_22  and  C_23
REMARK    8  A    between atoms: C_23  and  C_25
REMARK                            x       y       z     vdW  Elec       q    Type
REMARK                         _______ _______ _______ _____ _____    ______ ____
ROOT
ATOM      1  O   UNL     1      14.043   6.595  19.483  0.00  0.00    -0.370 OA
ATOM      2  O   UNL     1      14.935   9.332  20.749  0.00  0.00    -0.370 OA
ATOM     14  C   UNL     1      15.025   8.766  19.429  0.00  0.00    +0.176 C 
ATOM     15  C   UNL     1      15.298   7.284  19.594  0.00  0.00    +0.171 C 
ATOM     16  C   UNL     1      13.674   8.836  18.745  0.00  0.00    +0.171 C 
ATOM     17  C   UNL     1      15.842   7.158  21.000  0.00  0.00    +0.130 C 
ATOM     18  C   UNL     1      13.004   7.535  19.175  0.00  0.00    +0.190 C 
ATOM     19  C   UNL     1      15.143   8.296  21.720  0.00  0.00    +0.185 C 
ENDROOT
BRANCH  16   9
ATOM      9  N   UNL     1      13.786   9.026  17.297  0.00  0.00    -0.187 N 
ATOM     11  N   UNL     1      13.642   7.998  16.448  0.00  0.00    -0.041 NA
ATOM     12  N   UNL     1      14.049   9.877  15.319  0.00  0.00    -0.071 NA
ATOM     13  N   UNL     1      13.804   8.524  15.241  0.00  0.00    -0.020 NA
ATOM     20  C   UNL     1      14.034  10.166  16.600  0.00  0.00    +0.342 A 
BRANCH  20   3
ATOM      3  O   UNL     1      14.225  11.354  17.142  0.00  0.00    -0.423 OA
BRANCH   3  24
ATOM      5  O   UNL     1      18.305  13.196  15.289  0.00  0.00    -0.452 OA
ATOM      6  O   UNL     1      19.212  13.630  17.479  0.00  0.00    -0.453 OA
ATOM     24  C   UNL     1      15.483  11.928  17.262  0.00  0.00    +0.136 A 
ATOM     26  C   UNL     1      16.210  12.250  16.114  0.00  0.00    +0.096 A 
ATOM     27  C   UNL     1      16.012  12.180  18.539  0.00  0.00    +0.050 A 
ATOM     28  C   UNL     1      17.456  12.819  16.283  0.00  0.00    +0.170 A 
ATOM     29  C   UNL     1      17.975  13.067  17.534  0.00  0.00    +0.166 A 
ATOM     30  C   UNL     1      17.276  12.758  18.684  0.00  0.00    +0.053 A 
ATOM     31  C   UNL     1      19.415  13.709  16.052  0.00  0.00    +0.466 C 
ENDBRANCH   3  24
ENDBRANCH  20   3
ENDBRANCH  16   9
BRANCH  17  10
ATOM      4  O   UNL     1      17.820   5.514  19.674  0.00  0.00    -0.276 OA
ATOM     10  N   UNL     1      17.275   7.327  21.022  0.00  0.00    -0.308 N 
ATOM     21  C   UNL     1      18.151   6.484  20.352  0.00  0.00    +0.214 C 
ATOM     32  H   UNL     1      17.659   8.070  21.601  0.00  0.00    +0.149 HD
BRANCH  21  22
ATOM     22  C   UNL     1      19.597   6.901  20.555  0.00  0.00    +0.107 C 
BRANCH  22  23
ATOM     23  C   UNL     1      20.277   6.120  21.675  0.00  0.00    +0.129 C 
BRANCH  23  25
ATOM      8  O   UNL     1      21.754   4.191  21.820  0.00  0.00    -0.251 OA
ATOM     25  C   UNL     1      21.077   4.953  21.145  0.00  0.00    +0.305 C 
BRANCH  25   7
ATOM      7  O   UNL     1      20.954   4.840  19.796  0.00  0.00    -0.481 OA
ATOM     33  H   UNL     1      21.797   5.036  19.335  0.00  0.00    +0.295 HD
ENDBRANCH  25   7
ENDBRANCH  23  25
ENDBRANCH  22  23
ENDBRANCH  21  22
ENDBRANCH  17  10
TORSDOF 8
ENDMDL
MODEL 10
REMARK VINA RESULT:      -6.0     15.144     17.642
REMARK  Name = 11886303
REMARK  8 active torsions:
REMARK  status: ('A' for Active; 'I' for Inactive)
REMARK    1  A    between atoms: O_3  and  C_20
REMARK    2  A    between atoms: O_3  and  C_24
REMARK    3  A    between atoms: O_7  and  C_25
REMARK    4  A    between atoms: N_9  and  C_16
REMARK    5  A    between atoms: N_10  and  C_17
REMARK    6  A    between atoms: C_21  and  C_22
REMARK    7  A    between atoms: C_22  and  C_23
REMARK    8  A    between atoms: C_23  and  C_25
REMARK                            x       y       z     vdW  Elec       q    Type
REMARK                         _______ _______ _______ _____ _____    ______ ____
ROOT
ATOM      1  O   UNL     1      13.819   7.459   6.433  0.00  0.00    -0.370 OA
ATOM      2  O   UNL     1      11.655   8.847   4.621  0.00  0.00    -0.370 OA
ATOM     14  C   UNL     1      11.680   7.634   5.396  0.00  0.00    +0.176 C 
ATOM     15  C   UNL     1      13.075   7.053   5.275  0.00  0.00    +0.171 C 
ATOM     16  C   UNL     1      11.525   7.961   6.869  0.00  0.00    +0.171 C 
ATOM     17  C   UNL     1      13.644   7.702   4.033  0.00  0.00    +0.130 C 
ATOM     18  C   UNL     1      12.963   8.191   7.322  0.00  0.00    +0.190 C 
ATOM     19  C   UNL     1      12.944   9.048   4.021  0.00  0.00    +0.185 C 
ENDROOT
BRANCH  16   9
ATOM      9  N   UNL     1      10.803   6.919   7.603  0.00  0.00    -0.187 N 
ATOM     11  N   UNL     1      11.438   5.841   8.083  0.00  0.00    -0.041 NA
ATOM     12  N   UNL     1       9.267   5.738   8.578  0.00  0.00    -0.071 NA
ATOM     13  N   UNL     1      10.494   5.122   8.678  0.00  0.00    -0.020 NA
ATOM     20  C   UNL     1       9.481   6.848   7.909  0.00  0.00    +0.342 A 
BRANCH  20   3
ATOM      3  O   UNL     1       8.581   7.754   7.577  0.00  0.00    -0.423 OA
BRANCH   3  24
ATOM      5  O   UNL     1       8.009  11.111   4.131  0.00  0.00    -0.452 OA
ATOM      6  O   UNL     1       7.727   9.438   2.420  0.00  0.00    -0.453 OA
ATOM     24  C   UNL     1       8.363   8.147   6.264  0.00  0.00    +0.136 A 
ATOM     26  C   UNL     1       8.311   9.506   5.946  0.00  0.00    +0.096 A 
ATOM     27  C   UNL     1       8.199   7.171   5.266  0.00  0.00    +0.050 A 
ATOM     28  C   UNL     1       8.092   9.846   4.626  0.00  0.00    +0.170 A 
ATOM     29  C   UNL     1       7.931   8.890   3.649  0.00  0.00    +0.166 A 
ATOM     30  C   UNL     1       7.979   7.542   3.937  0.00  0.00    +0.053 A 
ATOM     31  C   UNL     1       7.779  10.845   2.733  0.00  0.00    +0.466 C 
ENDBRANCH   3  24
ENDBRANCH  20   3
ENDBRANCH  16   9
BRANCH  17  10
ATOM      4  O   UNL     1      15.481   6.777   1.997  0.00  0.00    -0.276 OA
ATOM     10  N   UNL     1      13.325   6.937   2.851  0.00  0.00    -0.308 N 
ATOM     21  C   UNL     1      14.279   6.536   1.925  0.00  0.00    +0.214 C 
ATOM     32  H   UNL     1      12.347   6.729   2.665  0.00  0.00    +0.149 HD
BRANCH  21  22
ATOM     22  C   UNL     1      13.657   5.748   0.785  0.00  0.00    +0.107 C 
BRANCH  22  23
ATOM     23  C   UNL     1      14.440   4.482   0.455  0.00  0.00    +0.129 C 
BRANCH  23  25
ATOM      8  O   UNL     1      13.226   2.823   1.758  0.00  0.00    -0.251 OA
ATOM     25  C   UNL     1      14.266   3.418   1.514  0.00  0.00    +0.305 C 
BRANCH  25   7
ATOM      7  O   UNL     1      15.427   3.188   2.181  0.00  0.00    -0.481 OA
ATOM     33  H   UNL     1      16.092   3.888   2.008  0.00  0.00    +0.295 HD
ENDBRANCH  25   7
ENDBRANCH  23  25
ENDBRANCH  22  23
ENDBRANCH  21  22
ENDBRANCH  17  10
TORSDOF 8
ENDMDL
