MODEL 1
REMARK VINA RESULT:      -7.6      0.000      0.000
REMARK  Name = 11911729
REMARK  9 active torsions:
REMARK  status: ('A' for Active; 'I' for Inactive)
REMARK    1  A    between atoms: S_1  and  N_6
REMARK    2  A    between atoms: S_1  and  C_19
REMARK    3  A    between atoms: N_6  and  C_14
REMARK    4  A    between atoms: N_7  and  C_15
REMARK    5  A    between atoms: N_11  and  C_34
REMARK    6  A    between atoms: N_11  and  C_35
REMARK    7  A    between atoms: N_11  and  C_36
REMARK    8  A    between atoms: C_20  and  C_29
REMARK    9  A    between atoms: C_22  and  C_28
REMARK                            x       y       z     vdW  Elec       q    Type
REMARK                         _______ _______ _______ _____ _____    ______ ____
ROOT
ATOM      2  O   UNL     1      13.219   9.205  15.197  0.00  0.00    -0.370 OA
ATOM      3  O   UNL     1      15.584  11.017  16.124  0.00  0.00    -0.370 OA
ATOM     12  C   UNL     1      14.244  10.824  16.606  0.00  0.00    +0.170 C 
ATOM     13  C   UNL     1      13.354  10.622  15.395  0.00  0.00    +0.171 C 
ATOM     14  C   UNL     1      14.140   9.518  17.361  0.00  0.00    +0.133 C 
ATOM     15  C   UNL     1      14.131  11.239  14.257  0.00  0.00    +0.130 C 
ATOM     16  C   UNL     1      13.915   8.515  16.244  0.00  0.00    +0.183 C 
ATOM     17  C   UNL     1      15.572  11.033  14.689  0.00  0.00    +0.185 C 
ENDROOT
BRANCH  15   7
ATOM      7  N   UNL     1      13.834  12.652  14.163  0.00  0.00    -0.306 N 
ATOM      8  N   UNL     1      12.468  12.352  12.279  0.00  0.00    -0.214 NA
ATOM      9  N   UNL     1      12.818  14.543  13.217  0.00  0.00    -0.223 NA
ATOM     18  C   UNL     1      13.015  13.198  13.191  0.00  0.00    +0.216 A 
ATOM     22  C   UNL     1      11.675  12.918  11.346  0.00  0.00    +0.076 A 
ATOM     23  C   UNL     1      12.014  15.043  12.255  0.00  0.00    +0.116 A 
ATOM     26  C   UNL     1      11.409  14.270  11.284  0.00  0.00    +0.048 A 
ATOM     38  H   UNL     1      14.194  13.284  14.869  0.00  0.00    +0.149 HD
BRANCH  22  28
ATOM     28  C   UNL     1      11.104  12.001  10.389  0.00  0.00    +0.001 A 
ATOM     30  C   UNL     1      11.900  11.454   9.381  0.00  0.00    +0.012 A 
ATOM     31  C   UNL     1       9.752  11.659  10.465  0.00  0.00    +0.012 A 
ATOM     32  C   UNL     1      11.347  10.569   8.455  0.00  0.00    +0.024 A 
ATOM     33  C   UNL     1       9.200  10.774   9.540  0.00  0.00    +0.024 A 
ATOM     34  C   UNL     1       9.997  10.230   8.534  0.00  0.00    +0.029 A 
BRANCH  34  11
ATOM     11  N   UNL     1       9.439   9.334   7.598  0.00  0.00    -0.336 N 
ATOM     35  C   UNL     1       9.039   8.002   8.005  0.00  0.00    +0.129 C 
ATOM     36  C   UNL     1       9.272   9.728   6.214  0.00  0.00    +0.129 C 
ENDBRANCH  34  11
ENDBRANCH  22  28
ENDBRANCH  15   7
BRANCH  14   6
ATOM      6  N   UNL     1      13.029   9.535  18.281  0.00  0.00    -0.182 NA
ATOM     37  H   UNL     1      12.602  10.440  18.513  0.00  0.00    +0.148 HD
BRANCH   6   1
ATOM      1  S   UNL     1      12.692   8.165  19.226  0.00  0.00    +0.060 S 
ATOM      4  O   UNL     1      13.938   7.541  19.631  0.00  0.00    -0.153 OA
ATOM      5  O   UNL     1      11.666   7.382  18.566  0.00  0.00    -0.153 OA
BRANCH   1  19
ATOM     19  C   UNL     1      11.951   8.884  20.660  0.00  0.00    +0.123 A 
ATOM     20  C   UNL     1      11.303   8.103  21.605  0.00  0.00    +0.078 A 
ATOM     21  C   UNL     1      12.038  10.261  20.808  0.00  0.00    +0.030 A 
ATOM     24  C   UNL     1      10.728   8.710  22.722  0.00  0.00    +0.021 A 
ATOM     25  C   UNL     1      11.465  10.869  21.925  0.00  0.00    +0.002 A 
ATOM     27  C   UNL     1      10.810  10.094  22.882  0.00  0.00    +0.001 A 
BRANCH  20  29
ATOM     10  N   UNL     1      11.113   5.529  21.363  0.00  0.00    -0.191 NA
ATOM     29  C   UNL     1      11.198   6.681  21.471  0.00  0.00    +0.101 C 
ENDBRANCH  20  29
ENDBRANCH   1  19
ENDBRANCH   6   1
ENDBRANCH  14   6
TORSDOF 7
ENDMDL
MODEL 2
REMARK VINA RESULT:      -7.2     25.927     29.884
REMARK  Name = 11911729
REMARK  9 active torsions:
REMARK  status: ('A' for Active; 'I' for Inactive)
REMARK    1  A    between atoms: S_1  and  N_6
REMARK    2  A    between atoms: S_1  and  C_19
REMARK    3  A    between atoms: N_6  and  C_14
REMARK    4  A    between atoms: N_7  and  C_15
REMARK    5  A    between atoms: N_11  and  C_34
REMARK    6  A    between atoms: N_11  and  C_35
REMARK    7  A    between atoms: N_11  and  C_36
REMARK    8  A    between atoms: C_20  and  C_29
REMARK    9  A    between atoms: C_22  and  C_28
REMARK                            x       y       z     vdW  Elec       q    Type
REMARK                         _______ _______ _______ _____ _____    ______ ____
ROOT
ATOM      2  O   UNL     1     -14.807   7.867  22.705  0.00  0.00    -0.370 OA
ATOM      3  O   UNL     1     -13.080   5.347  22.071  0.00  0.00    -0.370 OA
ATOM     12  C   UNL     1     -13.856   6.239  21.255  0.00  0.00    +0.170 C 
ATOM     13  C   UNL     1     -15.090   6.619  22.049  0.00  0.00    +0.171 C 
ATOM     14  C   UNL     1     -13.123   7.548  21.065  0.00  0.00    +0.133 C 
ATOM     15  C   UNL     1     -15.232   5.513  23.065  0.00  0.00    +0.130 C 
ATOM     16  C   UNL     1     -13.501   8.317  22.318  0.00  0.00    +0.183 C 
ATOM     17  C   UNL     1     -13.794   5.079  23.287  0.00  0.00    +0.185 C 
ENDROOT
BRANCH  15   7
ATOM      7  N   UNL     1     -16.002   4.422  22.507  0.00  0.00    -0.306 N 
ATOM      8  N   UNL     1     -16.235   3.374  24.594  0.00  0.00    -0.214 NA
ATOM      9  N   UNL     1     -17.207   2.412  22.611  0.00  0.00    -0.223 NA
ATOM     18  C   UNL     1     -16.496   3.372  23.260  0.00  0.00    +0.216 A 
ATOM     22  C   UNL     1     -16.732   2.335  25.297  0.00  0.00    +0.076 A 
ATOM     23  C   UNL     1     -17.674   1.402  23.374  0.00  0.00    +0.116 A 
ATOM     26  C   UNL     1     -17.466   1.311  24.735  0.00  0.00    +0.048 A 
ATOM     38  H   UNL     1     -16.247   4.438  21.524  0.00  0.00    +0.149 HD
BRANCH  22  28
ATOM     28  C   UNL     1     -16.444   2.359  26.710  0.00  0.00    +0.001 A 
ATOM     30  C   UNL     1     -16.528   1.185  27.463  0.00  0.00    +0.012 A 
ATOM     31  C   UNL     1     -16.082   3.556  27.333  0.00  0.00    +0.012 A 
ATOM     32  C   UNL     1     -16.251   1.209  28.830  0.00  0.00    +0.024 A 
ATOM     33  C   UNL     1     -15.804   3.578  28.699  0.00  0.00    +0.024 A 
ATOM     34  C   UNL     1     -15.890   2.405  29.448  0.00  0.00    +0.029 A 
BRANCH  34  11
ATOM     11  N   UNL     1     -15.610   2.428  30.831  0.00  0.00    -0.336 N 
ATOM     35  C   UNL     1     -14.940   1.308  31.462  0.00  0.00    +0.129 C 
ATOM     36  C   UNL     1     -16.000   3.564  31.641  0.00  0.00    +0.129 C 
ENDBRANCH  34  11
ENDBRANCH  22  28
ENDBRANCH  15   7
BRANCH  14   6
ATOM      6  N   UNL     1     -13.574   8.230  19.876  0.00  0.00    -0.182 NA
ATOM     37  H   UNL     1     -14.528   8.610  19.864  0.00  0.00    +0.148 HD
BRANCH   6   1
ATOM      1  S   UNL     1     -12.697   8.077  18.429  0.00  0.00    +0.060 S 
ATOM      4  O   UNL     1     -13.621   7.961  17.317  0.00  0.00    -0.153 OA
ATOM      5  O   UNL     1     -11.653   7.089  18.617  0.00  0.00    -0.153 OA
BRANCH   1  19
ATOM     19  C   UNL     1     -11.903   9.652  18.316  0.00  0.00    +0.123 A 
ATOM     20  C   UNL     1     -11.023   9.943  17.284  0.00  0.00    +0.078 A 
ATOM     21  C   UNL     1     -12.190  10.590  19.298  0.00  0.00    +0.030 A 
ATOM     24  C   UNL     1     -10.415  11.198  17.233  0.00  0.00    +0.021 A 
ATOM     25  C   UNL     1     -11.582  11.845  19.247  0.00  0.00    +0.002 A 
ATOM     27  C   UNL     1     -10.695  12.149  18.215  0.00  0.00    +0.001 A 
BRANCH  20  29
ATOM     10  N   UNL     1     -10.457   8.218  15.434  0.00  0.00    -0.191 NA
ATOM     29  C   UNL     1     -10.711   8.990  16.262  0.00  0.00    +0.101 C 
ENDBRANCH  20  29
ENDBRANCH   1  19
ENDBRANCH   6   1
ENDBRANCH  14   6
TORSDOF 7
ENDMDL
MODEL 3
REMARK VINA RESULT:      -7.1      8.349     11.047
REMARK  Name = 11911729
REMARK  9 active torsions:
REMARK  status: ('A' for Active; 'I' for Inactive)
REMARK    1  A    between atoms: S_1  and  N_6
REMARK    2  A    between atoms: S_1  and  C_19
REMARK    3  A    between atoms: N_6  and  C_14
REMARK    4  A    between atoms: N_7  and  C_15
REMARK    5  A    between atoms: N_11  and  C_34
REMARK    6  A    between atoms: N_11  and  C_35
REMARK    7  A    between atoms: N_11  and  C_36
REMARK    8  A    between atoms: C_20  and  C_29
REMARK    9  A    between atoms: C_22  and  C_28
REMARK                            x       y       z     vdW  Elec       q    Type
REMARK                         _______ _______ _______ _____ _____    ______ ____
ROOT
ATOM      2  O   UNL     1      20.086   6.228  20.213  0.00  0.00    -0.370 OA
ATOM      3  O   UNL     1      19.701   8.119  22.666  0.00  0.00    -0.370 OA
ATOM     12  C   UNL     1      19.800   6.692  22.529  0.00  0.00    +0.170 C 
ATOM     13  C   UNL     1      19.089   6.310  21.246  0.00  0.00    +0.171 C 
ATOM     14  C   UNL     1      21.237   6.286  22.288  0.00  0.00    +0.133 C 
ATOM     15  C   UNL     1      18.156   7.468  20.982  0.00  0.00    +0.130 C 
ATOM     16  C   UNL     1      21.378   6.470  20.788  0.00  0.00    +0.183 C 
ATOM     17  C   UNL     1      18.899   8.640  21.595  0.00  0.00    +0.185 C 
ENDROOT
BRANCH  15   7
ATOM      7  N   UNL     1      16.899   7.258  21.669  0.00  0.00    -0.306 N 
ATOM      8  N   UNL     1      15.672   8.328  19.979  0.00  0.00    -0.214 NA
ATOM      9  N   UNL     1      14.572   7.418  21.919  0.00  0.00    -0.223 NA
ATOM     18  C   UNL     1      15.678   7.680  21.174  0.00  0.00    +0.216 A 
ATOM     22  C   UNL     1      14.465   8.726  19.527  0.00  0.00    +0.076 A 
ATOM     23  C   UNL     1      13.398   7.844  21.408  0.00  0.00    +0.116 A 
ATOM     26  C   UNL     1      13.283   8.508  20.204  0.00  0.00    +0.048 A 
ATOM     38  H   UNL     1      16.887   6.730  22.534  0.00  0.00    +0.149 HD
BRANCH  22  28
ATOM     28  C   UNL     1      14.481   9.410  18.257  0.00  0.00    +0.001 A 
ATOM     30  C   UNL     1      14.153   8.724  17.085  0.00  0.00    +0.012 A 
ATOM     31  C   UNL     1      14.829  10.762  18.192  0.00  0.00    +0.012 A 
ATOM     32  C   UNL     1      14.171   9.386  15.858  0.00  0.00    +0.024 A 
ATOM     33  C   UNL     1      14.846  11.423  16.965  0.00  0.00    +0.024 A 
ATOM     34  C   UNL     1      14.518  10.735  15.797  0.00  0.00    +0.029 A 
BRANCH  34  11
ATOM     11  N   UNL     1      14.536  11.403  14.555  0.00  0.00    -0.336 N 
ATOM     35  C   UNL     1      13.372  12.138  14.101  0.00  0.00    +0.129 C 
ATOM     36  C   UNL     1      15.712  11.352  13.710  0.00  0.00    +0.129 C 
ENDBRANCH  34  11
ENDBRANCH  22  28
ENDBRANCH  15   7
BRANCH  14   6
ATOM      6  N   UNL     1      21.462   4.913  22.670  0.00  0.00    -0.182 NA
ATOM     37  H   UNL     1      20.710   4.233  22.509  0.00  0.00    +0.148 HD
BRANCH   6   1
ATOM      1  S   UNL     1      22.765   4.522  23.687  0.00  0.00    +0.060 S 
ATOM      4  O   UNL     1      22.258   4.036  24.955  0.00  0.00    -0.153 OA
ATOM      5  O   UNL     1      23.728   5.606  23.652  0.00  0.00    -0.153 OA
BRANCH   1  19
ATOM     19  C   UNL     1      23.496   3.157  22.833  0.00  0.00    +0.123 A 
ATOM     20  C   UNL     1      24.478   2.379  23.426  0.00  0.00    +0.078 A 
ATOM     21  C   UNL     1      23.052   2.891  21.545  0.00  0.00    +0.030 A 
ATOM     24  C   UNL     1      25.031   1.311  22.717  0.00  0.00    +0.021 A 
ATOM     25  C   UNL     1      23.604   1.825  20.836  0.00  0.00    +0.002 A 
ATOM     27  C   UNL     1      24.593   1.034  21.421  0.00  0.00    +0.001 A 
BRANCH  20  29
ATOM     10  N   UNL     1      25.337   2.845  25.827  0.00  0.00    -0.191 NA
ATOM     29  C   UNL     1      24.952   2.636  24.753  0.00  0.00    +0.101 C 
ENDBRANCH  20  29
ENDBRANCH   1  19
ENDBRANCH   6   1
ENDBRANCH  14   6
TORSDOF 7
ENDMDL
MODEL 4
REMARK VINA RESULT:      -7.1     26.399     27.945
REMARK  Name = 11911729
REMARK  9 active torsions:
REMARK  status: ('A' for Active; 'I' for Inactive)
REMARK    1  A    between atoms: S_1  and  N_6
REMARK    2  A    between atoms: S_1  and  C_19
REMARK    3  A    between atoms: N_6  and  C_14
REMARK    4  A    between atoms: N_7  and  C_15
REMARK    5  A    between atoms: N_11  and  C_34
REMARK    6  A    between atoms: N_11  and  C_35
REMARK    7  A    between atoms: N_11  and  C_36
REMARK    8  A    between atoms: C_20  and  C_29
REMARK    9  A    between atoms: C_22  and  C_28
REMARK                            x       y       z     vdW  Elec       q    Type
REMARK                         _______ _______ _______ _____ _____    ______ ____
ROOT
ATOM      2  O   UNL     1      -3.124 -12.219  11.444  0.00  0.00    -0.370 OA
ATOM      3  O   UNL     1      -3.762  -9.170  11.248  0.00  0.00    -0.370 OA
ATOM     12  C   UNL     1      -4.420 -10.274  11.891  0.00  0.00    +0.170 C 
ATOM     13  C   UNL     1      -4.269 -11.480  10.985  0.00  0.00    +0.171 C 
ATOM     14  C   UNL     1      -3.680 -10.665  13.150  0.00  0.00    +0.133 C 
ATOM     15  C   UNL     1      -3.998 -10.888   9.623  0.00  0.00    +0.130 C 
ATOM     16  C   UNL     1      -2.595 -11.583  12.617  0.00  0.00    +0.183 C 
ATOM     17  C   UNL     1      -3.286  -9.590   9.960  0.00  0.00    +0.185 C 
ENDROOT
BRANCH  15   7
ATOM      7  N   UNL     1      -5.246 -10.612   8.944  0.00  0.00    -0.306 N 
ATOM      8  N   UNL     1      -4.490 -11.559   6.935  0.00  0.00    -0.214 NA
ATOM      9  N   UNL     1      -6.706 -10.629   7.108  0.00  0.00    -0.223 NA
ATOM     18  C   UNL     1      -5.488 -10.943   7.624  0.00  0.00    +0.216 A 
ATOM     22  C   UNL     1      -4.760 -11.867   5.650  0.00  0.00    +0.076 A 
ATOM     23  C   UNL     1      -6.908 -10.965   5.817  0.00  0.00    +0.116 A 
ATOM     26  C   UNL     1      -5.963 -11.593   5.032  0.00  0.00    +0.048 A 
ATOM     38  H   UNL     1      -6.014 -10.202   9.463  0.00  0.00    +0.149 HD
BRANCH  22  28
ATOM     28  C   UNL     1      -3.688 -12.520   4.938  0.00  0.00    +0.001 A 
ATOM     30  C   UNL     1      -2.764 -13.307   5.630  0.00  0.00    +0.012 A 
ATOM     31  C   UNL     1      -3.567 -12.367   3.555  0.00  0.00    +0.012 A 
ATOM     32  C   UNL     1      -1.726 -13.936   4.942  0.00  0.00    +0.024 A 
ATOM     33  C   UNL     1      -2.531 -12.997   2.868  0.00  0.00    +0.024 A 
ATOM     34  C   UNL     1      -1.610 -13.780   3.562  0.00  0.00    +0.029 A 
BRANCH  34  11
ATOM     11  N   UNL     1      -0.560 -14.418   2.866  0.00  0.00    -0.336 N 
ATOM     35  C   UNL     1       0.412 -15.221   3.581  0.00  0.00    +0.129 C 
ATOM     36  C   UNL     1      -0.431 -14.266   1.432  0.00  0.00    +0.129 C 
ENDBRANCH  34  11
ENDBRANCH  22  28
ENDBRANCH  15   7
BRANCH  14   6
ATOM      6  N   UNL     1      -4.547 -11.360  14.070  0.00  0.00    -0.182 NA
ATOM     37  H   UNL     1      -5.527 -11.508  13.800  0.00  0.00    +0.148 HD
BRANCH   6   1
ATOM      1  S   UNL     1      -4.064 -11.584  15.683  0.00  0.00    +0.060 S 
ATOM      4  O   UNL     1      -2.871 -10.801  15.941  0.00  0.00    -0.153 OA
ATOM      5  O   UNL     1      -4.085 -13.002  15.985  0.00  0.00    -0.153 OA
BRANCH   1  19
ATOM     19  C   UNL     1      -5.402 -10.848  16.571  0.00  0.00    +0.123 A 
ATOM     20  C   UNL     1      -5.473 -10.914  17.954  0.00  0.00    +0.078 A 
ATOM     21  C   UNL     1      -6.385 -10.199  15.835  0.00  0.00    +0.030 A 
ATOM     24  C   UNL     1      -6.548 -10.321  18.617  0.00  0.00    +0.021 A 
ATOM     25  C   UNL     1      -7.460  -9.607  16.497  0.00  0.00    +0.002 A 
ATOM     27  C   UNL     1      -7.541  -9.667  17.888  0.00  0.00    +0.001 A 
BRANCH  20  29
ATOM     10  N   UNL     1      -3.663 -12.118  19.366  0.00  0.00    -0.191 NA
ATOM     29  C   UNL     1      -4.472 -11.580  18.734  0.00  0.00    +0.101 C 
ENDBRANCH  20  29
ENDBRANCH   1  19
ENDBRANCH   6   1
ENDBRANCH  14   6
TORSDOF 7
ENDMDL
MODEL 5
REMARK VINA RESULT:      -7.0     25.857     29.807
REMARK  Name = 11911729
REMARK  9 active torsions:
REMARK  status: ('A' for Active; 'I' for Inactive)
REMARK    1  A    between atoms: S_1  and  N_6
REMARK    2  A    between atoms: S_1  and  C_19
REMARK    3  A    between atoms: N_6  and  C_14
REMARK    4  A    between atoms: N_7  and  C_15
REMARK    5  A    between atoms: N_11  and  C_34
REMARK    6  A    between atoms: N_11  and  C_35
REMARK    7  A    between atoms: N_11  and  C_36
REMARK    8  A    between atoms: C_20  and  C_29
REMARK    9  A    between atoms: C_22  and  C_28
REMARK                            x       y       z     vdW  Elec       q    Type
REMARK                         _______ _______ _______ _____ _____    ______ ____
ROOT
ATOM      2  O   UNL     1      -5.965 -11.692  10.269  0.00  0.00    -0.370 OA
ATOM      3  O   UNL     1      -4.650  -8.881   9.940  0.00  0.00    -0.370 OA
ATOM     12  C   UNL     1      -4.321 -10.187   9.437  0.00  0.00    +0.170 C 
ATOM     13  C   UNL     1      -4.645 -11.186  10.530  0.00  0.00    +0.171 C 
ATOM     14  C   UNL     1      -5.252 -10.564   8.307  0.00  0.00    +0.133 C 
ATOM     15  C   UNL     1      -4.640 -10.364  11.796  0.00  0.00    +0.130 C 
ATOM     16  C   UNL     1      -6.455 -11.119   9.048  0.00  0.00    +0.183 C 
ATOM     17  C   UNL     1      -5.076  -8.995  11.305  0.00  0.00    +0.185 C 
ENDROOT
BRANCH  15   7
ATOM      7  N   UNL     1      -3.301 -10.297  12.340  0.00  0.00    -0.306 N 
ATOM      8  N   UNL     1      -4.053 -10.664  14.532  0.00  0.00    -0.214 NA
ATOM      9  N   UNL     1      -1.709 -10.363  14.061  0.00  0.00    -0.223 NA
ATOM     18  C   UNL     1      -3.012 -10.446  13.684  0.00  0.00    +0.216 A 
ATOM     22  C   UNL     1      -3.735 -10.805  15.835  0.00  0.00    +0.076 A 
ATOM     23  C   UNL     1      -1.463 -10.512  15.380  0.00  0.00    +0.116 A 
ATOM     26  C   UNL     1      -2.446 -10.738  16.322  0.00  0.00    +0.048 A 
ATOM     38  H   UNL     1      -2.514 -10.188  11.710  0.00  0.00    +0.149 HD
BRANCH  22  28
ATOM     28  C   UNL     1      -4.854 -11.036  16.716  0.00  0.00    +0.001 A 
ATOM     30  C   UNL     1      -6.161 -10.892  16.244  0.00  0.00    +0.012 A 
ATOM     31  C   UNL     1      -4.636 -11.402  18.047  0.00  0.00    +0.012 A 
ATOM     32  C   UNL     1      -7.242 -11.114  17.097  0.00  0.00    +0.024 A 
ATOM     33  C   UNL     1      -5.717 -11.625  18.899  0.00  0.00    +0.024 A 
ATOM     34  C   UNL     1      -7.020 -11.480  18.424  0.00  0.00    +0.029 A 
BRANCH  34  11
ATOM     11  N   UNL     1      -8.114 -11.704  19.286  0.00  0.00    -0.336 N 
ATOM     35  C   UNL     1      -8.186 -12.915  20.079  0.00  0.00    +0.129 C 
ATOM     36  C   UNL     1      -9.188 -10.736  19.378  0.00  0.00    +0.129 C 
ENDBRANCH  34  11
ENDBRANCH  22  28
ENDBRANCH  15   7
BRANCH  14   6
ATOM      6  N   UNL     1      -4.657 -11.563   7.453  0.00  0.00    -0.182 NA
ATOM     37  H   UNL     1      -3.706 -11.884   7.667  0.00  0.00    +0.148 HD
BRANCH   6   1
ATOM      1  S   UNL     1      -5.355 -11.911   5.944  0.00  0.00    +0.060 S 
ATOM      4  O   UNL     1      -5.665 -10.671   5.259  0.00  0.00    -0.153 OA
ATOM      5  O   UNL     1      -6.380 -12.921   6.124  0.00  0.00    -0.153 OA
BRANCH   1  19
ATOM     19  C   UNL     1      -4.014 -12.684   5.091  0.00  0.00    +0.123 A 
ATOM     20  C   UNL     1      -4.067 -12.916   3.725  0.00  0.00    +0.078 A 
ATOM     21  C   UNL     1      -2.904 -13.054   5.838  0.00  0.00    +0.030 A 
ATOM     24  C   UNL     1      -2.987 -13.532   3.090  0.00  0.00    +0.021 A 
ATOM     25  C   UNL     1      -1.825 -13.670   5.204  0.00  0.00    +0.002 A 
ATOM     27  C   UNL     1      -1.866 -13.908   3.830  0.00  0.00    +0.001 A 
BRANCH  20  29
ATOM     10  N   UNL     1      -6.122 -12.245   2.296  0.00  0.00    -0.191 NA
ATOM     29  C   UNL     1      -5.203 -12.545   2.936  0.00  0.00    +0.101 C 
ENDBRANCH  20  29
ENDBRANCH   1  19
ENDBRANCH   6   1
ENDBRANCH  14   6
TORSDOF 7
ENDMDL
MODEL 6
REMARK VINA RESULT:      -7.0     26.621     30.797
REMARK  Name = 11911729
REMARK  9 active torsions:
REMARK  status: ('A' for Active; 'I' for Inactive)
REMARK    1  A    between atoms: S_1  and  N_6
REMARK    2  A    between atoms: S_1  and  C_19
REMARK    3  A    between atoms: N_6  and  C_14
REMARK    4  A    between atoms: N_7  and  C_15
REMARK    5  A    between atoms: N_11  and  C_34
REMARK    6  A    between atoms: N_11  and  C_35
REMARK    7  A    between atoms: N_11  and  C_36
REMARK    8  A    between atoms: C_20  and  C_29
REMARK    9  A    between atoms: C_22  and  C_28
REMARK                            x       y       z     vdW  Elec       q    Type
REMARK                         _______ _______ _______ _____ _____    ______ ____
ROOT
ATOM      2  O   UNL     1      -1.497 -13.956   4.659  0.00  0.00    -0.370 OA
ATOM      3  O   UNL     1      -4.148 -14.817   3.255  0.00  0.00    -0.370 OA
ATOM     12  C   UNL     1      -3.105 -13.892   2.906  0.00  0.00    +0.170 C 
ATOM     13  C   UNL     1      -2.644 -13.227   4.188  0.00  0.00    +0.171 C 
ATOM     14  C   UNL     1      -1.883 -14.638   2.419  0.00  0.00    +0.133 C 
ATOM     15  C   UNL     1      -3.805 -13.406   5.136  0.00  0.00    +0.130 C 
ATOM     16  C   UNL     1      -1.179 -14.990   3.717  0.00  0.00    +0.183 C 
ATOM     17  C   UNL     1      -4.425 -14.707   4.659  0.00  0.00    +0.185 C 
ENDROOT
BRANCH  15   7
ATOM      7  N   UNL     1      -4.745 -12.317   4.982  0.00  0.00    -0.306 N 
ATOM      8  N   UNL     1      -4.430 -11.586   7.189  0.00  0.00    -0.214 NA
ATOM      9  N   UNL     1      -5.951 -10.443   5.712  0.00  0.00    -0.223 NA
ATOM     18  C   UNL     1      -5.050 -11.422   5.990  0.00  0.00    +0.216 A 
ATOM     22  C   UNL     1      -4.752 -10.696   8.150  0.00  0.00    +0.076 A 
ATOM     23  C   UNL     1      -6.227  -9.587   6.718  0.00  0.00    +0.116 A 
ATOM     26  C   UNL     1      -5.651  -9.666   7.970  0.00  0.00    +0.048 A 
ATOM     38  H   UNL     1      -5.173 -12.154   4.077  0.00  0.00    +0.149 HD
BRANCH  22  28
ATOM     28  C   UNL     1      -4.081 -10.889   9.413  0.00  0.00    +0.001 A 
ATOM     30  C   UNL     1      -3.523  -9.799  10.084  0.00  0.00    +0.012 A 
ATOM     31  C   UNL     1      -3.984 -12.167   9.968  0.00  0.00    +0.012 A 
ATOM     32  C   UNL     1      -2.872  -9.986  11.304  0.00  0.00    +0.024 A 
ATOM     33  C   UNL     1      -3.334 -12.353  11.188  0.00  0.00    +0.024 A 
ATOM     34  C   UNL     1      -2.778 -11.263  11.855  0.00  0.00    +0.029 A 
BRANCH  34  11
ATOM     11  N   UNL     1      -2.120 -11.451  13.089  0.00  0.00    -0.336 N 
ATOM     35  C   UNL     1      -1.591 -12.752  13.447  0.00  0.00    +0.129 C 
ATOM     36  C   UNL     1      -1.979 -10.351  14.021  0.00  0.00    +0.129 C 
ENDBRANCH  34  11
ENDBRANCH  22  28
ENDBRANCH  15   7
BRANCH  14   6
ATOM      6  N   UNL     1      -1.057 -13.799   1.586  0.00  0.00    -0.182 NA
ATOM     37  H   UNL     1      -0.769 -12.883   1.951  0.00  0.00    +0.148 HD
BRANCH   6   1
ATOM      1  S   UNL     1      -0.888 -14.151  -0.067  0.00  0.00    +0.060 S 
ATOM      4  O   UNL     1      -1.498 -13.095  -0.850  0.00  0.00    -0.153 OA
ATOM      5  O   UNL     1      -1.260 -15.535  -0.291  0.00  0.00    -0.153 OA
BRANCH   1  19
ATOM     19  C   UNL     1       0.864 -14.047  -0.284  0.00  0.00    +0.123 A 
ATOM     20  C   UNL     1       1.436 -14.073  -1.546  0.00  0.00    +0.078 A 
ATOM     21  C   UNL     1       1.649 -13.941   0.856  0.00  0.00    +0.030 A 
ATOM     24  C   UNL     1       2.823 -13.991  -1.674  0.00  0.00    +0.021 A 
ATOM     25  C   UNL     1       3.035 -13.859   0.729  0.00  0.00    +0.002 A 
ATOM     27  C   UNL     1       3.623 -13.884  -0.536  0.00  0.00    +0.001 A 
BRANCH  20  29
ATOM     10  N   UNL     1       0.006 -14.277  -3.699  0.00  0.00    -0.191 NA
ATOM     29  C   UNL     1       0.646 -14.185  -2.736  0.00  0.00    +0.101 C 
ENDBRANCH  20  29
ENDBRANCH   1  19
ENDBRANCH   6   1
ENDBRANCH  14   6
TORSDOF 7
ENDMDL
MODEL 7
REMARK VINA RESULT:      -6.9     26.465     27.917
REMARK  Name = 11911729
REMARK  9 active torsions:
REMARK  status: ('A' for Active; 'I' for Inactive)
REMARK    1  A    between atoms: S_1  and  N_6
REMARK    2  A    between atoms: S_1  and  C_19
REMARK    3  A    between atoms: N_6  and  C_14
REMARK    4  A    between atoms: N_7  and  C_15
REMARK    5  A    between atoms: N_11  and  C_34
REMARK    6  A    between atoms: N_11  and  C_35
REMARK    7  A    between atoms: N_11  and  C_36
REMARK    8  A    between atoms: C_20  and  C_29
REMARK    9  A    between atoms: C_22  and  C_28
REMARK                            x       y       z     vdW  Elec       q    Type
REMARK                         _______ _______ _______ _____ _____    ______ ____
ROOT
ATOM      2  O   UNL     1      -4.140 -12.384  11.727  0.00  0.00    -0.370 OA
ATOM      3  O   UNL     1      -3.256  -9.412  11.375  0.00  0.00    -0.370 OA
ATOM     12  C   UNL     1      -4.263 -10.051  12.177  0.00  0.00    +0.170 C 
ATOM     13  C   UNL     1      -4.842 -11.186  11.355  0.00  0.00    +0.171 C 
ATOM     14  C   UNL     1      -3.629 -10.743  13.363  0.00  0.00    +0.133 C 
ATOM     15  C   UNL     1      -4.519 -10.812   9.928  0.00  0.00    +0.130 C 
ATOM     16  C   UNL     1      -3.208 -12.077  12.774  0.00  0.00    +0.183 C 
ATOM     17  C   UNL     1      -3.231 -10.021  10.075  0.00  0.00    +0.185 C 
ENDROOT
BRANCH  15   7
ATOM      7  N   UNL     1      -5.564  -9.969   9.387  0.00  0.00    -0.306 N 
ATOM      8  N   UNL     1      -5.257 -10.797   7.213  0.00  0.00    -0.214 NA
ATOM      9  N   UNL     1      -6.928  -9.124   7.677  0.00  0.00    -0.223 NA
ATOM     18  C   UNL     1      -5.927  -9.964   8.053  0.00  0.00    +0.216 A 
ATOM     22  C   UNL     1      -5.638 -10.765   5.919  0.00  0.00    +0.076 A 
ATOM     23  C   UNL     1      -7.257  -9.143   6.368  0.00  0.00    +0.116 A 
ATOM     26  C   UNL     1      -6.641  -9.951   5.435  0.00  0.00    +0.048 A 
ATOM     38  H   UNL     1      -6.104  -9.384  10.014  0.00  0.00    +0.149 HD
BRANCH  22  28
ATOM     28  C   UNL     1      -4.914 -11.658   5.046  0.00  0.00    +0.001 A 
ATOM     30  C   UNL     1      -5.457 -12.026   3.813  0.00  0.00    +0.012 A 
ATOM     31  C   UNL     1      -3.669 -12.160   5.432  0.00  0.00    +0.012 A 
ATOM     32  C   UNL     1      -4.759 -12.891   2.971  0.00  0.00    +0.024 A 
ATOM     33  C   UNL     1      -2.971 -13.024   4.589  0.00  0.00    +0.024 A 
ATOM     34  C   UNL     1      -3.516 -13.390   3.359  0.00  0.00    +0.029 A 
BRANCH  34  11
ATOM     11  N   UNL     1      -2.809 -14.264   2.506  0.00  0.00    -0.336 N 
ATOM     35  C   UNL     1      -2.285 -13.789   1.241  0.00  0.00    +0.129 C 
ATOM     36  C   UNL     1      -2.612 -15.651   2.876  0.00  0.00    +0.129 C 
ENDBRANCH  34  11
ENDBRANCH  22  28
ENDBRANCH  15   7
BRANCH  14   6
ATOM      6  N   UNL     1      -4.581 -10.920  14.433  0.00  0.00    -0.182 NA
ATOM     37  H   UNL     1      -5.523 -10.529  14.317  0.00  0.00    +0.148 HD
BRANCH   6   1
ATOM      1  S   UNL     1      -4.047 -11.421  15.965  0.00  0.00    +0.060 S 
ATOM      4  O   UNL     1      -2.837 -10.700  16.313  0.00  0.00    -0.153 OA
ATOM      5  O   UNL     1      -4.075 -12.869  16.020  0.00  0.00    -0.153 OA
BRANCH   1  19
ATOM     19  C   UNL     1      -5.347 -10.840  17.012  0.00  0.00    +0.123 A 
ATOM     20  C   UNL     1      -5.302 -11.023  18.386  0.00  0.00    +0.078 A 
ATOM     21  C   UNL     1      -6.418 -10.193  16.410  0.00  0.00    +0.030 A 
ATOM     24  C   UNL     1      -6.351 -10.551  19.176  0.00  0.00    +0.021 A 
ATOM     25  C   UNL     1      -7.467  -9.722  17.200  0.00  0.00    +0.002 A 
ATOM     27  C   UNL     1      -7.433  -9.900  18.583  0.00  0.00    +0.001 A 
BRANCH  20  29
ATOM     10  N   UNL     1      -3.323 -12.228  19.547  0.00  0.00    -0.191 NA
ATOM     29  C   UNL     1      -4.209 -11.689  19.027  0.00  0.00    +0.101 C 
ENDBRANCH  20  29
ENDBRANCH   1  19
ENDBRANCH   6   1
ENDBRANCH  14   6
TORSDOF 7
ENDMDL
MODEL 8
REMARK VINA RESULT:      -6.9     25.689     28.676
REMARK  Name = 11911729
REMARK  9 active torsions:
REMARK  status: ('A' for Active; 'I' for Inactive)
REMARK    1  A    between atoms: S_1  and  N_6
REMARK    2  A    between atoms: S_1  and  C_19
REMARK    3  A    between atoms: N_6  and  C_14
REMARK    4  A    between atoms: N_7  and  C_15
REMARK    5  A    between atoms: N_11  and  C_34
REMARK    6  A    between atoms: N_11  and  C_35
REMARK    7  A    between atoms: N_11  and  C_36
REMARK    8  A    between atoms: C_20  and  C_29
REMARK    9  A    between atoms: C_22  and  C_28
REMARK                            x       y       z     vdW  Elec       q    Type
REMARK                         _______ _______ _______ _____ _____    ______ ____
ROOT
ATOM      2  O   UNL     1      -7.216 -12.118  16.138  0.00  0.00    -0.370 OA
ATOM      3  O   UNL     1      -5.550 -13.180  18.554  0.00  0.00    -0.370 OA
ATOM     12  C   UNL     1      -6.209 -11.931  18.286  0.00  0.00    +0.170 C 
ATOM     13  C   UNL     1      -6.037 -11.639  16.808  0.00  0.00    +0.171 C 
ATOM     14  C   UNL     1      -7.704 -12.078  18.460  0.00  0.00    +0.133 C 
ATOM     15  C   UNL     1      -4.836 -12.460  16.406  0.00  0.00    +0.130 C 
ATOM     16  C   UNL     1      -8.135 -12.630  17.113  0.00  0.00    +0.183 C 
ATOM     17  C   UNL     1      -4.906 -13.641  17.357  0.00  0.00    +0.185 C 
ENDROOT
BRANCH  15   7
ATOM      7  N   UNL     1      -3.621 -11.707  16.633  0.00  0.00    -0.306 N 
ATOM      8  N   UNL     1      -3.341 -11.258  14.347  0.00  0.00    -0.214 NA
ATOM      9  N   UNL     1      -1.766 -10.433  15.973  0.00  0.00    -0.223 NA
ATOM     18  C   UNL     1      -2.888 -11.114  15.621  0.00  0.00    +0.216 A 
ATOM     22  C   UNL     1      -2.602 -10.668  13.385  0.00  0.00    +0.076 A 
ATOM     23  C   UNL     1      -1.074  -9.868  14.961  0.00  0.00    +0.116 A 
ATOM     26  C   UNL     1      -1.449  -9.953  13.635  0.00  0.00    +0.048 A 
ATOM     38  H   UNL     1      -3.304 -11.550  17.583  0.00  0.00    +0.149 HD
BRANCH  22  28
ATOM     28  C   UNL     1      -3.102 -10.831  12.042  0.00  0.00    +0.001 A 
ATOM     30  C   UNL     1      -3.241 -12.109  11.496  0.00  0.00    +0.012 A 
ATOM     31  C   UNL     1      -3.446  -9.712  11.280  0.00  0.00    +0.012 A 
ATOM     32  C   UNL     1      -3.722 -12.267  10.196  0.00  0.00    +0.024 A 
ATOM     33  C   UNL     1      -3.928  -9.870   9.981  0.00  0.00    +0.024 A 
ATOM     34  C   UNL     1      -4.065 -11.147   9.439  0.00  0.00    +0.029 A 
BRANCH  34  11
ATOM     11  N   UNL     1      -4.552 -11.308   8.124  0.00  0.00    -0.336 N 
ATOM     35  C   UNL     1      -4.350 -12.555   7.414  0.00  0.00    +0.129 C 
ATOM     36  C   UNL     1      -5.248 -10.223   7.462  0.00  0.00    +0.129 C 
ENDBRANCH  34  11
ENDBRANCH  22  28
ENDBRANCH  15   7
BRANCH  14   6
ATOM      6  N   UNL     1      -8.325 -10.803  18.726  0.00  0.00    -0.182 NA
ATOM     37  H   UNL     1      -7.719  -9.990  18.888  0.00  0.00    +0.148 HD
BRANCH   6   1
ATOM      1  S   UNL     1      -9.974 -10.734  19.129  0.00  0.00    +0.060 S 
ATOM      4  O   UNL     1     -10.117 -10.277  20.498  0.00  0.00    -0.153 OA
ATOM      5  O   UNL     1     -10.613 -11.962  18.698  0.00  0.00    -0.153 OA
BRANCH   1  19
ATOM     19  C   UNL     1     -10.555  -9.449  18.062  0.00  0.00    +0.123 A 
ATOM     20  C   UNL     1     -11.910  -9.202  17.904  0.00  0.00    +0.078 A 
ATOM     21  C   UNL     1      -9.606  -8.695  17.386  0.00  0.00    +0.030 A 
ATOM     24  C   UNL     1     -12.327  -8.180  17.050  0.00  0.00    +0.021 A 
ATOM     25  C   UNL     1     -10.022  -7.673  16.533  0.00  0.00    +0.002 A 
ATOM     27  C   UNL     1     -11.383  -7.415  16.365  0.00  0.00    +0.001 A 
BRANCH  20  29
ATOM     10  N   UNL     1     -13.713 -10.591  19.144  0.00  0.00    -0.191 NA
ATOM     29  C   UNL     1     -12.906  -9.969  18.589  0.00  0.00    +0.101 C 
ENDBRANCH  20  29
ENDBRANCH   1  19
ENDBRANCH   6   1
ENDBRANCH  14   6
TORSDOF 7
ENDMDL
MODEL 9
REMARK VINA RESULT:      -6.7     25.839     29.694
REMARK  Name = 11911729
REMARK  9 active torsions:
REMARK  status: ('A' for Active; 'I' for Inactive)
REMARK    1  A    between atoms: S_1  and  N_6
REMARK    2  A    between atoms: S_1  and  C_19
REMARK    3  A    between atoms: N_6  and  C_14
REMARK    4  A    between atoms: N_7  and  C_15
REMARK    5  A    between atoms: N_11  and  C_34
REMARK    6  A    between atoms: N_11  and  C_35
REMARK    7  A    between atoms: N_11  and  C_36
REMARK    8  A    between atoms: C_20  and  C_29
REMARK    9  A    between atoms: C_22  and  C_28
REMARK                            x       y       z     vdW  Elec       q    Type
REMARK                         _______ _______ _______ _____ _____    ______ ____
ROOT
ATOM      2  O   UNL     1      -5.945 -11.720  10.234  0.00  0.00    -0.370 OA
ATOM      3  O   UNL     1      -4.578  -8.952   9.781  0.00  0.00    -0.370 OA
ATOM     12  C   UNL     1      -4.270 -10.285   9.342  0.00  0.00    +0.170 C 
ATOM     13  C   UNL     1      -4.617 -11.226  10.480  0.00  0.00    +0.171 C 
ATOM     14  C   UNL     1      -5.201 -10.699   8.225  0.00  0.00    +0.133 C 
ATOM     15  C   UNL     1      -4.605 -10.345  11.706  0.00  0.00    +0.130 C 
ATOM     16  C   UNL     1      -6.417 -11.197   8.984  0.00  0.00    +0.183 C 
ATOM     17  C   UNL     1      -5.014  -8.993  11.147  0.00  0.00    +0.185 C 
ENDROOT
BRANCH  15   7
ATOM      7  N   UNL     1      -3.268 -10.275  12.254  0.00  0.00    -0.306 N 
ATOM      8  N   UNL     1      -4.027 -10.651  14.442  0.00  0.00    -0.214 NA
ATOM      9  N   UNL     1      -1.683 -10.342  13.981  0.00  0.00    -0.223 NA
ATOM     18  C   UNL     1      -2.984 -10.428  13.598  0.00  0.00    +0.216 A 
ATOM     22  C   UNL     1      -3.714 -10.795  15.746  0.00  0.00    +0.076 A 
ATOM     23  C   UNL     1      -1.441 -10.495  15.300  0.00  0.00    +0.116 A 
ATOM     26  C   UNL     1      -2.426 -10.726  16.238  0.00  0.00    +0.048 A 
ATOM     38  H   UNL     1      -2.479 -10.162  11.627  0.00  0.00    +0.149 HD
BRANCH  22  28
ATOM     28  C   UNL     1      -4.835 -11.033  16.623  0.00  0.00    +0.001 A 
ATOM     30  C   UNL     1      -6.139 -10.967  16.127  0.00  0.00    +0.012 A 
ATOM     31  C   UNL     1      -4.622 -11.327  17.972  0.00  0.00    +0.012 A 
ATOM     32  C   UNL     1      -7.223 -11.194  16.975  0.00  0.00    +0.024 A 
ATOM     33  C   UNL     1      -5.705 -11.555  18.819  0.00  0.00    +0.024 A 
ATOM     34  C   UNL     1      -7.006 -11.488  18.321  0.00  0.00    +0.029 A 
BRANCH  34  11
ATOM     11  N   UNL     1      -8.103 -11.719  19.178  0.00  0.00    -0.336 N 
ATOM     35  C   UNL     1      -9.192 -10.765  19.249  0.00  0.00    +0.129 C 
ATOM     36  C   UNL     1      -8.148 -12.904  20.010  0.00  0.00    +0.129 C 
ENDBRANCH  34  11
ENDBRANCH  22  28
ENDBRANCH  15   7
BRANCH  14   6
ATOM      6  N   UNL     1      -4.618 -11.748   7.424  0.00  0.00    -0.182 NA
ATOM     37  H   UNL     1      -3.693 -12.107   7.687  0.00  0.00    +0.148 HD
BRANCH   6   1
ATOM      1  S   UNL     1      -5.269 -12.104   5.895  0.00  0.00    +0.060 S 
ATOM      4  O   UNL     1      -5.603 -10.868   5.214  0.00  0.00    -0.153 OA
ATOM      5  O   UNL     1      -6.263 -13.149   6.042  0.00  0.00    -0.153 OA
BRANCH   1  19
ATOM     19  C   UNL     1      -3.882 -12.825   5.068  0.00  0.00    +0.123 A 
ATOM     20  C   UNL     1      -3.199 -13.902   5.611  0.00  0.00    +0.078 A 
ATOM     21  C   UNL     1      -3.499 -12.272   3.853  0.00  0.00    +0.030 A 
ATOM     24  C   UNL     1      -2.108 -14.439   4.927  0.00  0.00    +0.021 A 
ATOM     25  C   UNL     1      -2.409 -12.809   3.169  0.00  0.00    +0.002 A 
ATOM     27  C   UNL     1      -1.713 -13.892   3.705  0.00  0.00    +0.001 A 
BRANCH  20  29
ATOM     10  N   UNL     1      -3.878 -14.959   7.878  0.00  0.00    -0.191 NA
ATOM     29  C   UNL     1      -3.574 -14.485   6.864  0.00  0.00    +0.101 C 
ENDBRANCH  20  29
ENDBRANCH   1  19
ENDBRANCH   6   1
ENDBRANCH  14   6
TORSDOF 7
ENDMDL
MODEL 10
REMARK VINA RESULT:      -6.7      8.136     13.748
REMARK  Name = 11911729
REMARK  9 active torsions:
REMARK  status: ('A' for Active; 'I' for Inactive)
REMARK    1  A    between atoms: S_1  and  N_6
REMARK    2  A    between atoms: S_1  and  C_19
REMARK    3  A    between atoms: N_6  and  C_14
REMARK    4  A    between atoms: N_7  and  C_15
REMARK    5  A    between atoms: N_11  and  C_34
REMARK    6  A    between atoms: N_11  and  C_35
REMARK    7  A    between atoms: N_11  and  C_36
REMARK    8  A    between atoms: C_20  and  C_29
REMARK    9  A    between atoms: C_22  and  C_28
REMARK                            x       y       z     vdW  Elec       q    Type
REMARK                         _______ _______ _______ _____ _____    ______ ____
ROOT
ATOM      2  O   UNL     1      16.130   6.275  21.956  0.00  0.00    -0.370 OA
ATOM      3  O   UNL     1      17.625   8.690  20.662  0.00  0.00    -0.370 OA
ATOM     12  C   UNL     1      16.828   7.622  20.123  0.00  0.00    +0.170 C 
ATOM     13  C   UNL     1      17.135   6.377  20.932  0.00  0.00    +0.171 C 
ATOM     14  C   UNL     1      15.361   7.878  20.384  0.00  0.00    +0.133 C 
ATOM     15  C   UNL     1      18.483   6.659  21.549  0.00  0.00    +0.130 C 
ATOM     16  C   UNL     1      15.183   7.340  21.792  0.00  0.00    +0.183 C 
ATOM     17  C   UNL     1      18.471   8.170  21.699  0.00  0.00    +0.185 C 
ENDROOT
BRANCH  15   7
ATOM      7  N   UNL     1      19.538   6.256  20.644  0.00  0.00    -0.306 N 
ATOM      8  N   UNL     1      20.971   5.661  22.404  0.00  0.00    -0.214 NA
ATOM      9  N   UNL     1      21.662   5.418  20.109  0.00  0.00    -0.223 NA
ATOM     18  C   UNL     1      20.759   5.763  21.065  0.00  0.00    +0.216 A 
ATOM     22  C   UNL     1      22.174   5.177  22.778  0.00  0.00    +0.076 A 
ATOM     23  C   UNL     1      22.844   4.942  20.553  0.00  0.00    +0.116 A 
ATOM     26  C   UNL     1      23.158   4.797  21.889  0.00  0.00    +0.048 A 
ATOM     38  H   UNL     1      19.371   6.278  19.644  0.00  0.00    +0.149 HD
BRANCH  22  28
ATOM     28  C   UNL     1      22.376   5.076  24.203  0.00  0.00    +0.001 A 
ATOM     30  C   UNL     1      22.082   6.161  25.032  0.00  0.00    +0.012 A 
ATOM     31  C   UNL     1      22.869   3.893  24.760  0.00  0.00    +0.012 A 
ATOM     32  C   UNL     1      22.280   6.063  26.410  0.00  0.00    +0.024 A 
ATOM     33  C   UNL     1      23.066   3.796  26.137  0.00  0.00    +0.024 A 
ATOM     34  C   UNL     1      22.773   4.881  26.962  0.00  0.00    +0.029 A 
BRANCH  34  11
ATOM     11  N   UNL     1      22.972   4.783  28.355  0.00  0.00    -0.336 N 
ATOM     35  C   UNL     1      24.288   4.993  28.924  0.00  0.00    +0.129 C 
ATOM     36  C   UNL     1      21.867   4.455  29.234  0.00  0.00    +0.129 C 
ENDBRANCH  34  11
ENDBRANCH  22  28
ENDBRANCH  15   7
BRANCH  14   6
ATOM      6  N   UNL     1      14.532   7.164  19.443  0.00  0.00    -0.182 NA
ATOM     37  H   UNL     1      14.780   6.195  19.212  0.00  0.00    +0.148 HD
BRANCH   6   1
ATOM      1  S   UNL     1      13.423   8.015  18.478  0.00  0.00    +0.060 S 
ATOM      4  O   UNL     1      12.363   7.119  18.058  0.00  0.00    -0.153 OA
ATOM      5  O   UNL     1      14.156   8.790  17.495  0.00  0.00    -0.153 OA
BRANCH   1  19
ATOM     19  C   UNL     1      12.739   9.163  19.634  0.00  0.00    +0.123 A 
ATOM     20  C   UNL     1      11.912   8.742  20.665  0.00  0.00    +0.078 A 
ATOM     21  C   UNL     1      13.058  10.505  19.474  0.00  0.00    +0.030 A 
ATOM     24  C   UNL     1      11.391   9.682  21.555  0.00  0.00    +0.021 A 
ATOM     25  C   UNL     1      12.537  11.445  20.364  0.00  0.00    +0.002 A 
ATOM     27  C   UNL     1      11.704  11.033  21.405  0.00  0.00    +0.001 A 
BRANCH  20  29
ATOM     10  N   UNL     1      11.290   6.248  20.994  0.00  0.00    -0.191 NA
ATOM     29  C   UNL     1      11.568   7.364  20.847  0.00  0.00    +0.101 C 
ENDBRANCH  20  29
ENDBRANCH   1  19
ENDBRANCH   6   1
ENDBRANCH  14   6
TORSDOF 7
ENDMDL
