MODEL 1
REMARK VINA RESULT:      -6.5      0.000      0.000
REMARK  Name = 11885076
REMARK  15 active torsions:
REMARK  status: ('A' for Active; 'I' for Inactive)
REMARK    1  A    between atoms: O_2  and  C_14
REMARK    2  A    between atoms: O_3  and  C_19
REMARK    3  A    between atoms: N_7  and  C_25
REMARK    4  A    between atoms: N_7  and  C_26
REMARK    5  A    between atoms: C_9  and  C_17
REMARK    6  A    between atoms: C_11  and  C_19
REMARK    7  A    between atoms: C_11  and  C_20
REMARK    8  A    between atoms: C_12  and  C_22
REMARK    9  A    between atoms: C_22  and  C_23
REMARK   10  A    between atoms: C_25  and  C_28
REMARK   11  A    between atoms: C_27  and  C_29
REMARK   12  A    between atoms: C_29  and  C_30
REMARK   13  A    between atoms: C_30  and  C_33
REMARK   14  A    between atoms: C_33  and  C_37
REMARK   15  A    between atoms: C_37  and  C_38
REMARK                            x       y       z     vdW  Elec       q    Type
REMARK                         _______ _______ _______ _____ _____    ______ ____
ROOT
ATOM      1  S   UNL     1      17.962   6.558  20.227  0.00  0.00    -0.057 S 
ATOM      5  O   UNL     1      20.685   9.064  23.060  0.00  0.00    -0.275 OA
ATOM      6  N   UNL     1      18.064   8.661  21.730  0.00  0.00    -0.229 NA
ATOM      8  N   UNL     1      20.064   7.322  21.596  0.00  0.00    -0.265 N 
ATOM      9  C   UNL     1      14.545   9.588  20.455  0.00  0.00    -0.019 C 
ATOM     10  C   UNL     1      14.128   8.064  20.262  0.00  0.00    +0.011 C 
ATOM     11  C   UNL     1      12.722   7.784  19.604  0.00  0.00    +0.021 C 
ATOM     12  C   UNL     1      15.751   9.640  21.503  0.00  0.00    +0.054 C 
ATOM     13  C   UNL     1      13.350  10.379  21.045  0.00  0.00    +0.010 C 
ATOM     14  C   UNL     1      11.652   8.687  20.279  0.00  0.00    +0.123 C 
ATOM     15  C   UNL     1      15.288   7.230  19.642  0.00  0.00    +0.049 C 
ATOM     16  C   UNL     1      12.040  10.163  20.302  0.00  0.00    +0.032 C 
ATOM     17  C   UNL     1      14.984  10.263  19.132  0.00  0.00    +0.012 C 
ATOM     18  C   UNL     1      16.800   8.608  21.176  0.00  0.00    +0.058 A 
ATOM     20  C   UNL     1      12.319   6.307  19.879  0.00  0.00    +0.016 C 
ATOM     21  C   UNL     1      16.565   7.526  20.353  0.00  0.00    +0.015 A 
ATOM     24  C   UNL     1      18.765   7.636  21.296  0.00  0.00    +0.165 A 
ATOM     27  C   UNL     1      20.934   8.035  22.442  0.00  0.00    +0.219 C 
ATOM     41  H   UNL     1      20.416   6.479  21.149  0.00  0.00    +0.157 HD
ENDROOT
BRANCH  14   2
ATOM      2  O   UNL     1      10.393   8.555  19.621  0.00  0.00    -0.391 OA
ATOM     39  H   UNL     1       9.782   8.119  20.239  0.00  0.00    +0.210 HD
ENDBRANCH  14   2
BRANCH  11  19
ATOM     19  C   UNL     1      12.690   7.944  18.068  0.00  0.00    +0.165 C 
BRANCH  19   3
ATOM      3  O   UNL     1      11.839   6.947  17.548  0.00  0.00    -0.394 OA
ATOM     40  H   UNL     1      12.238   6.628  16.722  0.00  0.00    +0.209 HD
ENDBRANCH  19   3
ENDBRANCH  11  19
BRANCH  12  22
ATOM     22  C   UNL     1      16.371  11.031  21.693  0.00  0.00    +0.106 C 
BRANCH  22  23
ATOM      4  O   UNL     1      15.490  11.383  23.895  0.00  0.00    -0.276 OA
ATOM      7  N   UNL     1      15.208  13.102  22.364  0.00  0.00    -0.300 N 
ATOM     23  C   UNL     1      15.655  11.837  22.758  0.00  0.00    +0.216 C 
ATOM     26  C   UNL     1      15.414  13.618  21.017  0.00  0.00    +0.132 C 
BRANCH   7  25
ATOM     25  C   UNL     1      14.503  14.003  23.273  0.00  0.00    +0.142 C 
BRANCH  25  28
ATOM     28  C   UNL     1      13.098  13.544  23.540  0.00  0.00    -0.030 A 
ATOM     31  C   UNL     1      12.714  13.189  24.833  0.00  0.00    +0.005 A 
ATOM     32  C   UNL     1      12.176  13.476  22.496  0.00  0.00    +0.005 A 
ATOM     34  C   UNL     1      11.411  12.763  25.082  0.00  0.00    +0.000 A 
ATOM     35  C   UNL     1      10.871  13.051  22.744  0.00  0.00    +0.000 A 
ATOM     36  C   UNL     1      10.488  12.694  24.038  0.00  0.00    +0.000 A 
ENDBRANCH  25  28
ENDBRANCH   7  25
ENDBRANCH  22  23
ENDBRANCH  12  22
BRANCH  27  29
ATOM     29  C   UNL     1      22.298   7.362  22.521  0.00  0.00    +0.096 C 
BRANCH  29  30
ATOM     30  C   UNL     1      22.286   5.940  21.963  0.00  0.00    +0.009 C 
BRANCH  30  33
ATOM     33  C   UNL     1      22.319   4.901  23.084  0.00  0.00    +0.000 C 
BRANCH  33  37
ATOM     37  C   UNL     1      22.175   3.482  22.532  0.00  0.00    -0.003 C 
ATOM     38  C   UNL     1      21.615   3.490  21.118  0.00  0.00    +0.004 C 
ENDBRANCH  33  37
ENDBRANCH  30  33
ENDBRANCH  29  30
ENDBRANCH  27  29
TORSDOF 11
ENDMDL
MODEL 2
REMARK VINA RESULT:      -6.5     16.211     20.033
REMARK  Name = 11885076
REMARK  15 active torsions:
REMARK  status: ('A' for Active; 'I' for Inactive)
REMARK    1  A    between atoms: O_2  and  C_14
REMARK    2  A    between atoms: O_3  and  C_19
REMARK    3  A    between atoms: N_7  and  C_25
REMARK    4  A    between atoms: N_7  and  C_26
REMARK    5  A    between atoms: C_9  and  C_17
REMARK    6  A    between atoms: C_11  and  C_19
REMARK    7  A    between atoms: C_11  and  C_20
REMARK    8  A    between atoms: C_12  and  C_22
REMARK    9  A    between atoms: C_22  and  C_23
REMARK   10  A    between atoms: C_25  and  C_28
REMARK   11  A    between atoms: C_27  and  C_29
REMARK   12  A    between atoms: C_29  and  C_30
REMARK   13  A    between atoms: C_30  and  C_33
REMARK   14  A    between atoms: C_33  and  C_37
REMARK   15  A    between atoms: C_37  and  C_38
REMARK                            x       y       z     vdW  Elec       q    Type
REMARK                         _______ _______ _______ _____ _____    ______ ____
ROOT
ATOM      1  S   UNL     1       9.976   5.516   3.114  0.00  0.00    -0.057 S 
ATOM      5  O   UNL     1      12.129   7.960   6.449  0.00  0.00    -0.275 OA
ATOM      6  N   UNL     1      12.233   6.553   3.840  0.00  0.00    -0.229 NA
ATOM      8  N   UNL     1      10.369   6.849   5.339  0.00  0.00    -0.265 N 
ATOM      9  C   UNL     1      13.851   4.855   0.779  0.00  0.00    -0.019 C 
ATOM     10  C   UNL     1      12.514   4.952  -0.080  0.00  0.00    +0.011 C 
ATOM     11  C   UNL     1      12.523   4.265  -1.500  0.00  0.00    +0.021 C 
ATOM     12  C   UNL     1      13.775   5.955   1.936  0.00  0.00    +0.054 C 
ATOM     13  C   UNL     1      15.069   5.177  -0.124  0.00  0.00    +0.010 C 
ATOM     14  C   UNL     1      13.828   4.655  -2.249  0.00  0.00    +0.123 C 
ATOM     15  C   UNL     1      11.261   4.608   0.776  0.00  0.00    +0.049 C 
ATOM     16  C   UNL     1      15.090   4.399  -1.432  0.00  0.00    +0.032 C 
ATOM     17  C   UNL     1      14.057   3.456   1.413  0.00  0.00    +0.012 C 
ATOM     18  C   UNL     1      12.434   5.929   2.623  0.00  0.00    +0.058 A 
ATOM     20  C   UNL     1      11.329   4.809  -2.335  0.00  0.00    +0.016 C 
ATOM     21  C   UNL     1      11.316   5.334   2.078  0.00  0.00    +0.015 A 
ATOM     24  C   UNL     1      10.977   6.394   4.199  0.00  0.00    +0.165 A 
ATOM     27  C   UNL     1      10.962   7.590   6.378  0.00  0.00    +0.219 C 
ATOM     41  H   UNL     1       9.383   6.614   5.421  0.00  0.00    +0.157 HD
ENDROOT
BRANCH  14   2
ATOM      2  O   UNL     1      13.930   3.947  -3.484  0.00  0.00    -0.391 OA
ATOM     39  H   UNL     1      13.037   3.887  -3.864  0.00  0.00    +0.210 HD
ENDBRANCH  14   2
BRANCH  11  19
ATOM     19  C   UNL     1      12.342   2.731  -1.470  0.00  0.00    +0.165 C 
BRANCH  19   3
ATOM      3  O   UNL     1      11.600   2.361  -2.610  0.00  0.00    -0.394 OA
ATOM     40  H   UNL     1      12.231   2.040  -3.275  0.00  0.00    +0.209 HD
ENDBRANCH  19   3
ENDBRANCH  11  19
BRANCH  12  22
ATOM     22  C   UNL     1      14.927   5.897   2.947  0.00  0.00    +0.106 C 
BRANCH  22  23
ATOM      4  O   UNL     1      16.272   7.566   1.871  0.00  0.00    -0.276 OA
ATOM      7  N   UNL     1      15.942   7.796   4.155  0.00  0.00    -0.300 N 
ATOM     23  C   UNL     1      15.774   7.154   2.924  0.00  0.00    +0.216 C 
ATOM     26  C   UNL     1      15.345   7.293   5.386  0.00  0.00    +0.132 C 
BRANCH   7  25
ATOM     25  C   UNL     1      16.728   9.019   4.302  0.00  0.00    +0.142 C 
BRANCH  25  28
ATOM     28  C   UNL     1      18.036   8.767   4.997  0.00  0.00    -0.030 A 
ATOM     31  C   UNL     1      18.282   9.332   6.248  0.00  0.00    +0.005 A 
ATOM     32  C   UNL     1      19.004   7.966   4.391  0.00  0.00    +0.005 A 
ATOM     34  C   UNL     1      19.495   9.099   6.892  0.00  0.00    +0.000 A 
ATOM     35  C   UNL     1      20.218   7.731   5.036  0.00  0.00    +0.000 A 
ATOM     36  C   UNL     1      20.463   8.298   6.287  0.00  0.00    +0.000 A 
ENDBRANCH  25  28
ENDBRANCH   7  25
ENDBRANCH  22  23
ENDBRANCH  12  22
BRANCH  27  29
ATOM     29  C   UNL     1       9.951   7.909   7.472  0.00  0.00    +0.096 C 
BRANCH  29  30
ATOM     30  C   UNL     1       9.271   6.659   8.028  0.00  0.00    +0.009 C 
BRANCH  30  33
ATOM     33  C   UNL     1      10.290   5.562   8.339  0.00  0.00    +0.000 C 
BRANCH  33  37
ATOM     37  C   UNL     1       9.623   4.354   8.996  0.00  0.00    -0.003 C 
ATOM     38  C   UNL     1       8.863   4.752  10.251  0.00  0.00    +0.004 C 
ENDBRANCH  33  37
ENDBRANCH  30  33
ENDBRANCH  29  30
ENDBRANCH  27  29
TORSDOF 11
ENDMDL
MODEL 3
REMARK VINA RESULT:      -6.3     28.389     32.052
REMARK  Name = 11885076
REMARK  15 active torsions:
REMARK  status: ('A' for Active; 'I' for Inactive)
REMARK    1  A    between atoms: O_2  and  C_14
REMARK    2  A    between atoms: O_3  and  C_19
REMARK    3  A    between atoms: N_7  and  C_25
REMARK    4  A    between atoms: N_7  and  C_26
REMARK    5  A    between atoms: C_9  and  C_17
REMARK    6  A    between atoms: C_11  and  C_19
REMARK    7  A    between atoms: C_11  and  C_20
REMARK    8  A    between atoms: C_12  and  C_22
REMARK    9  A    between atoms: C_22  and  C_23
REMARK   10  A    between atoms: C_25  and  C_28
REMARK   11  A    between atoms: C_27  and  C_29
REMARK   12  A    between atoms: C_29  and  C_30
REMARK   13  A    between atoms: C_30  and  C_33
REMARK   14  A    between atoms: C_33  and  C_37
REMARK   15  A    between atoms: C_37  and  C_38
REMARK                            x       y       z     vdW  Elec       q    Type
REMARK                         _______ _______ _______ _____ _____    ______ ____
ROOT
ATOM      1  S   UNL     1      -7.087 -10.335  11.297  0.00  0.00    -0.057 S 
ATOM      5  O   UNL     1     -11.279  -8.927  12.770  0.00  0.00    -0.275 OA
ATOM      6  N   UNL     1      -8.516  -9.810  13.389  0.00  0.00    -0.229 NA
ATOM      8  N   UNL     1      -9.581  -9.526  11.245  0.00  0.00    -0.265 N 
ATOM      9  C   UNL     1      -5.602 -11.117  15.550  0.00  0.00    -0.019 C 
ATOM     10  C   UNL     1      -4.506 -10.656  14.491  0.00  0.00    +0.011 C 
ATOM     11  C   UNL     1      -3.009 -11.053  14.790  0.00  0.00    +0.021 C 
ATOM     12  C   UNL     1      -6.926 -10.259  15.294  0.00  0.00    +0.054 C 
ATOM     13  C   UNL     1      -5.092 -10.817  16.983  0.00  0.00    +0.010 C 
ATOM     14  C   UNL     1      -2.680 -10.729  16.274  0.00  0.00    +0.123 C 
ATOM     15  C   UNL     1      -4.958 -10.964  13.033  0.00  0.00    +0.049 C 
ATOM     16  C   UNL     1      -3.684 -11.325  17.256  0.00  0.00    +0.032 C 
ATOM     17  C   UNL     1      -5.939 -12.626  15.447  0.00  0.00    +0.012 C 
ATOM     18  C   UNL     1      -7.269 -10.213  13.828  0.00  0.00    +0.058 A 
ATOM     20  C   UNL     1      -2.068 -10.185  13.907  0.00  0.00    +0.016 C 
ATOM     21  C   UNL     1      -6.366 -10.516  12.830  0.00  0.00    +0.015 A 
ATOM     24  C   UNL     1      -8.537  -9.842  12.074  0.00  0.00    +0.165 A 
ATOM     27  C   UNL     1     -10.866  -9.096  11.628  0.00  0.00    +0.219 C 
ATOM     41  H   UNL     1      -9.384  -9.620  10.252  0.00  0.00    +0.157 HD
ENDROOT
BRANCH  14   2
ATOM      2  O   UNL     1      -1.375 -11.196  16.614  0.00  0.00    -0.391 OA
ATOM     39  H   UNL     1      -0.899 -11.370  15.784  0.00  0.00    +0.210 HD
ENDBRANCH  14   2
BRANCH  11  19
ATOM     19  C   UNL     1      -2.656 -12.519  14.454  0.00  0.00    +0.165 C 
BRANCH  19   3
ATOM      3  O   UNL     1      -1.351 -12.538  13.922  0.00  0.00    -0.394 OA
ATOM     40  H   UNL     1      -1.374 -12.052  13.081  0.00  0.00    +0.209 HD
ENDBRANCH  19   3
ENDBRANCH  11  19
BRANCH  12  22
ATOM     22  C   UNL     1      -8.133 -10.683  16.141  0.00  0.00    +0.106 C 
BRANCH  22  23
ATOM      4  O   UNL     1      -8.086  -8.661  17.428  0.00  0.00    -0.276 OA
ATOM      7  N   UNL     1     -10.172  -9.460  16.806  0.00  0.00    -0.300 N 
ATOM     23  C   UNL     1      -8.775  -9.508  16.852  0.00  0.00    +0.216 C 
ATOM     26  C   UNL     1     -10.966 -10.473  16.120  0.00  0.00    +0.132 C 
BRANCH   7  25
ATOM     25  C   UNL     1     -10.942  -8.393  17.440  0.00  0.00    +0.142 C 
BRANCH  25  28
ATOM     28  C   UNL     1     -11.625  -7.516  16.430  0.00  0.00    -0.030 A 
ATOM     31  C   UNL     1     -13.002  -7.617  16.235  0.00  0.00    +0.005 A 
ATOM     32  C   UNL     1     -10.881  -6.599  15.688  0.00  0.00    +0.005 A 
ATOM     34  C   UNL     1     -13.636  -6.803  15.298  0.00  0.00    +0.000 A 
ATOM     35  C   UNL     1     -11.515  -5.783  14.749  0.00  0.00    +0.000 A 
ATOM     36  C   UNL     1     -12.892  -5.886  14.555  0.00  0.00    +0.000 A 
ENDBRANCH  25  28
ENDBRANCH   7  25
ENDBRANCH  22  23
ENDBRANCH  12  22
BRANCH  27  29
ATOM     29  C   UNL     1     -11.745  -8.843  10.410  0.00  0.00    +0.096 C 
BRANCH  29  30
ATOM     30  C   UNL     1     -12.718  -7.684  10.617  0.00  0.00    +0.009 C 
BRANCH  30  33
ATOM     33  C   UNL     1     -12.043  -6.337  10.362  0.00  0.00    +0.000 C 
BRANCH  33  37
ATOM     37  C   UNL     1     -12.845  -5.188  10.975  0.00  0.00    -0.003 C 
ATOM     38  C   UNL     1     -12.057  -3.888  10.959  0.00  0.00    +0.004 C 
ENDBRANCH  33  37
ENDBRANCH  30  33
ENDBRANCH  29  30
ENDBRANCH  27  29
TORSDOF 11
ENDMDL
MODEL 4
REMARK VINA RESULT:      -6.2     25.569     29.295
REMARK  Name = 11885076
REMARK  15 active torsions:
REMARK  status: ('A' for Active; 'I' for Inactive)
REMARK    1  A    between atoms: O_2  and  C_14
REMARK    2  A    between atoms: O_3  and  C_19
REMARK    3  A    between atoms: N_7  and  C_25
REMARK    4  A    between atoms: N_7  and  C_26
REMARK    5  A    between atoms: C_9  and  C_17
REMARK    6  A    between atoms: C_11  and  C_19
REMARK    7  A    between atoms: C_11  and  C_20
REMARK    8  A    between atoms: C_12  and  C_22
REMARK    9  A    between atoms: C_22  and  C_23
REMARK   10  A    between atoms: C_25  and  C_28
REMARK   11  A    between atoms: C_27  and  C_29
REMARK   12  A    between atoms: C_29  and  C_30
REMARK   13  A    between atoms: C_30  and  C_33
REMARK   14  A    between atoms: C_33  and  C_37
REMARK   15  A    between atoms: C_37  and  C_38
REMARK                            x       y       z     vdW  Elec       q    Type
REMARK                         _______ _______ _______ _____ _____    ______ ____
ROOT
ATOM      1  S   UNL     1      20.276  -6.614  -0.659  0.00  0.00    -0.057 S 
ATOM      5  O   UNL     1      16.948  -8.998  -2.888  0.00  0.00    -0.275 OA
ATOM      6  N   UNL     1      18.944  -8.832  -0.700  0.00  0.00    -0.229 NA
ATOM      8  N   UNL     1      18.414  -7.213  -2.406  0.00  0.00    -0.265 N 
ATOM      9  C   UNL     1      21.231 -10.110   2.129  0.00  0.00    -0.019 C 
ATOM     10  C   UNL     1      21.437  -8.649   2.729  0.00  0.00    +0.011 C 
ATOM     11  C   UNL     1      22.451  -8.504   3.928  0.00  0.00    +0.021 C 
ATOM     12  C   UNL     1      19.887 -10.102   1.264  0.00  0.00    +0.054 C 
ATOM     13  C   UNL     1      21.061 -11.123   3.289  0.00  0.00    +0.010 C 
ATOM     14  C   UNL     1      22.170  -9.620   4.973  0.00  0.00    +0.123 C 
ATOM     15  C   UNL     1      21.644  -7.595   1.601  0.00  0.00    +0.049 C 
ATOM     16  C   UNL     1      22.133 -11.018   4.364  0.00  0.00    +0.032 C 
ATOM     17  C   UNL     1      22.413 -10.566   1.239  0.00  0.00    +0.012 C 
ATOM     18  C   UNL     1      19.833  -8.901   0.355  0.00  0.00    +0.058 A 
ATOM     20  C   UNL     1      22.209  -7.139   4.634  0.00  0.00    +0.016 C 
ATOM     21  C   UNL     1      20.617  -7.780   0.535  0.00  0.00    +0.015 A 
ATOM     24  C   UNL     1      19.093  -7.676  -1.310  0.00  0.00    +0.165 A 
ATOM     27  C   UNL     1      17.401  -7.882  -3.120  0.00  0.00    +0.219 C 
ATOM     41  H   UNL     1      18.686  -6.285  -2.719  0.00  0.00    +0.157 HD
ENDROOT
BRANCH  14   2
ATOM      2  O   UNL     1      23.152  -9.598   6.009  0.00  0.00    -0.391 OA
ATOM     39  H   UNL     1      22.786  -9.088   6.751  0.00  0.00    +0.210 HD
ENDBRANCH  14   2
BRANCH  11  19
ATOM     19  C   UNL     1      23.939  -8.498   3.513  0.00  0.00    +0.165 C 
BRANCH  19   3
ATOM      3  O   UNL     1      24.621  -7.607   4.366  0.00  0.00    -0.394 OA
ATOM     40  H   UNL     1      25.456  -8.034   4.622  0.00  0.00    +0.209 HD
ENDBRANCH  19   3
ENDBRANCH  11  19
BRANCH  12  22
ATOM     22  C   UNL     1      19.618 -11.402   0.494  0.00  0.00    +0.106 C 
BRANCH  22  23
ATOM      4  O   UNL     1      17.242 -11.438   0.817  0.00  0.00    -0.276 OA
ATOM      7  N   UNL     1      18.406 -13.363   1.378  0.00  0.00    -0.300 N 
ATOM     23  C   UNL     1      18.310 -12.050   0.905  0.00  0.00    +0.216 C 
ATOM     26  C   UNL     1      19.679 -14.067   1.474  0.00  0.00    +0.132 C 
BRANCH   7  25
ATOM     25  C   UNL     1      17.240 -14.128   1.812  0.00  0.00    +0.142 C 
BRANCH  25  28
ATOM     28  C   UNL     1      16.708 -13.643   3.130  0.00  0.00    -0.030 A 
ATOM     31  C   UNL     1      17.553 -13.565   4.237  0.00  0.00    +0.005 A 
ATOM     32  C   UNL     1      15.369 -13.270   3.247  0.00  0.00    +0.005 A 
ATOM     34  C   UNL     1      17.060 -13.115   5.461  0.00  0.00    +0.000 A 
ATOM     35  C   UNL     1      14.875 -12.820   4.472  0.00  0.00    +0.000 A 
ATOM     36  C   UNL     1      15.721 -12.742   5.578  0.00  0.00    +0.000 A 
ENDBRANCH  25  28
ENDBRANCH   7  25
ENDBRANCH  22  23
ENDBRANCH  12  22
BRANCH  27  29
ATOM     29  C   UNL     1      16.892  -7.032  -4.276  0.00  0.00    +0.096 C 
BRANCH  29  30
ATOM     30  C   UNL     1      17.052  -5.535  -4.022  0.00  0.00    +0.009 C 
BRANCH  30  33
ATOM     33  C   UNL     1      15.775  -4.929  -3.440  0.00  0.00    +0.000 C 
BRANCH  33  37
ATOM     37  C   UNL     1      14.536  -5.411  -4.196  0.00  0.00    -0.003 C 
ATOM     38  C   UNL     1      13.416  -5.794  -3.242  0.00  0.00    +0.004 C 
ENDBRANCH  33  37
ENDBRANCH  30  33
ENDBRANCH  29  30
ENDBRANCH  27  29
TORSDOF 11
ENDMDL
MODEL 5
REMARK VINA RESULT:      -6.1     16.001     20.312
REMARK  Name = 11885076
REMARK  15 active torsions:
REMARK  status: ('A' for Active; 'I' for Inactive)
REMARK    1  A    between atoms: O_2  and  C_14
REMARK    2  A    between atoms: O_3  and  C_19
REMARK    3  A    between atoms: N_7  and  C_25
REMARK    4  A    between atoms: N_7  and  C_26
REMARK    5  A    between atoms: C_9  and  C_17
REMARK    6  A    between atoms: C_11  and  C_19
REMARK    7  A    between atoms: C_11  and  C_20
REMARK    8  A    between atoms: C_12  and  C_22
REMARK    9  A    between atoms: C_22  and  C_23
REMARK   10  A    between atoms: C_25  and  C_28
REMARK   11  A    between atoms: C_27  and  C_29
REMARK   12  A    between atoms: C_29  and  C_30
REMARK   13  A    between atoms: C_30  and  C_33
REMARK   14  A    between atoms: C_33  and  C_37
REMARK   15  A    between atoms: C_37  and  C_38
REMARK                            x       y       z     vdW  Elec       q    Type
REMARK                         _______ _______ _______ _____ _____    ______ ____
ROOT
ATOM      1  S   UNL     1      13.557   8.220   6.767  0.00  0.00    -0.057 S 
ATOM      5  O   UNL     1      10.909   5.311   4.266  0.00  0.00    -0.275 OA
ATOM      6  N   UNL     1      13.409   6.880   4.558  0.00  0.00    -0.229 NA
ATOM      8  N   UNL     1      11.541   6.695   6.069  0.00  0.00    -0.265 N 
ATOM      9  C   UNL     1      16.680   8.594   3.449  0.00  0.00    -0.019 C 
ATOM     10  C   UNL     1      17.217   8.713   4.943  0.00  0.00    +0.011 C 
ATOM     11  C   UNL     1      18.570   9.494   5.158  0.00  0.00    +0.021 C 
ATOM     12  C   UNL     1      15.586   7.430   3.410  0.00  0.00    +0.054 C 
ATOM     13  C   UNL     1      17.850   8.199   2.512  0.00  0.00    +0.010 C 
ATOM     14  C   UNL     1      19.613   9.010   4.112  0.00  0.00    +0.123 C 
ATOM     15  C   UNL     1      16.084   9.138   5.923  0.00  0.00    +0.049 C 
ATOM     16  C   UNL     1      19.094   9.060   2.679  0.00  0.00    +0.032 C 
ATOM     17  C   UNL     1      16.050   9.910   2.930  0.00  0.00    +0.012 C 
ATOM     18  C   UNL     1      14.612   7.561   4.551  0.00  0.00    +0.058 A 
ATOM     20  C   UNL     1      19.135   9.152   6.567  0.00  0.00    +0.016 C 
ATOM     21  C   UNL     1      14.862   8.319   5.676  0.00  0.00    +0.015 A 
ATOM     24  C   UNL     1      12.768   7.156   5.673  0.00  0.00    +0.165 A 
ATOM     27  C   UNL     1      10.696   5.818   5.362  0.00  0.00    +0.219 C 
ATOM     41  H   UNL     1      11.226   7.035   6.974  0.00  0.00    +0.157 HD
ENDROOT
BRANCH  14   2
ATOM      2  O   UNL     1      20.807   9.788   4.194  0.00  0.00    -0.391 OA
ATOM     39  H   UNL     1      21.554   9.205   3.976  0.00  0.00    +0.210 HD
ENDBRANCH  14   2
BRANCH  11  19
ATOM     19  C   UNL     1      18.433  11.033   5.129  0.00  0.00    +0.165 C 
BRANCH  19   3
ATOM      3  O   UNL     1      19.374  11.567   6.033  0.00  0.00    -0.394 OA
ATOM     40  H   UNL     1      19.206  11.161   6.900  0.00  0.00    +0.209 HD
ENDBRANCH  19   3
ENDBRANCH  11  19
BRANCH  12  22
ATOM     22  C   UNL     1      14.861   7.282   2.066  0.00  0.00    +0.106 C 
BRANCH  22  23
ATOM      4  O   UNL     1      14.777   4.886   2.112  0.00  0.00    -0.276 OA
ATOM      7  N   UNL     1      15.528   5.872   0.152  0.00  0.00    -0.300 N 
ATOM     23  C   UNL     1      15.045   5.902   1.464  0.00  0.00    +0.216 C 
ATOM     26  C   UNL     1      15.837   7.085  -0.595  0.00  0.00    +0.132 C 
BRANCH   7  25
ATOM     25  C   UNL     1      15.758   4.623  -0.571  0.00  0.00    +0.142 C 
BRANCH  25  28
ATOM     28  C   UNL     1      14.549   4.195  -1.353  0.00  0.00    -0.030 A 
ATOM     31  C   UNL     1      14.453   4.500  -2.711  0.00  0.00    +0.005 A 
ATOM     32  C   UNL     1      13.524   3.492  -0.721  0.00  0.00    +0.005 A 
ATOM     34  C   UNL     1      13.331   4.103  -3.437  0.00  0.00    +0.000 A 
ATOM     35  C   UNL     1      12.401   3.093  -1.448  0.00  0.00    +0.000 A 
ATOM     36  C   UNL     1      12.305   3.399  -2.806  0.00  0.00    +0.000 A 
ENDBRANCH  25  28
ENDBRANCH   7  25
ENDBRANCH  22  23
ENDBRANCH  12  22
BRANCH  27  29
ATOM     29  C   UNL     1       9.417   5.541   6.140  0.00  0.00    +0.096 C 
BRANCH  29  30
ATOM     30  C   UNL     1       8.943   6.750   6.944  0.00  0.00    +0.009 C 
BRANCH  30  33
ATOM     33  C   UNL     1       9.003   6.478   8.447  0.00  0.00    +0.000 C 
BRANCH  33  37
ATOM     37  C   UNL     1       9.476   5.053   8.736  0.00  0.00    -0.003 C 
ATOM     38  C   UNL     1       9.074   4.605  10.132  0.00  0.00    +0.004 C 
ENDBRANCH  33  37
ENDBRANCH  30  33
ENDBRANCH  29  30
ENDBRANCH  27  29
TORSDOF 11
ENDMDL
MODEL 6
REMARK VINA RESULT:      -5.9     15.868     19.950
REMARK  Name = 11885076
REMARK  15 active torsions:
REMARK  status: ('A' for Active; 'I' for Inactive)
REMARK    1  A    between atoms: O_2  and  C_14
REMARK    2  A    between atoms: O_3  and  C_19
REMARK    3  A    between atoms: N_7  and  C_25
REMARK    4  A    between atoms: N_7  and  C_26
REMARK    5  A    between atoms: C_9  and  C_17
REMARK    6  A    between atoms: C_11  and  C_19
REMARK    7  A    between atoms: C_11  and  C_20
REMARK    8  A    between atoms: C_12  and  C_22
REMARK    9  A    between atoms: C_22  and  C_23
REMARK   10  A    between atoms: C_25  and  C_28
REMARK   11  A    between atoms: C_27  and  C_29
REMARK   12  A    between atoms: C_29  and  C_30
REMARK   13  A    between atoms: C_30  and  C_33
REMARK   14  A    between atoms: C_33  and  C_37
REMARK   15  A    between atoms: C_37  and  C_38
REMARK                            x       y       z     vdW  Elec       q    Type
REMARK                         _______ _______ _______ _____ _____    ______ ____
ROOT
ATOM      1  S   UNL     1      14.791   7.789   6.307  0.00  0.00    -0.057 S 
ATOM      5  O   UNL     1      12.379   6.352   2.587  0.00  0.00    -0.275 OA
ATOM      6  N   UNL     1      14.855   7.514   3.735  0.00  0.00    -0.229 NA
ATOM      8  N   UNL     1      12.839   6.811   4.855  0.00  0.00    -0.265 N 
ATOM      9  C   UNL     1      18.242   9.356   3.750  0.00  0.00    -0.019 C 
ATOM     10  C   UNL     1      18.624   8.805   5.194  0.00  0.00    +0.011 C 
ATOM     11  C   UNL     1      19.957   9.349   5.838  0.00  0.00    +0.021 C 
ATOM     12  C   UNL     1      17.144   8.378   3.124  0.00  0.00    +0.054 C 
ATOM     13  C   UNL     1      19.497   9.330   2.840  0.00  0.00    +0.010 C 
ATOM     14  C   UNL     1      21.096   9.295   4.781  0.00  0.00    +0.123 C 
ATOM     15  C   UNL     1      17.402   8.839   6.158  0.00  0.00    +0.049 C 
ATOM     16  C   UNL     1      20.727   9.971   3.465  0.00  0.00    +0.032 C 
ATOM     17  C   UNL     1      17.683  10.800   3.786  0.00  0.00    +0.012 C 
ATOM     18  C   UNL     1      16.059   8.069   4.124  0.00  0.00    +0.058 A 
ATOM     20  C   UNL     1      20.371   8.415   7.012  0.00  0.00    +0.016 C 
ATOM     21  C   UNL     1      16.202   8.267   5.481  0.00  0.00    +0.015 A 
ATOM     24  C   UNL     1      14.106   7.330   4.801  0.00  0.00    +0.165 A 
ATOM     27  C   UNL     1      12.061   6.361   3.771  0.00  0.00    +0.219 C 
ATOM     41  H   UNL     1      12.437   6.755   5.787  0.00  0.00    +0.157 HD
ENDROOT
BRANCH  14   2
ATOM      2  O   UNL     1      22.284   9.900   5.290  0.00  0.00    -0.391 OA
ATOM     39  H   UNL     1      22.838   9.194   5.663  0.00  0.00    +0.210 HD
ENDBRANCH  14   2
BRANCH  11  19
ATOM     19  C   UNL     1      19.842  10.761   6.453  0.00  0.00    +0.165 C 
BRANCH  19   3
ATOM      3  O   UNL     1      20.657  10.799   7.603  0.00  0.00    -0.394 OA
ATOM     40  H   UNL     1      20.536   9.956   8.072  0.00  0.00    +0.209 HD
ENDBRANCH  19   3
ENDBRANCH  11  19
BRANCH  12  22
ATOM     22  C   UNL     1      16.558   8.849   1.787  0.00  0.00    +0.106 C 
BRANCH  22  23
ATOM      4  O   UNL     1      17.429   7.005   0.526  0.00  0.00    -0.276 OA
ATOM      7  N   UNL     1      15.206   7.564   0.169  0.00  0.00    -0.300 N 
ATOM     23  C   UNL     1      16.456   7.723   0.777  0.00  0.00    +0.216 C 
ATOM     26  C   UNL     1      14.071   8.424   0.481  0.00  0.00    +0.132 C 
BRANCH   7  25
ATOM     25  C   UNL     1      14.943   6.525  -0.823  0.00  0.00    +0.142 C 
BRANCH  25  28
ATOM     28  C   UNL     1      14.253   5.335  -0.222  0.00  0.00    -0.030 A 
ATOM     31  C   UNL     1      12.997   4.946  -0.689  0.00  0.00    +0.005 A 
ATOM     32  C   UNL     1      14.869   4.617   0.804  0.00  0.00    +0.005 A 
ATOM     34  C   UNL     1      12.357   3.842  -0.130  0.00  0.00    +0.000 A 
ATOM     35  C   UNL     1      14.228   3.511   1.362  0.00  0.00    +0.000 A 
ATOM     36  C   UNL     1      12.972   3.123   0.895  0.00  0.00    +0.000 A 
ENDBRANCH  25  28
ENDBRANCH   7  25
ENDBRANCH  22  23
ENDBRANCH  12  22
BRANCH  27  29
ATOM     29  C   UNL     1      10.705   5.852   4.242  0.00  0.00    +0.096 C 
BRANCH  29  30
ATOM     30  C   UNL     1      10.184   6.608   5.463  0.00  0.00    +0.009 C 
BRANCH  30  33
ATOM     33  C   UNL     1       9.102   5.810   6.191  0.00  0.00    +0.000 C 
BRANCH  33  37
ATOM     37  C   UNL     1       9.554   5.414   7.597  0.00  0.00    -0.003 C 
ATOM     38  C   UNL     1      10.930   5.977   7.918  0.00  0.00    +0.004 C 
ENDBRANCH  33  37
ENDBRANCH  30  33
ENDBRANCH  29  30
ENDBRANCH  27  29
TORSDOF 11
ENDMDL
MODEL 7
REMARK VINA RESULT:      -5.9     22.670     25.321
REMARK  Name = 11885076
REMARK  15 active torsions:
REMARK  status: ('A' for Active; 'I' for Inactive)
REMARK    1  A    between atoms: O_2  and  C_14
REMARK    2  A    between atoms: O_3  and  C_19
REMARK    3  A    between atoms: N_7  and  C_25
REMARK    4  A    between atoms: N_7  and  C_26
REMARK    5  A    between atoms: C_9  and  C_17
REMARK    6  A    between atoms: C_11  and  C_19
REMARK    7  A    between atoms: C_11  and  C_20
REMARK    8  A    between atoms: C_12  and  C_22
REMARK    9  A    between atoms: C_22  and  C_23
REMARK   10  A    between atoms: C_25  and  C_28
REMARK   11  A    between atoms: C_27  and  C_29
REMARK   12  A    between atoms: C_29  and  C_30
REMARK   13  A    between atoms: C_30  and  C_33
REMARK   14  A    between atoms: C_33  and  C_37
REMARK   15  A    between atoms: C_37  and  C_38
REMARK                            x       y       z     vdW  Elec       q    Type
REMARK                         _______ _______ _______ _____ _____    ______ ____
ROOT
ATOM      1  S   UNL     1       7.532  -7.396  35.686  0.00  0.00    -0.057 S 
ATOM      5  O   UNL     1      10.745  -7.153  32.318  0.00  0.00    -0.275 OA
ATOM      6  N   UNL     1       8.426  -8.538  33.543  0.00  0.00    -0.229 NA
ATOM      8  N   UNL     1       9.562  -6.538  34.264  0.00  0.00    -0.265 N 
ATOM      9  C   UNL     1       5.940 -11.413  34.193  0.00  0.00    -0.019 C 
ATOM     10  C   UNL     1       4.883 -10.447  34.888  0.00  0.00    +0.011 C 
ATOM     11  C   UNL     1       3.602 -11.120  35.517  0.00  0.00    +0.021 C 
ATOM     12  C   UNL     1       6.891 -10.520  33.270  0.00  0.00    +0.054 C 
ATOM     13  C   UNL     1       5.194 -12.429  33.291  0.00  0.00    +0.010 C 
ATOM     14  C   UNL     1       3.009 -12.137  34.502  0.00  0.00    +0.123 C 
ATOM     15  C   UNL     1       5.581  -9.424  35.832  0.00  0.00    +0.049 C 
ATOM     16  C   UNL     1       4.037 -13.136  33.982  0.00  0.00    +0.032 C 
ATOM     17  C   UNL     1       6.802 -12.195  35.215  0.00  0.00    +0.012 C 
ATOM     18  C   UNL     1       7.363  -9.292  34.004  0.00  0.00    +0.058 A 
ATOM     20  C   UNL     1       2.523 -10.026  35.760  0.00  0.00    +0.016 C 
ATOM     21  C   UNL     1       6.751  -8.808  35.141  0.00  0.00    +0.015 A 
ATOM     24  C   UNL     1       8.610  -7.519  34.355  0.00  0.00    +0.165 A 
ATOM     27  C   UNL     1      10.555  -6.410  33.274  0.00  0.00    +0.219 C 
ATOM     41  H   UNL     1       9.529  -5.839  35.001  0.00  0.00    +0.157 HD
ENDROOT
BRANCH  14   2
ATOM      2  O   UNL     1       1.926 -12.859  35.088  0.00  0.00    -0.391 OA
ATOM     39  H   UNL     1       1.387 -13.220  34.364  0.00  0.00    +0.210 HD
ENDBRANCH  14   2
BRANCH  11  19
ATOM     19  C   UNL     1       3.837 -11.784  36.892  0.00  0.00    +0.165 C 
BRANCH  19   3
ATOM      3  O   UNL     1       2.632 -11.705  37.620  0.00  0.00    -0.394 OA
ATOM     40  H   UNL     1       1.910 -11.927  37.010  0.00  0.00    +0.209 HD
ENDBRANCH  19   3
ENDBRANCH  11  19
BRANCH  12  22
ATOM     22  C   UNL     1       8.063 -11.282  32.637  0.00  0.00    +0.106 C 
BRANCH  22  23
ATOM      4  O   UNL     1       7.521 -10.552  30.418  0.00  0.00    -0.276 OA
ATOM      7  N   UNL     1       8.134 -12.775  30.672  0.00  0.00    -0.300 N 
ATOM     23  C   UNL     1       7.877 -11.484  31.146  0.00  0.00    +0.216 C 
ATOM     26  C   UNL     1       8.554 -13.860  31.549  0.00  0.00    +0.132 C 
BRANCH   7  25
ATOM     25  C   UNL     1       8.003 -13.133  29.261  0.00  0.00    +0.142 C 
BRANCH  25  28
ATOM     28  C   UNL     1       6.704 -13.829  28.976  0.00  0.00    -0.030 A 
ATOM     31  C   UNL     1       5.544 -13.447  29.650  0.00  0.00    +0.005 A 
ATOM     32  C   UNL     1       6.656 -14.859  28.036  0.00  0.00    +0.005 A 
ATOM     34  C   UNL     1       4.338 -14.093  29.386  0.00  0.00    +0.000 A 
ATOM     35  C   UNL     1       5.449 -15.506  27.771  0.00  0.00    +0.000 A 
ATOM     36  C   UNL     1       4.290 -15.122  28.446  0.00  0.00    +0.000 A 
ENDBRANCH  25  28
ENDBRANCH   7  25
ENDBRANCH  22  23
ENDBRANCH  12  22
BRANCH  27  29
ATOM     29  C   UNL     1      11.422  -5.182  33.521  0.00  0.00    +0.096 C 
BRANCH  29  30
ATOM     30  C   UNL     1      11.982  -4.586  32.231  0.00  0.00    +0.009 C 
BRANCH  30  33
ATOM     33  C   UNL     1      13.510  -4.622  32.219  0.00  0.00    +0.000 C 
BRANCH  33  37
ATOM     37  C   UNL     1      14.031  -5.977  31.737  0.00  0.00    -0.003 C 
ATOM     38  C   UNL     1      13.568  -6.278  30.320  0.00  0.00    +0.004 C 
ENDBRANCH  33  37
ENDBRANCH  30  33
ENDBRANCH  29  30
ENDBRANCH  27  29
TORSDOF 11
ENDMDL
MODEL 8
REMARK VINA RESULT:      -5.7     23.350     25.986
REMARK  Name = 11885076
REMARK  15 active torsions:
REMARK  status: ('A' for Active; 'I' for Inactive)
REMARK    1  A    between atoms: O_2  and  C_14
REMARK    2  A    between atoms: O_3  and  C_19
REMARK    3  A    between atoms: N_7  and  C_25
REMARK    4  A    between atoms: N_7  and  C_26
REMARK    5  A    between atoms: C_9  and  C_17
REMARK    6  A    between atoms: C_11  and  C_19
REMARK    7  A    between atoms: C_11  and  C_20
REMARK    8  A    between atoms: C_12  and  C_22
REMARK    9  A    between atoms: C_22  and  C_23
REMARK   10  A    between atoms: C_25  and  C_28
REMARK   11  A    between atoms: C_27  and  C_29
REMARK   12  A    between atoms: C_29  and  C_30
REMARK   13  A    between atoms: C_30  and  C_33
REMARK   14  A    between atoms: C_33  and  C_37
REMARK   15  A    between atoms: C_37  and  C_38
REMARK                            x       y       z     vdW  Elec       q    Type
REMARK                         _______ _______ _______ _____ _____    ______ ____
ROOT
ATOM      1  S   UNL     1       6.384  -7.457  36.630  0.00  0.00    -0.057 S 
ATOM      5  O   UNL     1       9.639  -6.207  33.536  0.00  0.00    -0.275 OA
ATOM      6  N   UNL     1       7.543  -8.115  34.412  0.00  0.00    -0.229 NA
ATOM      8  N   UNL     1       8.292  -6.083  35.470  0.00  0.00    -0.265 N 
ATOM      9  C   UNL     1       5.560 -11.420  34.505  0.00  0.00    -0.019 C 
ATOM     10  C   UNL     1       4.327 -10.751  35.257  0.00  0.00    +0.011 C 
ATOM     11  C   UNL     1       3.156 -11.708  35.705  0.00  0.00    +0.021 C 
ATOM     12  C   UNL     1       6.380 -10.260  33.774  0.00  0.00    +0.054 C 
ATOM     13  C   UNL     1       5.034 -12.402  33.426  0.00  0.00    +0.010 C 
ATOM     14  C   UNL     1       2.785 -12.650  34.526  0.00  0.00    +0.123 C 
ATOM     15  C   UNL     1       4.803  -9.776  36.374  0.00  0.00    +0.049 C 
ATOM     16  C   UNL     1       3.988 -13.381  33.940  0.00  0.00    +0.032 C 
ATOM     17  C   UNL     1       6.502 -12.191  35.463  0.00  0.00    +0.012 C 
ATOM     18  C   UNL     1       6.607  -9.091  34.697  0.00  0.00    +0.058 A 
ATOM     20  C   UNL     1       1.897 -10.852  36.027  0.00  0.00    +0.016 C 
ATOM     21  C   UNL     1       5.876  -8.883  35.849  0.00  0.00    +0.015 A 
ATOM     24  C   UNL     1       7.519  -7.208  35.365  0.00  0.00    +0.165 A 
ATOM     27  C   UNL     1       9.287  -5.652  34.571  0.00  0.00    +0.219 C 
ATOM     41  H   UNL     1       8.111  -5.512  36.292  0.00  0.00    +0.157 HD
ENDROOT
BRANCH  14   2
ATOM      2  O   UNL     1       1.818 -13.616  34.938  0.00  0.00    -0.391 OA
ATOM     39  H   UNL     1       1.118 -13.639  34.264  0.00  0.00    +0.210 HD
ENDBRANCH  14   2
BRANCH  11  19
ATOM     19  C   UNL     1       3.445 -12.517  36.989  0.00  0.00    +0.165 C 
BRANCH  19   3
ATOM      3  O   UNL     1       2.278 -12.506  37.779  0.00  0.00    -0.394 OA
ATOM     40  H   UNL     1       2.304 -13.295  38.345  0.00  0.00    +0.209 HD
ENDBRANCH  19   3
ENDBRANCH  11  19
BRANCH  12  22
ATOM     22  C   UNL     1       7.689 -10.720  33.118  0.00  0.00    +0.106 C 
BRANCH  22  23
ATOM      4  O   UNL     1       7.163  -9.890  30.931  0.00  0.00    -0.276 OA
ATOM      7  N   UNL     1       7.933 -12.073  31.067  0.00  0.00    -0.300 N 
ATOM     23  C   UNL     1       7.565 -10.838  31.612  0.00  0.00    +0.216 C 
ATOM     26  C   UNL     1       8.406 -13.180  31.890  0.00  0.00    +0.132 C 
BRANCH   7  25
ATOM     25  C   UNL     1       7.873 -12.347  29.634  0.00  0.00    +0.142 C 
BRANCH  25  28
ATOM     28  C   UNL     1       6.750 -13.282  29.286  0.00  0.00    -0.030 A 
ATOM     31  C   UNL     1       5.502 -13.128  29.891  0.00  0.00    +0.005 A 
ATOM     32  C   UNL     1       6.955 -14.302  28.358  0.00  0.00    +0.005 A 
ATOM     34  C   UNL     1       4.460 -13.995  29.568  0.00  0.00    +0.000 A 
ATOM     35  C   UNL     1       5.911 -15.170  28.035  0.00  0.00    +0.000 A 
ATOM     36  C   UNL     1       4.664 -15.016  28.640  0.00  0.00    +0.000 A 
ENDBRANCH  25  28
ENDBRANCH   7  25
ENDBRANCH  22  23
ENDBRANCH  12  22
BRANCH  27  29
ATOM     29  C   UNL     1       9.921  -4.348  35.038  0.00  0.00    +0.096 C 
BRANCH  29  30
ATOM     30  C   UNL     1      10.495  -4.445  36.451  0.00  0.00    +0.009 C 
BRANCH  30  33
ATOM     33  C   UNL     1       9.934  -3.347  37.355  0.00  0.00    +0.000 C 
BRANCH  33  37
ATOM     37  C   UNL     1       8.839  -3.889  38.274  0.00  0.00    -0.003 C 
ATOM     38  C   UNL     1       7.474  -3.334  37.899  0.00  0.00    +0.004 C 
ENDBRANCH  33  37
ENDBRANCH  30  33
ENDBRANCH  29  30
ENDBRANCH  27  29
TORSDOF 11
ENDMDL
MODEL 9
REMARK VINA RESULT:      -5.6     27.962     31.917
REMARK  Name = 11885076
REMARK  15 active torsions:
REMARK  status: ('A' for Active; 'I' for Inactive)
REMARK    1  A    between atoms: O_2  and  C_14
REMARK    2  A    between atoms: O_3  and  C_19
REMARK    3  A    between atoms: N_7  and  C_25
REMARK    4  A    between atoms: N_7  and  C_26
REMARK    5  A    between atoms: C_9  and  C_17
REMARK    6  A    between atoms: C_11  and  C_19
REMARK    7  A    between atoms: C_11  and  C_20
REMARK    8  A    between atoms: C_12  and  C_22
REMARK    9  A    between atoms: C_22  and  C_23
REMARK   10  A    between atoms: C_25  and  C_28
REMARK   11  A    between atoms: C_27  and  C_29
REMARK   12  A    between atoms: C_29  and  C_30
REMARK   13  A    between atoms: C_30  and  C_33
REMARK   14  A    between atoms: C_33  and  C_37
REMARK   15  A    between atoms: C_37  and  C_38
REMARK                            x       y       z     vdW  Elec       q    Type
REMARK                         _______ _______ _______ _____ _____    ______ ____
ROOT
ATOM      1  S   UNL     1      -6.076 -10.023  10.380  0.00  0.00    -0.057 S 
ATOM      5  O   UNL     1     -10.485  -8.767  11.221  0.00  0.00    -0.275 OA
ATOM      6  N   UNL     1      -7.836  -9.633  12.236  0.00  0.00    -0.229 NA
ATOM      8  N   UNL     1      -8.549  -9.257   9.964  0.00  0.00    -0.265 N 
ATOM      9  C   UNL     1      -5.275 -11.000  14.774  0.00  0.00    -0.019 C 
ATOM     10  C   UNL     1      -4.035 -10.465  13.930  0.00  0.00    +0.011 C 
ATOM     11  C   UNL     1      -2.596 -10.852  14.448  0.00  0.00    +0.021 C 
ATOM     12  C   UNL     1      -6.562 -10.153  14.350  0.00  0.00    +0.054 C 
ATOM     13  C   UNL     1      -5.010 -10.766  16.283  0.00  0.00    +0.010 C 
ATOM     14  C   UNL     1      -2.519 -10.599  15.980  0.00  0.00    +0.123 C 
ATOM     15  C   UNL     1      -4.239 -10.705  12.406  0.00  0.00    +0.049 C 
ATOM     16  C   UNL     1      -3.652 -11.263  16.756  0.00  0.00    +0.032 C 
ATOM     17  C   UNL     1      -5.552 -12.507  14.545  0.00  0.00    +0.012 C 
ATOM     18  C   UNL     1      -6.666 -10.037  12.851  0.00  0.00    +0.058 A 
ATOM     20  C   UNL     1      -1.548  -9.922  13.773  0.00  0.00    +0.016 C 
ATOM     21  C   UNL     1      -5.607 -10.272  11.999  0.00  0.00    +0.015 A 
ATOM     24  C   UNL     1      -7.644  -9.597  10.935  0.00  0.00    +0.165 A 
ATOM     27  C   UNL     1      -9.889  -8.869  10.154  0.00  0.00    +0.219 C 
ATOM     41  H   UNL     1      -8.193  -9.295   9.013  0.00  0.00    +0.157 HD
ENDROOT
BRANCH  14   2
ATOM      2  O   UNL     1      -1.273 -11.060  16.504  0.00  0.00    -0.391 OA
ATOM     39  H   UNL     1      -1.392 -11.987  16.774  0.00  0.00    +0.210 HD
ENDBRANCH  14   2
BRANCH  11  19
ATOM     19  C   UNL     1      -2.156 -12.292  14.103  0.00  0.00    +0.165 C 
BRANCH  19   3
ATOM      3  O   UNL     1      -1.284 -12.223  12.998  0.00  0.00    -0.394 OA
ATOM     40  H   UNL     1      -1.830 -12.076  12.207  0.00  0.00    +0.209 HD
ENDBRANCH  19   3
ENDBRANCH  11  19
BRANCH  12  22
ATOM     22  C   UNL     1      -7.879 -10.642  14.968  0.00  0.00    +0.106 C 
BRANCH  22  23
ATOM      4  O   UNL     1      -7.978  -8.799  16.499  0.00  0.00    -0.276 OA
ATOM      7  N   UNL     1      -8.589 -10.880  17.320  0.00  0.00    -0.300 N 
ATOM     23  C   UNL     1      -8.147 -10.009  16.319  0.00  0.00    +0.216 C 
ATOM     26  C   UNL     1      -8.782 -12.306  17.085  0.00  0.00    +0.132 C 
BRANCH   7  25
ATOM     25  C   UNL     1      -8.893 -10.428  18.676  0.00  0.00    +0.142 C 
BRANCH  25  28
ATOM     28  C   UNL     1     -10.358 -10.152  18.861  0.00  0.00    -0.030 A 
ATOM     31  C   UNL     1     -10.967 -10.411  20.089  0.00  0.00    +0.005 A 
ATOM     32  C   UNL     1     -11.109  -9.634  17.805  0.00  0.00    +0.005 A 
ATOM     34  C   UNL     1     -12.326 -10.155  20.261  0.00  0.00    +0.000 A 
ATOM     35  C   UNL     1     -12.469  -9.377  17.978  0.00  0.00    +0.000 A 
ATOM     36  C   UNL     1     -13.078  -9.638  19.206  0.00  0.00    +0.000 A 
ENDBRANCH  25  28
ENDBRANCH   7  25
ENDBRANCH  22  23
ENDBRANCH  12  22
BRANCH  27  29
ATOM     29  C   UNL     1     -10.567  -8.568   8.824  0.00  0.00    +0.096 C 
BRANCH  29  30
ATOM     30  C   UNL     1     -11.481  -7.347   8.891  0.00  0.00    +0.009 C 
BRANCH  30  33
ATOM     33  C   UNL     1     -10.676  -6.047   8.868  0.00  0.00    +0.000 C 
BRANCH  33  37
ATOM     37  C   UNL     1     -11.595  -4.824   8.872  0.00  0.00    -0.003 C 
ATOM     38  C   UNL     1     -10.830  -3.555   9.211  0.00  0.00    +0.004 C 
ENDBRANCH  33  37
ENDBRANCH  30  33
ENDBRANCH  29  30
ENDBRANCH  27  29
TORSDOF 11
ENDMDL
MODEL 10
REMARK VINA RESULT:      -5.6     16.508     20.695
REMARK  Name = 11885076
REMARK  15 active torsions:
REMARK  status: ('A' for Active; 'I' for Inactive)
REMARK    1  A    between atoms: O_2  and  C_14
REMARK    2  A    between atoms: O_3  and  C_19
REMARK    3  A    between atoms: N_7  and  C_25
REMARK    4  A    between atoms: N_7  and  C_26
REMARK    5  A    between atoms: C_9  and  C_17
REMARK    6  A    between atoms: C_11  and  C_19
REMARK    7  A    between atoms: C_11  and  C_20
REMARK    8  A    between atoms: C_12  and  C_22
REMARK    9  A    between atoms: C_22  and  C_23
REMARK   10  A    between atoms: C_25  and  C_28
REMARK   11  A    between atoms: C_27  and  C_29
REMARK   12  A    between atoms: C_29  and  C_30
REMARK   13  A    between atoms: C_30  and  C_33
REMARK   14  A    between atoms: C_33  and  C_37
REMARK   15  A    between atoms: C_37  and  C_38
REMARK                            x       y       z     vdW  Elec       q    Type
REMARK                         _______ _______ _______ _____ _____    ______ ____
ROOT
ATOM      1  S   UNL     1      15.021   8.491   6.234  0.00  0.00    -0.057 S 
ATOM      5  O   UNL     1      11.153   6.080   5.261  0.00  0.00    -0.275 OA
ATOM      6  N   UNL     1      13.793   7.129   4.409  0.00  0.00    -0.229 NA
ATOM      8  N   UNL     1      12.666   7.375   6.526  0.00  0.00    -0.265 N 
ATOM      9  C   UNL     1      16.604   8.116   1.962  0.00  0.00    -0.019 C 
ATOM     10  C   UNL     1      17.697   8.179   3.118  0.00  0.00    +0.011 C 
ATOM     11  C   UNL     1      19.136   8.683   2.717  0.00  0.00    +0.021 C 
ATOM     12  C   UNL     1      15.402   7.192   2.469  0.00  0.00    +0.054 C 
ATOM     13  C   UNL     1      17.226   7.462   0.701  0.00  0.00    +0.010 C 
ATOM     14  C   UNL     1      19.586   7.963   1.414  0.00  0.00    +0.123 C 
ATOM     15  C   UNL     1      17.129   8.857   4.400  0.00  0.00    +0.049 C 
ATOM     16  C   UNL     1      18.562   8.063   0.289  0.00  0.00    +0.032 C 
ATOM     17  C   UNL     1      16.053   9.511   1.578  0.00  0.00    +0.012 C 
ATOM     18  C   UNL     1      14.992   7.557   3.872  0.00  0.00    +0.058 A 
ATOM     20  C   UNL     1      20.142   8.286   3.835  0.00  0.00    +0.016 C 
ATOM     21  C   UNL     1      15.789   8.289   4.727  0.00  0.00    +0.015 A 
ATOM     24  C   UNL     1      13.698   7.568   5.646  0.00  0.00    +0.165 A 
ATOM     27  C   UNL     1      11.477   6.658   6.293  0.00  0.00    +0.219 C 
ATOM     41  H   UNL     1      12.795   7.804   7.439  0.00  0.00    +0.157 HD
ENDROOT
BRANCH  14   2
ATOM      2  O   UNL     1      20.829   8.490   0.951  0.00  0.00    -0.391 OA
ATOM     39  H   UNL     1      21.511   7.814   1.104  0.00  0.00    +0.210 HD
ENDBRANCH  14   2
BRANCH  11  19
ATOM     19  C   UNL     1      19.261  10.216   2.571  0.00  0.00    +0.165 C 
BRANCH  19   3
ATOM      3  O   UNL     1      20.540  10.590   3.032  0.00  0.00    -0.394 OA
ATOM     40  H   UNL     1      20.928  11.177   2.362  0.00  0.00    +0.209 HD
ENDBRANCH  19   3
ENDBRANCH  11  19
BRANCH  12  22
ATOM     22  C   UNL     1      14.194   7.143   1.525  0.00  0.00    +0.106 C 
BRANCH  22  23
ATOM      4  O   UNL     1      14.423   4.758   1.415  0.00  0.00    -0.276 OA
ATOM      7  N   UNL     1      12.298   5.625   1.083  0.00  0.00    -0.300 N 
ATOM     23  C   UNL     1      13.668   5.733   1.339  0.00  0.00    +0.216 C 
ATOM     26  C   UNL     1      11.425   6.789   0.998  0.00  0.00    +0.132 C 
BRANCH   7  25
ATOM     25  C   UNL     1      11.636   4.338   0.883  0.00  0.00    +0.142 C 
BRANCH  25  28
ATOM     28  C   UNL     1      11.598   3.945  -0.566  0.00  0.00    -0.030 A 
ATOM     31  C   UNL     1      12.590   3.117  -1.091  0.00  0.00    +0.005 A 
ATOM     32  C   UNL     1      10.569   4.407  -1.387  0.00  0.00    +0.005 A 
ATOM     34  C   UNL     1      12.554   2.752  -2.436  0.00  0.00    +0.000 A 
ATOM     35  C   UNL     1      10.532   4.042  -2.733  0.00  0.00    +0.000 A 
ATOM     36  C   UNL     1      11.526   3.214  -3.257  0.00  0.00    +0.000 A 
ENDBRANCH  25  28
ENDBRANCH   7  25
ENDBRANCH  22  23
ENDBRANCH  12  22
BRANCH  27  29
ATOM     29  C   UNL     1      10.579   6.670   7.523  0.00  0.00    +0.096 C 
BRANCH  29  30
ATOM     30  C   UNL     1       9.468   5.624   7.452  0.00  0.00    +0.009 C 
BRANCH  30  33
ATOM     33  C   UNL     1       9.830   4.373   8.252  0.00  0.00    +0.000 C 
BRANCH  33  37
ATOM     37  C   UNL     1       9.937   4.680   9.746  0.00  0.00    -0.003 C 
ATOM     38  C   UNL     1       8.569   4.713  10.407  0.00  0.00    +0.004 C 
ENDBRANCH  33  37
ENDBRANCH  30  33
ENDBRANCH  29  30
ENDBRANCH  27  29
TORSDOF 11
ENDMDL
