MODEL 1
REMARK VINA RESULT:      -7.2      0.000      0.000
REMARK  Name = 38028891
REMARK  11 active torsions:
REMARK  status: ('A' for Active; 'I' for Inactive)
REMARK    1  A    between atoms: S_1  and  N_5
REMARK    2  A    between atoms: S_1  and  C_26
REMARK    3  A    between atoms: N_5  and  C_16
REMARK    4  A    between atoms: C_9  and  C_13
REMARK    5  A    between atoms: C_10  and  C_16
REMARK    6  A    between atoms: C_12  and  C_17
REMARK    7  A    between atoms: C_13  and  C_18
REMARK    8  A    between atoms: C_13  and  C_19
REMARK    9  A    between atoms: C_14  and  C_20
REMARK   10  A    between atoms: C_17  and  C_21
REMARK   11  A    between atoms: C_26  and  C_28
REMARK                            x       y       z     vdW  Elec       q    Type
REMARK                         _______ _______ _______ _____ _____    ______ ____
ROOT
ATOM      9  C   UNL     1      15.955   9.108  21.658  0.00  0.00    +0.000 C 
ATOM     10  C   UNL     1      15.103   8.016  20.965  0.00  0.00    +0.030 C 
ATOM     11  C   UNL     1      17.219   9.405  20.836  0.00  0.00    +0.012 C 
ATOM     12  C   UNL     1      18.094   8.153  20.641  0.00  0.00    +0.023 C 
ATOM     14  C   UNL     1      17.274   6.953  20.212  0.00  0.00    -0.073 C 
ATOM     15  C   UNL     1      15.937   6.916  20.352  0.00  0.00    -0.023 C 
ATOM     20  C   UNL     1      18.022   5.815  19.575  0.00  0.00    +0.039 C 
ENDROOT
BRANCH   9  13
ATOM     13  C   UNL     1      15.160  10.399  21.872  0.00  0.00    -0.013 C 
ATOM     18  C   UNL     1      15.035  10.708  23.360  0.00  0.00    +0.007 C 
ATOM     19  C   UNL     1      15.820  11.559  21.133  0.00  0.00    +0.007 C 
ENDBRANCH   9  13
BRANCH  10  16
ATOM     16  C   UNL     1      14.087   7.406  21.937  0.00  0.00    +0.113 C 
BRANCH  16   5
ATOM      5  N   UNL     1      12.823   7.164  21.223  0.00  0.00    -0.194 NA
ATOM     38  H   UNL     1      12.948   6.903  20.236  0.00  0.00    +0.148 HD
BRANCH   5   1
ATOM      1  S   UNL     1      11.473   8.156  21.558  0.00  0.00    +0.033 S 
ATOM      3  O   UNL     1      11.913   9.398  22.160  0.00  0.00    -0.158 OA
ATOM      4  O   UNL     1      10.452   7.345  22.193  0.00  0.00    -0.158 OA
BRANCH   1  26
ATOM     26  C   UNL     1      10.915   8.515  19.908  0.00  0.00    +0.220 C 
BRANCH  26  28
ATOM     28  C   UNL     1      12.126   8.734  19.055  0.00  0.00    -0.025 A 
ATOM     30  C   UNL     1      12.772   9.971  19.065  0.00  0.00    +0.005 A 
ATOM     31  C   UNL     1      12.608   7.703  18.249  0.00  0.00    +0.005 A 
ATOM     34  C   UNL     1      13.900  10.175  18.270  0.00  0.00    +0.000 A 
ATOM     35  C   UNL     1      13.736   7.907  17.454  0.00  0.00    +0.000 A 
ATOM     37  C   UNL     1      14.382   9.145  17.465  0.00  0.00    +0.000 A 
ENDBRANCH  26  28
ENDBRANCH   1  26
ENDBRANCH   5   1
ENDBRANCH  16   5
ENDBRANCH  10  16
BRANCH  12  17
ATOM     17  C   UNL     1      18.902   7.841  21.906  0.00  0.00    +0.103 C 
BRANCH  17  21
ATOM      2  O   UNL     1      20.835   9.139  21.441  0.00  0.00    -0.276 OA
ATOM      6  N   UNL     1      21.135   6.840  21.600  0.00  0.00    -0.298 N 
ATOM      7  N   UNL     1      22.841   4.505  21.729  0.00  0.00    -0.312 N 
ATOM      8  N   UNL     1      23.446   2.345  20.990  0.00  0.00    -0.240 NA
ATOM     21  C   UNL     1      20.375   8.010  21.629  0.00  0.00    +0.216 C 
ATOM     22  C   UNL     1      22.569   6.920  21.332  0.00  0.00    +0.126 C 
ATOM     23  C   UNL     1      20.590   5.501  21.834  0.00  0.00    +0.126 C 
ATOM     24  C   UNL     1      23.349   5.836  22.074  0.00  0.00    +0.125 C 
ATOM     25  C   UNL     1      21.464   4.395  21.243  0.00  0.00    +0.125 C 
ATOM     27  C   UNL     1      23.661   3.384  21.828  0.00  0.00    +0.121 A 
ATOM     29  C   UNL     1      24.656   3.409  22.794  0.00  0.00    +0.043 A 
ATOM     32  C   UNL     1      25.483   2.296  22.905  0.00  0.00    +0.005 A 
ATOM     33  C   UNL     1      24.270   1.282  21.129  0.00  0.00    +0.113 A 
ATOM     36  C   UNL     1      25.292   1.209  22.061  0.00  0.00    +0.020 A 
ENDBRANCH  17  21
ENDBRANCH  12  17
TORSDOF 8
ENDMDL
MODEL 2
REMARK VINA RESULT:      -6.6      1.918      3.556
REMARK  Name = 38028891
REMARK  11 active torsions:
REMARK  status: ('A' for Active; 'I' for Inactive)
REMARK    1  A    between atoms: S_1  and  N_5
REMARK    2  A    between atoms: S_1  and  C_26
REMARK    3  A    between atoms: N_5  and  C_16
REMARK    4  A    between atoms: C_9  and  C_13
REMARK    5  A    between atoms: C_10  and  C_16
REMARK    6  A    between atoms: C_12  and  C_17
REMARK    7  A    between atoms: C_13  and  C_18
REMARK    8  A    between atoms: C_13  and  C_19
REMARK    9  A    between atoms: C_14  and  C_20
REMARK   10  A    between atoms: C_17  and  C_21
REMARK   11  A    between atoms: C_26  and  C_28
REMARK                            x       y       z     vdW  Elec       q    Type
REMARK                         _______ _______ _______ _____ _____    ______ ____
ROOT
ATOM      9  C   UNL     1      13.559  11.793  22.578  0.00  0.00    +0.000 C 
ATOM     10  C   UNL     1      12.557  11.702  21.400  0.00  0.00    +0.030 C 
ATOM     11  C   UNL     1      14.895  12.383  22.102  0.00  0.00    +0.012 C 
ATOM     12  C   UNL     1      15.535  11.544  20.980  0.00  0.00    +0.023 C 
ATOM     14  C   UNL     1      14.531  11.184  19.902  0.00  0.00    -0.073 C 
ATOM     15  C   UNL     1      13.205  11.273  20.105  0.00  0.00    -0.023 C 
ATOM     20  C   UNL     1      15.089  10.762  18.572  0.00  0.00    +0.039 C 
ENDROOT
BRANCH   9  13
ATOM     13  C   UNL     1      13.004  12.632  23.733  0.00  0.00    -0.013 C 
ATOM     18  C   UNL     1      12.823  11.770  24.978  0.00  0.00    +0.007 C 
ATOM     19  C   UNL     1      13.924  13.814  24.022  0.00  0.00    +0.007 C 
ENDBRANCH   9  13
BRANCH  10  16
ATOM     16  C   UNL     1      11.399  10.753  21.730  0.00  0.00    +0.113 C 
BRANCH  16   5
ATOM      5  N   UNL     1      11.921   9.381  21.844  0.00  0.00    -0.194 NA
ATOM     38  H   UNL     1      12.921   9.297  21.619  0.00  0.00    +0.148 HD
BRANCH   5   1
ATOM      1  S   UNL     1      10.941   8.072  21.348  0.00  0.00    +0.033 S 
ATOM      3  O   UNL     1      10.468   8.298  19.997  0.00  0.00    -0.158 OA
ATOM      4  O   UNL     1      10.011   7.761  22.416  0.00  0.00    -0.158 OA
BRANCH   1  26
ATOM     26  C   UNL     1      12.146   6.765  21.295  0.00  0.00    +0.220 C 
BRANCH  26  28
ATOM     28  C   UNL     1      13.030   7.008  20.111  0.00  0.00    -0.025 A 
ATOM     30  C   UNL     1      12.470   7.338  18.878  0.00  0.00    +0.005 A 
ATOM     31  C   UNL     1      14.415   6.902  20.243  0.00  0.00    +0.005 A 
ATOM     34  C   UNL     1      13.294   7.564  17.775  0.00  0.00    +0.000 A 
ATOM     35  C   UNL     1      15.239   7.128  19.140  0.00  0.00    +0.000 A 
ATOM     37  C   UNL     1      14.678   7.459  17.905  0.00  0.00    +0.000 A 
ENDBRANCH  26  28
ENDBRANCH   1  26
ENDBRANCH   5   1
ENDBRANCH  16   5
ENDBRANCH  10  16
BRANCH  12  17
ATOM     17  C   UNL     1      16.208  10.288  21.545  0.00  0.00    +0.103 C 
BRANCH  17  21
ATOM      2  O   UNL     1      18.204  11.572  21.471  0.00  0.00    -0.276 OA
ATOM      6  N   UNL     1      18.450   9.262  21.480  0.00  0.00    -0.298 N 
ATOM      7  N   UNL     1      20.091   6.884  21.659  0.00  0.00    -0.312 N 
ATOM      8  N   UNL     1      20.771   4.777  20.838  0.00  0.00    -0.240 NA
ATOM     21  C   UNL     1      17.708  10.443  21.497  0.00  0.00    +0.216 C 
ATOM     22  C   UNL     1      19.908   9.329  21.429  0.00  0.00    +0.126 C 
ATOM     23  C   UNL     1      17.860   7.922  21.521  0.00  0.00    +0.126 C 
ATOM     24  C   UNL     1      20.559   8.170  22.182  0.00  0.00    +0.125 C 
ATOM     25  C   UNL     1      18.797   6.846  20.972  0.00  0.00    +0.125 C 
ATOM     27  C   UNL     1      20.874   5.739  21.781  0.00  0.00    +0.121 A 
ATOM     29  C   UNL     1      21.718   5.662  22.879  0.00  0.00    +0.043 A 
ATOM     32  C   UNL     1      22.507   4.525  23.015  0.00  0.00    +0.005 A 
ATOM     33  C   UNL     1      21.553   3.686  21.004  0.00  0.00    +0.113 A 
ATOM     36  C   UNL     1      22.428   3.514  22.065  0.00  0.00    +0.020 A 
ENDBRANCH  17  21
ENDBRANCH  12  17
TORSDOF 8
ENDMDL
MODEL 3
REMARK VINA RESULT:      -6.5     28.230     31.994
REMARK  Name = 38028891
REMARK  11 active torsions:
REMARK  status: ('A' for Active; 'I' for Inactive)
REMARK    1  A    between atoms: S_1  and  N_5
REMARK    2  A    between atoms: S_1  and  C_26
REMARK    3  A    between atoms: N_5  and  C_16
REMARK    4  A    between atoms: C_9  and  C_13
REMARK    5  A    between atoms: C_10  and  C_16
REMARK    6  A    between atoms: C_12  and  C_17
REMARK    7  A    between atoms: C_13  and  C_18
REMARK    8  A    between atoms: C_13  and  C_19
REMARK    9  A    between atoms: C_14  and  C_20
REMARK   10  A    between atoms: C_17  and  C_21
REMARK   11  A    between atoms: C_26  and  C_28
REMARK                            x       y       z     vdW  Elec       q    Type
REMARK                         _______ _______ _______ _____ _____    ______ ____
ROOT
ATOM      9  C   UNL     1      -2.740 -13.057  13.300  0.00  0.00    +0.000 C 
ATOM     10  C   UNL     1      -1.844 -11.821  13.560  0.00  0.00    +0.030 C 
ATOM     11  C   UNL     1      -2.846 -13.336  11.792  0.00  0.00    +0.012 C 
ATOM     12  C   UNL     1      -3.428 -12.138  11.018  0.00  0.00    +0.023 C 
ATOM     14  C   UNL     1      -2.771 -10.833  11.421  0.00  0.00    -0.073 C 
ATOM     15  C   UNL     1      -2.056 -10.715  12.554  0.00  0.00    -0.023 C 
ATOM     20  C   UNL     1      -2.917  -9.680  10.468  0.00  0.00    +0.039 C 
ENDROOT
BRANCH   9  13
ATOM     13  C   UNL     1      -2.216 -14.302  14.022  0.00  0.00    -0.013 C 
ATOM     18  C   UNL     1      -3.358 -15.029  14.726  0.00  0.00    +0.007 C 
ATOM     19  C   UNL     1      -1.510 -15.230  13.038  0.00  0.00    +0.007 C 
ENDBRANCH   9  13
BRANCH  10  16
ATOM     16  C   UNL     1      -2.055 -11.272  14.975  0.00  0.00    +0.113 C 
BRANCH  16   5
ATOM      5  N   UNL     1      -3.146 -10.284  14.949  0.00  0.00    -0.194 NA
ATOM     38  H   UNL     1      -2.843  -9.326  15.168  0.00  0.00    +0.148 HD
BRANCH   5   1
ATOM      1  S   UNL     1      -4.685 -10.725  15.546  0.00  0.00    +0.033 S 
ATOM      3  O   UNL     1      -5.460 -11.351  14.494  0.00  0.00    -0.158 OA
ATOM      4  O   UNL     1      -5.224  -9.609  16.300  0.00  0.00    -0.158 OA
BRANCH   1  26
ATOM     26  C   UNL     1      -4.232 -11.985  16.716  0.00  0.00    +0.220 C 
BRANCH  26  28
ATOM     28  C   UNL     1      -5.281 -12.016  17.784  0.00  0.00    -0.025 A 
ATOM     30  C   UNL     1      -5.054 -11.376  19.002  0.00  0.00    +0.005 A 
ATOM     31  C   UNL     1      -6.484 -12.684  17.561  0.00  0.00    +0.005 A 
ATOM     34  C   UNL     1      -6.031 -11.403  19.998  0.00  0.00    +0.000 A 
ATOM     35  C   UNL     1      -7.461 -12.712  18.557  0.00  0.00    +0.000 A 
ATOM     37  C   UNL     1      -7.234 -12.072  19.776  0.00  0.00    +0.000 A 
ENDBRANCH  26  28
ENDBRANCH   1  26
ENDBRANCH   5   1
ENDBRANCH  16   5
ENDBRANCH  10  16
BRANCH  12  17
ATOM     17  C   UNL     1      -4.950 -12.060  11.184  0.00  0.00    +0.103 C 
BRANCH  17  21
ATOM      2  O   UNL     1      -5.441 -13.014   9.066  0.00  0.00    -0.276 OA
ATOM      6  N   UNL     1      -6.400 -10.948   9.528  0.00  0.00    -0.298 N 
ATOM      7  N   UNL     1      -8.222  -8.793   8.882  0.00  0.00    -0.312 N 
ATOM      8  N   UNL     1      -8.675  -6.498   8.563  0.00  0.00    -0.240 NA
ATOM     21  C   UNL     1      -5.615 -12.062   9.830  0.00  0.00    +0.216 C 
ATOM     22  C   UNL     1      -7.073 -10.872   8.233  0.00  0.00    +0.126 C 
ATOM     23  C   UNL     1      -6.615  -9.823  10.440  0.00  0.00    +0.126 C 
ATOM     24  C   UNL     1      -8.409 -10.137   8.327  0.00  0.00    +0.125 C 
ATOM     25  C   UNL     1      -7.043  -8.547   9.716  0.00  0.00    +0.125 C 
ATOM     27  C   UNL     1      -9.124  -7.773   8.592  0.00  0.00    +0.121 A 
ATOM     29  C   UNL     1     -10.439  -8.139   8.351  0.00  0.00    +0.043 A 
ATOM     32  C   UNL     1     -11.352  -7.130   8.060  0.00  0.00    +0.005 A 
ATOM     33  C   UNL     1      -9.592  -5.546   8.277  0.00  0.00    +0.113 A 
ATOM     36  C   UNL     1     -10.928  -5.807   8.021  0.00  0.00    +0.020 A 
ENDBRANCH  17  21
ENDBRANCH  12  17
TORSDOF 8
ENDMDL
MODEL 4
REMARK VINA RESULT:      -6.3     28.474     31.550
REMARK  Name = 38028891
REMARK  11 active torsions:
REMARK  status: ('A' for Active; 'I' for Inactive)
REMARK    1  A    between atoms: S_1  and  N_5
REMARK    2  A    between atoms: S_1  and  C_26
REMARK    3  A    between atoms: N_5  and  C_16
REMARK    4  A    between atoms: C_9  and  C_13
REMARK    5  A    between atoms: C_10  and  C_16
REMARK    6  A    between atoms: C_12  and  C_17
REMARK    7  A    between atoms: C_13  and  C_18
REMARK    8  A    between atoms: C_13  and  C_19
REMARK    9  A    between atoms: C_14  and  C_20
REMARK   10  A    between atoms: C_17  and  C_21
REMARK   11  A    between atoms: C_26  and  C_28
REMARK                            x       y       z     vdW  Elec       q    Type
REMARK                         _______ _______ _______ _____ _____    ______ ____
ROOT
ATOM      9  C   UNL     1      -7.087 -11.491  16.841  0.00  0.00    +0.000 C 
ATOM     10  C   UNL     1      -7.265 -11.810  18.346  0.00  0.00    +0.030 C 
ATOM     11  C   UNL     1      -5.900 -12.277  16.262  0.00  0.00    +0.012 C 
ATOM     12  C   UNL     1      -4.581 -11.957  16.989  0.00  0.00    +0.023 C 
ATOM     14  C   UNL     1      -4.744 -11.990  18.495  0.00  0.00    -0.073 C 
ATOM     15  C   UNL     1      -5.952 -11.936  19.083  0.00  0.00    -0.023 C 
ATOM     20  C   UNL     1      -3.488 -12.131  19.309  0.00  0.00    +0.039 C 
ENDROOT
BRANCH   9  13
ATOM     13  C   UNL     1      -8.355 -11.801  16.040  0.00  0.00    -0.013 C 
ATOM     18  C   UNL     1      -8.628 -10.696  15.025  0.00  0.00    +0.007 C 
ATOM     19  C   UNL     1      -8.227 -13.153  15.345  0.00  0.00    +0.007 C 
ENDBRANCH   9  13
BRANCH  10  16
ATOM     16  C   UNL     1      -8.138 -10.756  19.036  0.00  0.00    +0.113 C 
BRANCH  16   5
ATOM      5  N   UNL     1      -8.942 -11.408  20.082  0.00  0.00    -0.194 NA
ATOM     38  H   UNL     1      -8.436 -12.140  20.599  0.00  0.00    +0.148 HD
BRANCH   5   1
ATOM      1  S   UNL     1     -10.596 -11.723  19.790  0.00  0.00    +0.033 S 
ATOM      3  O   UNL     1     -11.107 -12.634  20.794  0.00  0.00    -0.158 OA
ATOM      4  O   UNL     1     -10.769 -12.003  18.378  0.00  0.00    -0.158 OA
BRANCH   1  26
ATOM     26  C   UNL     1     -11.293 -10.118  20.102  0.00  0.00    +0.220 C 
BRANCH  26  28
ATOM     28  C   UNL     1     -11.799  -9.579  18.800  0.00  0.00    -0.025 A 
ATOM     30  C   UNL     1     -13.142  -9.734  18.456  0.00  0.00    +0.005 A 
ATOM     31  C   UNL     1     -10.928  -8.922  17.931  0.00  0.00    +0.005 A 
ATOM     34  C   UNL     1     -13.614  -9.232  17.243  0.00  0.00    +0.000 A 
ATOM     35  C   UNL     1     -11.400  -8.420  16.718  0.00  0.00    +0.000 A 
ATOM     37  C   UNL     1     -12.743  -8.575  16.374  0.00  0.00    +0.000 A 
ENDBRANCH  26  28
ENDBRANCH   1  26
ENDBRANCH   5   1
ENDBRANCH  16   5
ENDBRANCH  10  16
BRANCH  12  17
ATOM     17  C   UNL     1      -4.008 -10.612  16.528  0.00  0.00    +0.103 C 
BRANCH  17  21
ATOM      2  O   UNL     1      -1.747 -11.056  15.953  0.00  0.00    -0.276 OA
ATOM      6  N   UNL     1      -3.238 -10.789  14.191  0.00  0.00    -0.298 N 
ATOM      7  N   UNL     1      -3.888 -10.915  11.373  0.00  0.00    -0.312 N 
ATOM      8  N   UNL     1      -4.766  -9.940   9.410  0.00  0.00    -0.240 NA
ATOM     21  C   UNL     1      -2.890 -10.841  15.542  0.00  0.00    +0.216 C 
ATOM     22  C   UNL     1      -2.210 -10.996  13.174  0.00  0.00    +0.126 C 
ATOM     23  C   UNL     1      -4.597 -10.545  13.704  0.00  0.00    +0.126 C 
ATOM     24  C   UNL     1      -2.770 -11.682  11.929  0.00  0.00    +0.125 C 
ATOM     25  C   UNL     1      -4.626 -10.020  12.268  0.00  0.00    +0.125 C 
ATOM     27  C   UNL     1      -4.213 -11.011  10.023  0.00  0.00    +0.121 A 
ATOM     29  C   UNL     1      -3.944 -12.214   9.389  0.00  0.00    +0.043 A 
ATOM     32  C   UNL     1      -4.263 -12.324   8.040  0.00  0.00    +0.005 A 
ATOM     33  C   UNL     1      -5.063 -10.085   8.099  0.00  0.00    +0.113 A 
ATOM     36  C   UNL     1      -4.834 -11.245   7.376  0.00  0.00    +0.020 A 
ENDBRANCH  17  21
ENDBRANCH  12  17
TORSDOF 8
ENDMDL
MODEL 5
REMARK VINA RESULT:      -6.3     14.311     18.749
REMARK  Name = 38028891
REMARK  11 active torsions:
REMARK  status: ('A' for Active; 'I' for Inactive)
REMARK    1  A    between atoms: S_1  and  N_5
REMARK    2  A    between atoms: S_1  and  C_26
REMARK    3  A    between atoms: N_5  and  C_16
REMARK    4  A    between atoms: C_9  and  C_13
REMARK    5  A    between atoms: C_10  and  C_16
REMARK    6  A    between atoms: C_12  and  C_17
REMARK    7  A    between atoms: C_13  and  C_18
REMARK    8  A    between atoms: C_13  and  C_19
REMARK    9  A    between atoms: C_14  and  C_20
REMARK   10  A    between atoms: C_17  and  C_21
REMARK   11  A    between atoms: C_26  and  C_28
REMARK                            x       y       z     vdW  Elec       q    Type
REMARK                         _______ _______ _______ _____ _____    ______ ____
ROOT
ATOM      9  C   UNL     1       9.766   7.042   5.993  0.00  0.00    +0.000 C 
ATOM     10  C   UNL     1       9.519   6.200   4.717  0.00  0.00    +0.030 C 
ATOM     11  C   UNL     1       8.605   8.021   6.223  0.00  0.00    +0.012 C 
ATOM     12  C   UNL     1       8.408   8.981   5.035  0.00  0.00    +0.023 C 
ATOM     14  C   UNL     1       8.421   8.247   3.709  0.00  0.00    -0.073 C 
ATOM     15  C   UNL     1       8.910   7.000   3.589  0.00  0.00    -0.023 C 
ATOM     20  C   UNL     1       7.819   8.963   2.533  0.00  0.00    +0.039 C 
ENDROOT
BRANCH   9  13
ATOM     13  C   UNL     1       9.953   6.159   7.230  0.00  0.00    -0.013 C 
ATOM     18  C   UNL     1      11.382   6.270   7.753  0.00  0.00    +0.007 C 
ATOM     19  C   UNL     1       8.950   6.542   8.313  0.00  0.00    +0.007 C 
ENDBRANCH   9  13
BRANCH  10  16
ATOM     16  C   UNL     1      10.813   5.537   4.232  0.00  0.00    +0.113 C 
BRANCH  16   5
ATOM      5  N   UNL     1      10.479   4.492   3.250  0.00  0.00    -0.194 NA
ATOM     38  H   UNL     1      10.409   3.549   3.655  0.00  0.00    +0.148 HD
BRANCH   5   1
ATOM      1  S   UNL     1      11.155   4.573   1.683  0.00  0.00    +0.033 S 
ATOM      3  O   UNL     1      11.840   5.838   1.508  0.00  0.00    -0.158 OA
ATOM      4  O   UNL     1      10.157   4.133   0.727  0.00  0.00    -0.158 OA
BRANCH   1  26
ATOM     26  C   UNL     1      12.385   3.294   1.792  0.00  0.00    +0.220 C 
BRANCH  26  28
ATOM     28  C   UNL     1      13.462   3.611   0.801  0.00  0.00    -0.025 A 
ATOM     30  C   UNL     1      13.164   3.664  -0.560  0.00  0.00    +0.005 A 
ATOM     31  C   UNL     1      14.764   3.852   1.240  0.00  0.00    +0.005 A 
ATOM     34  C   UNL     1      14.167   3.960  -1.483  0.00  0.00    +0.000 A 
ATOM     35  C   UNL     1      15.768   4.147   0.316  0.00  0.00    +0.000 A 
ATOM     37  C   UNL     1      15.469   4.200  -1.046  0.00  0.00    +0.000 A 
ENDBRANCH  26  28
ENDBRANCH   1  26
ENDBRANCH   5   1
ENDBRANCH  16   5
ENDBRANCH  10  16
BRANCH  12  17
ATOM     17  C   UNL     1       9.452  10.103   5.052  0.00  0.00    +0.103 C 
BRANCH  17  21
ATOM      2  O   UNL     1       7.969  11.861   5.640  0.00  0.00    -0.276 OA
ATOM      6  N   UNL     1       9.756  11.481   7.075  0.00  0.00    -0.298 N 
ATOM      7  N   UNL     1      11.161  11.953   9.562  0.00  0.00    -0.312 N 
ATOM      8  N   UNL     1      13.129  12.482  10.754  0.00  0.00    -0.240 NA
ATOM     21  C   UNL     1       8.983  11.227   5.941  0.00  0.00    +0.216 C 
ATOM     22  C   UNL     1       9.370  12.558   7.983  0.00  0.00    +0.126 C 
ATOM     23  C   UNL     1      10.954  10.721   7.438  0.00  0.00    +0.126 C 
ATOM     24  C   UNL     1       9.729  12.237   9.433  0.00  0.00    +0.125 C 
ATOM     25  C   UNL     1      11.884  11.493   8.374  0.00  0.00    +0.125 C 
ATOM     27  C   UNL     1      11.819  12.151  10.773  0.00  0.00    +0.121 A 
ATOM     29  C   UNL     1      11.075  11.992  11.932  0.00  0.00    +0.043 A 
ATOM     32  C   UNL     1      11.719  12.187  13.149  0.00  0.00    +0.005 A 
ATOM     33  C   UNL     1      13.720  12.663  11.957  0.00  0.00    +0.113 A 
ATOM     36  C   UNL     1      13.066  12.528  13.170  0.00  0.00    +0.020 A 
ENDBRANCH  17  21
ENDBRANCH  12  17
TORSDOF 8
ENDMDL
MODEL 6
REMARK VINA RESULT:      -6.3     28.956     31.581
REMARK  Name = 38028891
REMARK  11 active torsions:
REMARK  status: ('A' for Active; 'I' for Inactive)
REMARK    1  A    between atoms: S_1  and  N_5
REMARK    2  A    between atoms: S_1  and  C_26
REMARK    3  A    between atoms: N_5  and  C_16
REMARK    4  A    between atoms: C_9  and  C_13
REMARK    5  A    between atoms: C_10  and  C_16
REMARK    6  A    between atoms: C_12  and  C_17
REMARK    7  A    between atoms: C_13  and  C_18
REMARK    8  A    between atoms: C_13  and  C_19
REMARK    9  A    between atoms: C_14  and  C_20
REMARK   10  A    between atoms: C_17  and  C_21
REMARK   11  A    between atoms: C_26  and  C_28
REMARK                            x       y       z     vdW  Elec       q    Type
REMARK                         _______ _______ _______ _____ _____    ______ ____
ROOT
ATOM      9  C   UNL     1      -4.632 -10.124  10.964  0.00  0.00    +0.000 C 
ATOM     10  C   UNL     1      -5.612  -9.398  11.920  0.00  0.00    +0.030 C 
ATOM     11  C   UNL     1      -4.571  -9.401   9.609  0.00  0.00    +0.012 C 
ATOM     12  C   UNL     1      -5.950  -9.321   8.928  0.00  0.00    +0.023 C 
ATOM     14  C   UNL     1      -7.029  -8.865   9.890  0.00  0.00    -0.073 C 
ATOM     15  C   UNL     1      -6.854  -8.895  11.223  0.00  0.00    -0.023 C 
ATOM     20  C   UNL     1      -8.296  -8.332   9.283  0.00  0.00    +0.039 C 
ENDROOT
BRANCH   9  13
ATOM     13  C   UNL     1      -3.226 -10.227  11.561  0.00  0.00    -0.013 C 
ATOM     18  C   UNL     1      -2.767 -11.681  11.595  0.00  0.00    +0.007 C 
ATOM     19  C   UNL     1      -2.246  -9.370  10.766  0.00  0.00    +0.007 C 
ENDBRANCH   9  13
BRANCH  10  16
ATOM     16  C   UNL     1      -6.014 -10.302  13.091  0.00  0.00    +0.113 C 
BRANCH  16   5
ATOM      5  N   UNL     1      -6.868  -9.540  14.016  0.00  0.00    -0.194 NA
ATOM     38  H   UNL     1      -6.524  -8.590  14.210  0.00  0.00    +0.148 HD
BRANCH   5   1
ATOM      1  S   UNL     1      -7.596 -10.344  15.335  0.00  0.00    +0.033 S 
ATOM      3  O   UNL     1      -7.069 -11.690  15.441  0.00  0.00    -0.158 OA
ATOM      4  O   UNL     1      -9.027 -10.111  15.285  0.00  0.00    -0.158 OA
BRANCH   1  26
ATOM     26  C   UNL     1      -6.950  -9.395  16.693  0.00  0.00    +0.220 C 
BRANCH  26  28
ATOM     28  C   UNL     1      -5.948 -10.246  17.409  0.00  0.00    -0.025 A 
ATOM     30  C   UNL     1      -6.284 -10.847  18.622  0.00  0.00    +0.005 A 
ATOM     31  C   UNL     1      -4.679 -10.437  16.863  0.00  0.00    +0.005 A 
ATOM     34  C   UNL     1      -5.350 -11.640  19.290  0.00  0.00    +0.000 A 
ATOM     35  C   UNL     1      -3.745 -11.231  17.531  0.00  0.00    +0.000 A 
ATOM     37  C   UNL     1      -4.081 -11.832  18.745  0.00  0.00    +0.000 A 
ENDBRANCH  26  28
ENDBRANCH   1  26
ENDBRANCH   5   1
ENDBRANCH  16   5
ENDBRANCH  10  16
BRANCH  12  17
ATOM     17  C   UNL     1      -6.323 -10.659   8.280  0.00  0.00    +0.103 C 
BRANCH  17  21
ATOM      2  O   UNL     1      -6.111  -9.845   6.059  0.00  0.00    -0.276 OA
ATOM      6  N   UNL     1      -4.934 -11.780   6.577  0.00  0.00    -0.298 N 
ATOM      7  N   UNL     1      -2.993 -13.825   5.919  0.00  0.00    -0.312 N 
ATOM      8  N   UNL     1      -2.368 -16.094   5.728  0.00  0.00    -0.240 NA
ATOM     21  C   UNL     1      -5.786 -10.714   6.871  0.00  0.00    +0.216 C 
ATOM     22  C   UNL     1      -4.376 -11.906   5.233  0.00  0.00    +0.126 C 
ATOM     23  C   UNL     1      -4.540 -12.806   7.545  0.00  0.00    +0.126 C 
ATOM     24  C   UNL     1      -2.978 -12.520   5.252  0.00  0.00    +0.125 C 
ATOM     25  C   UNL     1      -4.067 -14.098   6.879  0.00  0.00    +0.125 C 
ATOM     27  C   UNL     1      -2.034 -14.788   5.620  0.00  0.00    +0.121 A 
ATOM     29  C   UNL     1      -0.783 -14.337   5.227  0.00  0.00    +0.043 A 
ATOM     32  C   UNL     1       0.186 -15.288   4.925  0.00  0.00    +0.005 A 
ATOM     33  C   UNL     1      -1.399 -16.988   5.426  0.00  0.00    +0.113 A 
ATOM     36  C   UNL     1      -0.120 -16.640   5.024  0.00  0.00    +0.020 A 
ENDBRANCH  17  21
ENDBRANCH  12  17
TORSDOF 8
ENDMDL
MODEL 7
REMARK VINA RESULT:      -6.2     28.611     31.521
REMARK  Name = 38028891
REMARK  11 active torsions:
REMARK  status: ('A' for Active; 'I' for Inactive)
REMARK    1  A    between atoms: S_1  and  N_5
REMARK    2  A    between atoms: S_1  and  C_26
REMARK    3  A    between atoms: N_5  and  C_16
REMARK    4  A    between atoms: C_9  and  C_13
REMARK    5  A    between atoms: C_10  and  C_16
REMARK    6  A    between atoms: C_12  and  C_17
REMARK    7  A    between atoms: C_13  and  C_18
REMARK    8  A    between atoms: C_13  and  C_19
REMARK    9  A    between atoms: C_14  and  C_20
REMARK   10  A    between atoms: C_17  and  C_21
REMARK   11  A    between atoms: C_26  and  C_28
REMARK                            x       y       z     vdW  Elec       q    Type
REMARK                         _______ _______ _______ _____ _____    ______ ____
ROOT
ATOM      9  C   UNL     1      -6.838 -13.169  16.506  0.00  0.00    +0.000 C 
ATOM     10  C   UNL     1      -7.719 -13.288  17.775  0.00  0.00    +0.030 C 
ATOM     11  C   UNL     1      -5.349 -13.169  16.885  0.00  0.00    +0.012 C 
ATOM     12  C   UNL     1      -4.991 -12.015  17.839  0.00  0.00    +0.023 C 
ATOM     14  C   UNL     1      -5.979 -11.901  18.982  0.00  0.00    -0.073 C 
ATOM     15  C   UNL     1      -7.189 -12.488  18.940  0.00  0.00    -0.023 C 
ATOM     20  C   UNL     1      -5.528 -11.133  20.193  0.00  0.00    +0.039 C 
ENDROOT
BRANCH   9  13
ATOM     13  C   UNL     1      -7.120 -14.297  15.510  0.00  0.00    -0.013 C 
ATOM     18  C   UNL     1      -6.346 -14.070  14.215  0.00  0.00    +0.007 C 
ATOM     19  C   UNL     1      -6.765 -15.648  16.121  0.00  0.00    +0.007 C 
ENDBRANCH   9  13
BRANCH  10  16
ATOM     16  C   UNL     1      -9.166 -12.873  17.486  0.00  0.00    +0.113 C 
BRANCH  16   5
ATOM      5  N   UNL     1      -9.458 -11.620  18.201  0.00  0.00    -0.194 NA
ATOM     38  H   UNL     1     -10.162 -11.720  18.944  0.00  0.00    +0.148 HD
BRANCH   5   1
ATOM      1  S   UNL     1      -9.514 -10.153  17.326  0.00  0.00    +0.033 S 
ATOM      3  O   UNL     1      -9.929 -10.411  15.962  0.00  0.00    -0.158 OA
ATOM      4  O   UNL     1      -8.304  -9.403  17.604  0.00  0.00    -0.158 OA
BRANCH   1  26
ATOM     26  C   UNL     1     -10.852  -9.329  18.158  0.00  0.00    +0.220 C 
BRANCH  26  28
ATOM     28  C   UNL     1     -11.396  -8.288  17.229  0.00  0.00    -0.025 A 
ATOM     30  C   UNL     1     -12.669  -8.440  16.680  0.00  0.00    +0.005 A 
ATOM     31  C   UNL     1     -10.629  -7.167  16.912  0.00  0.00    +0.005 A 
ATOM     34  C   UNL     1     -13.176  -7.471  15.814  0.00  0.00    +0.000 A 
ATOM     35  C   UNL     1     -11.136  -6.198  16.046  0.00  0.00    +0.000 A 
ATOM     37  C   UNL     1     -12.409  -6.350  15.497  0.00  0.00    +0.000 A 
ENDBRANCH  26  28
ENDBRANCH   1  26
ENDBRANCH   5   1
ENDBRANCH  16   5
ENDBRANCH  10  16
BRANCH  12  17
ATOM     17  C   UNL     1      -4.872 -10.688  17.081  0.00  0.00    +0.103 C 
BRANCH  17  21
ATOM      2  O   UNL     1      -2.539 -10.828  16.663  0.00  0.00    -0.276 OA
ATOM      6  N   UNL     1      -3.921 -10.620  14.807  0.00  0.00    -0.298 N 
ATOM      7  N   UNL     1      -4.345 -10.636  11.943  0.00  0.00    -0.312 N 
ATOM      8  N   UNL     1      -5.191  -9.642   9.975  0.00  0.00    -0.240 NA
ATOM     21  C   UNL     1      -3.666 -10.721  16.175  0.00  0.00    +0.216 C 
ATOM     22  C   UNL     1      -2.804 -10.639  13.864  0.00  0.00    +0.126 C 
ATOM     23  C   UNL     1      -5.260 -10.504  14.228  0.00  0.00    +0.126 C 
ATOM     24  C   UNL     1      -3.185 -11.302  12.542  0.00  0.00    +0.125 C 
ATOM     25  C   UNL     1      -5.249  -9.893  12.826  0.00  0.00    +0.125 C 
ATOM     27  C   UNL     1      -4.558 -10.679  10.568  0.00  0.00    +0.121 A 
ATOM     29  C   UNL     1      -4.101 -11.799   9.890  0.00  0.00    +0.043 A 
ATOM     32  C   UNL     1      -4.306 -11.856   8.516  0.00  0.00    +0.005 A 
ATOM     33  C   UNL     1      -5.372  -9.734   8.638  0.00  0.00    +0.113 A 
ATOM     36  C   UNL     1      -4.954 -10.809   7.871  0.00  0.00    +0.020 A 
ENDBRANCH  17  21
ENDBRANCH  12  17
TORSDOF 8
ENDMDL
MODEL 8
REMARK VINA RESULT:      -6.1     15.590     18.614
REMARK  Name = 38028891
REMARK  11 active torsions:
REMARK  status: ('A' for Active; 'I' for Inactive)
REMARK    1  A    between atoms: S_1  and  N_5
REMARK    2  A    between atoms: S_1  and  C_26
REMARK    3  A    between atoms: N_5  and  C_16
REMARK    4  A    between atoms: C_9  and  C_13
REMARK    5  A    between atoms: C_10  and  C_16
REMARK    6  A    between atoms: C_12  and  C_17
REMARK    7  A    between atoms: C_13  and  C_18
REMARK    8  A    between atoms: C_13  and  C_19
REMARK    9  A    between atoms: C_14  and  C_20
REMARK   10  A    between atoms: C_17  and  C_21
REMARK   11  A    between atoms: C_26  and  C_28
REMARK                            x       y       z     vdW  Elec       q    Type
REMARK                         _______ _______ _______ _____ _____    ______ ____
ROOT
ATOM      9  C   UNL     1      11.285   6.802   5.263  0.00  0.00    +0.000 C 
ATOM     10  C   UNL     1       9.968   6.204   4.709  0.00  0.00    +0.030 C 
ATOM     11  C   UNL     1      11.243   8.337   5.206  0.00  0.00    +0.012 C 
ATOM     12  C   UNL     1      11.033   8.860   3.772  0.00  0.00    +0.023 C 
ATOM     14  C   UNL     1       9.914   8.126   3.062  0.00  0.00    -0.073 C 
ATOM     15  C   UNL     1       9.443   6.946   3.503  0.00  0.00    -0.023 C 
ATOM     20  C   UNL     1       9.319   8.801   1.858  0.00  0.00    +0.039 C 
ENDROOT
BRANCH   9  13
ATOM     13  C   UNL     1      11.558   6.343   6.698  0.00  0.00    -0.013 C 
ATOM     18  C   UNL     1      12.927   6.832   7.162  0.00  0.00    +0.007 C 
ATOM     19  C   UNL     1      10.462   6.842   7.634  0.00  0.00    +0.007 C 
ENDBRANCH   9  13
BRANCH  10  16
ATOM     16  C   UNL     1      10.137   4.720   4.362  0.00  0.00    +0.113 C 
BRANCH  16   5
ATOM      5  N   UNL     1      11.453   4.520   3.733  0.00  0.00    -0.194 NA
ATOM     38  H   UNL     1      12.162   5.202   4.032  0.00  0.00    +0.148 HD
BRANCH   5   1
ATOM      1  S   UNL     1      11.532   4.044   2.095  0.00  0.00    +0.033 S 
ATOM      3  O   UNL     1      10.192   3.892   1.562  0.00  0.00    -0.158 OA
ATOM      4  O   UNL     1      12.504   2.975   1.972  0.00  0.00    -0.158 OA
BRANCH   1  26
ATOM     26  C   UNL     1      12.248   5.500   1.367  0.00  0.00    +0.220 C 
BRANCH  26  28
ATOM     28  C   UNL     1      13.408   5.066   0.525  0.00  0.00    -0.025 A 
ATOM     30  C   UNL     1      13.192   4.591  -0.768  0.00  0.00    +0.005 A 
ATOM     31  C   UNL     1      14.704   5.136   1.035  0.00  0.00    +0.005 A 
ATOM     34  C   UNL     1      14.273   4.187  -1.553  0.00  0.00    +0.000 A 
ATOM     35  C   UNL     1      15.785   4.731   0.251  0.00  0.00    +0.000 A 
ATOM     37  C   UNL     1      15.569   4.256  -1.043  0.00  0.00    +0.000 A 
ENDBRANCH  26  28
ENDBRANCH   1  26
ENDBRANCH   5   1
ENDBRANCH  16   5
ENDBRANCH  10  16
BRANCH  12  17
ATOM     17  C   UNL     1      12.334   8.793   2.964  0.00  0.00    +0.103 C 
BRANCH  17  21
ATOM      2  O   UNL     1      12.868  11.047   3.486  0.00  0.00    -0.276 OA
ATOM      6  N   UNL     1      14.577   9.490   3.716  0.00  0.00    -0.298 N 
ATOM      7  N   UNL     1      17.240   8.753   4.578  0.00  0.00    -0.312 N 
ATOM      8  N   UNL     1      19.350   7.778   4.160  0.00  0.00    -0.240 NA
ATOM     21  C   UNL     1      13.273   9.885   3.412  0.00  0.00    +0.216 C 
ATOM     22  C   UNL     1      15.548  10.490   4.152  0.00  0.00    +0.126 C 
ATOM     23  C   UNL     1      15.055   8.108   3.638  0.00  0.00    +0.126 C 
ATOM     24  C   UNL     1      16.552   9.914   5.149  0.00  0.00    +0.125 C 
ATOM     25  C   UNL     1      16.574   8.015   3.501  0.00  0.00    +0.125 C 
ATOM     27  C   UNL     1      18.507   8.387   5.024  0.00  0.00    +0.121 A 
ATOM     29  C   UNL     1      18.822   8.674   6.343  0.00  0.00    +0.043 A 
ATOM     32  C   UNL     1      20.084   8.315   6.804  0.00  0.00    +0.005 A 
ATOM     33  C   UNL     1      20.567   7.443   4.644  0.00  0.00    +0.113 A 
ATOM     36  C   UNL     1      20.978   7.687   5.945  0.00  0.00    +0.020 A 
ENDBRANCH  17  21
ENDBRANCH  12  17
TORSDOF 8
ENDMDL
MODEL 9
REMARK VINA RESULT:      -6.1     15.960     19.687
REMARK  Name = 38028891
REMARK  11 active torsions:
REMARK  status: ('A' for Active; 'I' for Inactive)
REMARK    1  A    between atoms: S_1  and  N_5
REMARK    2  A    between atoms: S_1  and  C_26
REMARK    3  A    between atoms: N_5  and  C_16
REMARK    4  A    between atoms: C_9  and  C_13
REMARK    5  A    between atoms: C_10  and  C_16
REMARK    6  A    between atoms: C_12  and  C_17
REMARK    7  A    between atoms: C_13  and  C_18
REMARK    8  A    between atoms: C_13  and  C_19
REMARK    9  A    between atoms: C_14  and  C_20
REMARK   10  A    between atoms: C_17  and  C_21
REMARK   11  A    between atoms: C_26  and  C_28
REMARK                            x       y       z     vdW  Elec       q    Type
REMARK                         _______ _______ _______ _____ _____    ______ ____
ROOT
ATOM      9  C   UNL     1       8.443   9.291   4.086  0.00  0.00    +0.000 C 
ATOM     10  C   UNL     1       8.222  10.024   5.433  0.00  0.00    +0.030 C 
ATOM     11  C   UNL     1       8.131   7.794   4.233  0.00  0.00    +0.012 C 
ATOM     12  C   UNL     1       9.005   7.119   5.306  0.00  0.00    +0.023 C 
ATOM     14  C   UNL     1       9.053   7.929   6.586  0.00  0.00    -0.073 C 
ATOM     15  C   UNL     1       8.686   9.223   6.625  0.00  0.00    -0.023 C 
ATOM     20  C   UNL     1       9.488   7.205   7.829  0.00  0.00    +0.039 C 
ENDROOT
BRANCH   9  13
ATOM     13  C   UNL     1       7.590   9.892   2.965  0.00  0.00    -0.013 C 
ATOM     18  C   UNL     1       7.775   9.101   1.674  0.00  0.00    +0.007 C 
ATOM     19  C   UNL     1       6.121   9.924   3.374  0.00  0.00    +0.007 C 
ENDBRANCH   9  13
BRANCH  10  16
ATOM     16  C   UNL     1       8.913  11.393   5.438  0.00  0.00    +0.113 C 
BRANCH  16   5
ATOM      5  N   UNL     1       9.955  11.402   6.478  0.00  0.00    -0.194 NA
ATOM     38  H   UNL     1       9.772  12.066   7.242  0.00  0.00    +0.148 HD
BRANCH   5   1
ATOM      1  S   UNL     1      11.592  11.239   6.020  0.00  0.00    +0.033 S 
ATOM      3  O   UNL     1      12.211  12.546   5.931  0.00  0.00    -0.158 OA
ATOM      4  O   UNL     1      11.670  10.305   4.912  0.00  0.00    -0.158 OA
BRANCH   1  26
ATOM     26  C   UNL     1      12.251  10.418   7.453  0.00  0.00    +0.220 C 
BRANCH  26  28
ATOM     28  C   UNL     1      13.297   9.453   6.987  0.00  0.00    -0.025 A 
ATOM     30  C   UNL     1      14.531   9.925   6.540  0.00  0.00    +0.005 A 
ATOM     31  C   UNL     1      13.036   8.083   6.999  0.00  0.00    +0.005 A 
ATOM     34  C   UNL     1      15.506   9.026   6.106  0.00  0.00    +0.000 A 
ATOM     35  C   UNL     1      14.011   7.184   6.564  0.00  0.00    +0.000 A 
ATOM     37  C   UNL     1      15.246   7.656   6.117  0.00  0.00    +0.000 A 
ENDBRANCH  26  28
ENDBRANCH   1  26
ENDBRANCH   5   1
ENDBRANCH  16   5
ENDBRANCH  10  16
BRANCH  12  17
ATOM     17  C   UNL     1      10.418   6.847   4.777  0.00  0.00    +0.103 C 
BRANCH  17  21
ATOM      2  O   UNL     1      10.184   4.517   5.172  0.00  0.00    -0.276 OA
ATOM      6  N   UNL     1      11.093   5.142   3.127  0.00  0.00    -0.298 N 
ATOM      7  N   UNL     1      12.008   4.507   0.455  0.00  0.00    -0.312 N 
ATOM      8  N   UNL     1      13.642   4.608  -1.247  0.00  0.00    -0.240 NA
ATOM     21  C   UNL     1      10.549   5.395   4.387  0.00  0.00    +0.216 C 
ATOM     22  C   UNL     1      11.257   3.762   2.678  0.00  0.00    +0.126 C 
ATOM     23  C   UNL     1      11.515   6.186   2.191  0.00  0.00    +0.126 C 
ATOM     24  C   UNL     1      11.077   3.627   1.167  0.00  0.00    +0.125 C 
ATOM     25  C   UNL     1      12.526   5.683   1.160  0.00  0.00    +0.125 C 
ATOM     27  C   UNL     1      12.415   4.210  -0.843  0.00  0.00    +0.121 A 
ATOM     29  C   UNL     1      11.521   3.517  -1.645  0.00  0.00    +0.043 A 
ATOM     32  C   UNL     1      11.913   3.213  -2.944  0.00  0.00    +0.005 A 
ATOM     33  C   UNL     1      13.987   4.294  -2.516  0.00  0.00    +0.113 A 
ATOM     36  C   UNL     1      13.167   3.606  -3.395  0.00  0.00    +0.020 A 
ENDBRANCH  17  21
ENDBRANCH  12  17
TORSDOF 8
ENDMDL
MODEL 10
REMARK VINA RESULT:      -6.0     28.167     31.572
REMARK  Name = 38028891
REMARK  11 active torsions:
REMARK  status: ('A' for Active; 'I' for Inactive)
REMARK    1  A    between atoms: S_1  and  N_5
REMARK    2  A    between atoms: S_1  and  C_26
REMARK    3  A    between atoms: N_5  and  C_16
REMARK    4  A    between atoms: C_9  and  C_13
REMARK    5  A    between atoms: C_10  and  C_16
REMARK    6  A    between atoms: C_12  and  C_17
REMARK    7  A    between atoms: C_13  and  C_18
REMARK    8  A    between atoms: C_13  and  C_19
REMARK    9  A    between atoms: C_14  and  C_20
REMARK   10  A    between atoms: C_17  and  C_21
REMARK   11  A    between atoms: C_26  and  C_28
REMARK                            x       y       z     vdW  Elec       q    Type
REMARK                         _______ _______ _______ _____ _____    ______ ____
ROOT
ATOM      9  C   UNL     1      -5.090 -13.742  14.826  0.00  0.00    +0.000 C 
ATOM     10  C   UNL     1      -4.851 -13.564  16.346  0.00  0.00    +0.030 C 
ATOM     11  C   UNL     1      -3.845 -13.315  14.033  0.00  0.00    +0.012 C 
ATOM     12  C   UNL     1      -3.461 -11.847  14.299  0.00  0.00    +0.023 C 
ATOM     14  C   UNL     1      -3.464 -11.523  15.780  0.00  0.00    -0.073 C 
ATOM     15  C   UNL     1      -4.080 -12.309  16.680  0.00  0.00    -0.023 C 
ATOM     20  C   UNL     1      -2.706 -10.297  16.205  0.00  0.00    +0.039 C 
ENDROOT
BRANCH   9  13
ATOM     13  C   UNL     1      -5.460 -15.185  14.474  0.00  0.00    -0.013 C 
ATOM     18  C   UNL     1      -5.654 -15.333  12.968  0.00  0.00    +0.007 C 
ATOM     19  C   UNL     1      -4.388 -16.147  14.977  0.00  0.00    +0.007 C 
ENDBRANCH   9  13
BRANCH  10  16
ATOM     16  C   UNL     1      -6.175 -13.571  17.119  0.00  0.00    +0.113 C 
BRANCH  16   5
ATOM      5  N   UNL     1      -5.971 -12.928  18.427  0.00  0.00    -0.194 NA
ATOM     38  H   UNL     1      -5.544 -13.544  19.131  0.00  0.00    +0.148 HD
BRANCH   5   1
ATOM      1  S   UNL     1      -7.152 -11.844  19.017  0.00  0.00    +0.033 S 
ATOM      3  O   UNL     1      -7.084 -11.783  20.464  0.00  0.00    -0.158 OA
ATOM      4  O   UNL     1      -8.408 -12.120  18.346  0.00  0.00    -0.158 OA
BRANCH   1  26
ATOM     26  C   UNL     1      -6.534 -10.306  18.375  0.00  0.00    +0.220 C 
BRANCH  26  28
ATOM     28  C   UNL     1      -7.412  -9.902  17.231  0.00  0.00    -0.025 A 
ATOM     30  C   UNL     1      -8.544  -9.122  17.463  0.00  0.00    +0.005 A 
ATOM     31  C   UNL     1      -7.098 -10.308  15.934  0.00  0.00    +0.005 A 
ATOM     34  C   UNL     1      -9.363  -8.746  16.398  0.00  0.00    +0.000 A 
ATOM     35  C   UNL     1      -7.917  -9.932  14.869  0.00  0.00    +0.000 A 
ATOM     37  C   UNL     1      -9.050  -9.151  15.101  0.00  0.00    +0.000 A 
ENDBRANCH  26  28
ENDBRANCH   1  26
ENDBRANCH   5   1
ENDBRANCH  16   5
ENDBRANCH  10  16
BRANCH  12  17
ATOM     17  C   UNL     1      -4.372 -10.888  13.524  0.00  0.00    +0.103 C 
BRANCH  17  21
ATOM      2  O   UNL     1      -2.397 -10.287  12.352  0.00  0.00    -0.276 OA
ATOM      6  N   UNL     1      -4.415  -9.848  11.288  0.00  0.00    -0.298 N 
ATOM      7  N   UNL     1      -5.936  -9.043   8.961  0.00  0.00    -0.312 N 
ATOM      8  N   UNL     1      -7.600  -7.715   7.939  0.00  0.00    -0.240 NA
ATOM     21  C   UNL     1      -3.629 -10.318  12.342  0.00  0.00    +0.216 C 
ATOM     22  C   UNL     1      -3.771  -9.276  10.109  0.00  0.00    +0.126 C 
ATOM     23  C   UNL     1      -5.879  -9.896  11.272  0.00  0.00    +0.126 C 
ATOM     24  C   UNL     1      -4.567  -9.550   8.834  0.00  0.00    +0.125 C 
ATOM     25  C   UNL     1      -6.493  -8.882  10.307  0.00  0.00    +0.125 C 
ATOM     27  C   UNL     1      -6.671  -8.691   7.832  0.00  0.00    +0.121 A 
ATOM     29  C   UNL     1      -6.397  -9.376   6.658  0.00  0.00    +0.043 A 
ATOM     32  C   UNL     1      -7.123  -9.036   5.521  0.00  0.00    +0.005 A 
ATOM     33  C   UNL     1      -8.286  -7.413   6.813  0.00  0.00    +0.113 A 
ATOM     36  C   UNL     1      -8.087  -8.037   5.593  0.00  0.00    +0.020 A 
ENDBRANCH  17  21
ENDBRANCH  12  17
TORSDOF 8
ENDMDL
