MODEL 1
REMARK VINA RESULT:      -8.2      0.000      0.000
REMARK  Name = 11883347
REMARK  6 active torsions:
REMARK  status: ('A' for Active; 'I' for Inactive)
REMARK    1  A    between atoms: S_1  and  N_8
REMARK    2  A    between atoms: S_1  and  C_16
REMARK    3  A    between atoms: O_4  and  C_13
REMARK    4  A    between atoms: O_4  and  C_17
REMARK    5  A    between atoms: N_8  and  C_12
REMARK    6  A    between atoms: N_9  and  C_23
REMARK                            x       y       z     vdW  Elec       q    Type
REMARK                         _______ _______ _______ _____ _____    ______ ____
ROOT
ATOM      2  O   UNL     1      15.958   8.825  20.890  0.00  0.00    -0.369 OA
ATOM      3  O   UNL     1      14.960   6.287  19.490  0.00  0.00    -0.368 OA
ATOM     10  C   UNL     1      14.628   6.866  20.769  0.00  0.00    +0.171 C 
ATOM     11  C   UNL     1      15.907   7.457  21.328  0.00  0.00    +0.191 C 
ATOM     12  C   UNL     1      13.728   8.063  20.579  0.00  0.00    +0.133 C 
ATOM     13  C   UNL     1      16.973   6.617  20.664  0.00  0.00    +0.235 C 
ATOM     14  C   UNL     1      14.720   9.163  20.245  0.00  0.00    +0.183 C 
ATOM     15  C   UNL     1      16.379   6.373  19.295  0.00  0.00    +0.207 C 
ENDROOT
BRANCH  12   8
ATOM      8  N   UNL     1      12.996   8.365  21.786  0.00  0.00    -0.182 NA
ATOM     33  H   UNL     1      13.430   8.136  22.688  0.00  0.00    +0.148 HD
BRANCH   8   1
ATOM      1  S   UNL     1      11.338   8.722  21.703  0.00  0.00    +0.059 S 
ATOM      5  O   UNL     1      10.624   7.931  22.686  0.00  0.00    -0.153 OA
ATOM      6  O   UNL     1      10.926   8.704  20.312  0.00  0.00    -0.153 OA
BRANCH   1  16
ATOM     16  C   UNL     1      11.301  10.409  22.229  0.00  0.00    +0.106 A 
ATOM     18  C   UNL     1      11.004  10.698  23.550  0.00  0.00    +0.037 A 
ATOM     19  C   UNL     1      11.570  11.406  21.313  0.00  0.00    +0.029 A 
ATOM     20  C   UNL     1      10.970  12.033  23.984  0.00  0.00    -0.016 A 
ATOM     21  C   UNL     1      11.541  12.738  21.727  0.00  0.00    +0.010 A 
ATOM     22  C   UNL     1      11.243  13.069  23.059  0.00  0.00    -0.018 A 
ATOM     24  C   UNL     1      10.674  12.364  25.317  0.00  0.00    +0.008 A 
ATOM     25  C   UNL     1      11.209  14.404  23.493  0.00  0.00    +0.008 A 
ATOM     26  C   UNL     1      10.644  13.696  25.730  0.00  0.00    +0.001 A 
ATOM     27  C   UNL     1      10.911  14.714  24.820  0.00  0.00    +0.001 A 
ENDBRANCH   1  16
ENDBRANCH   8   1
ENDBRANCH  12   8
BRANCH  13   4
ATOM      4  O   UNL     1      18.228   7.255  20.592  0.00  0.00    -0.442 OA
BRANCH   4  17
ATOM      7  O   UNL     1      19.432   6.713  22.459  0.00  0.00    -0.226 OA
ATOM      9  N   UNL     1      20.069   5.978  20.331  0.00  0.00    -0.251 N 
ATOM     17  C   UNL     1      19.277   6.643  21.246  0.00  0.00    +0.405 C 
ATOM     34  H   UNL     1      19.775   6.036  19.358  0.00  0.00    +0.158 HD
BRANCH   9  23
ATOM     23  C   UNL     1      21.239   5.226  20.575  0.00  0.00    +0.036 A 
ATOM     28  C   UNL     1      22.478   5.833  20.442  0.00  0.00    +0.023 A 
ATOM     29  C   UNL     1      21.126   3.894  20.945  0.00  0.00    +0.023 A 
ATOM     30  C   UNL     1      23.634   5.089  20.684  0.00  0.00    +0.002 A 
ATOM     31  C   UNL     1      22.282   3.152  21.187  0.00  0.00    +0.002 A 
ATOM     32  C   UNL     1      23.536   3.749  21.056  0.00  0.00    +0.000 A 
ENDBRANCH   9  23
ENDBRANCH   4  17
ENDBRANCH  13   4
TORSDOF 6
ENDMDL
MODEL 2
REMARK VINA RESULT:      -8.1     26.968     31.205
REMARK  Name = 11883347
REMARK  6 active torsions:
REMARK  status: ('A' for Active; 'I' for Inactive)
REMARK    1  A    between atoms: S_1  and  N_8
REMARK    2  A    between atoms: S_1  and  C_16
REMARK    3  A    between atoms: O_4  and  C_13
REMARK    4  A    between atoms: O_4  and  C_17
REMARK    5  A    between atoms: N_8  and  C_12
REMARK    6  A    between atoms: N_9  and  C_23
REMARK                            x       y       z     vdW  Elec       q    Type
REMARK                         _______ _______ _______ _____ _____    ______ ____
ROOT
ATOM      2  O   UNL     1     -15.221   5.512  23.917  0.00  0.00    -0.369 OA
ATOM      3  O   UNL     1     -16.932   4.364  21.647  0.00  0.00    -0.368 OA
ATOM     10  C   UNL     1     -16.037   3.730  22.584  0.00  0.00    +0.171 C 
ATOM     11  C   UNL     1     -14.877   4.681  22.796  0.00  0.00    +0.191 C 
ATOM     12  C   UNL     1     -16.687   3.642  23.944  0.00  0.00    +0.133 C 
ATOM     13  C   UNL     1     -14.856   5.464  21.504  0.00  0.00    +0.235 C 
ATOM     14  C   UNL     1     -16.434   5.027  24.513  0.00  0.00    +0.183 C 
ATOM     15  C   UNL     1     -16.328   5.578  21.178  0.00  0.00    +0.207 C 
ENDROOT
BRANCH  12   8
ATOM      8  N   UNL     1     -16.069   2.621  24.756  0.00  0.00    -0.182 NA
ATOM     33  H   UNL     1     -15.096   2.361  24.554  0.00  0.00    +0.148 HD
BRANCH   8   1
ATOM      1  S   UNL     1     -17.031   1.625  25.739  0.00  0.00    +0.059 S 
ATOM      5  O   UNL     1     -16.771   0.234  25.419  0.00  0.00    -0.153 OA
ATOM      6  O   UNL     1     -18.389   2.134  25.732  0.00  0.00    -0.153 OA
BRANCH   1  16
ATOM     16  C   UNL     1     -16.368   1.948  27.345  0.00  0.00    +0.106 A 
ATOM     18  C   UNL     1     -16.188   0.896  28.226  0.00  0.00    +0.037 A 
ATOM     19  C   UNL     1     -16.041   3.245  27.690  0.00  0.00    +0.029 A 
ATOM     20  C   UNL     1     -15.663   1.137  29.507  0.00  0.00    -0.016 A 
ATOM     21  C   UNL     1     -15.517   3.502  28.957  0.00  0.00    +0.010 A 
ATOM     22  C   UNL     1     -15.322   2.459  29.877  0.00  0.00    -0.018 A 
ATOM     24  C   UNL     1     -15.466   0.093  30.426  0.00  0.00    +0.008 A 
ATOM     25  C   UNL     1     -14.796   2.700  31.158  0.00  0.00    +0.008 A 
ATOM     26  C   UNL     1     -14.943   0.351  31.694  0.00  0.00    +0.001 A 
ATOM     27  C   UNL     1     -14.608   1.651  32.059  0.00  0.00    +0.001 A 
ENDBRANCH   1  16
ENDBRANCH   8   1
ENDBRANCH  12   8
BRANCH  13   4
ATOM      4  O   UNL     1     -14.239   6.726  21.621  0.00  0.00    -0.442 OA
BRANCH   4  17
ATOM      7  O   UNL     1     -12.051   6.142  21.303  0.00  0.00    -0.226 OA
ATOM      9  N   UNL     1     -13.027   7.926  20.145  0.00  0.00    -0.251 N 
ATOM     17  C   UNL     1     -12.998   6.870  21.035  0.00  0.00    +0.405 C 
ATOM     34  H   UNL     1     -13.915   8.415  20.059  0.00  0.00    +0.158 HD
BRANCH   9  23
ATOM     23  C   UNL     1     -11.975   8.412  19.337  0.00  0.00    +0.036 A 
ATOM     28  C   UNL     1     -11.313   9.572  19.710  0.00  0.00    +0.023 A 
ATOM     29  C   UNL     1     -11.625   7.721  18.187  0.00  0.00    +0.023 A 
ATOM     30  C   UNL     1     -10.274  10.052  18.911  0.00  0.00    +0.002 A 
ATOM     31  C   UNL     1     -10.587   8.201  17.390  0.00  0.00    +0.002 A 
ATOM     32  C   UNL     1      -9.911   9.367  17.752  0.00  0.00    +0.000 A 
ENDBRANCH   9  23
ENDBRANCH   4  17
ENDBRANCH  13   4
TORSDOF 6
ENDMDL
MODEL 3
REMARK VINA RESULT:      -8.0      1.246      2.100
REMARK  Name = 11883347
REMARK  6 active torsions:
REMARK  status: ('A' for Active; 'I' for Inactive)
REMARK    1  A    between atoms: S_1  and  N_8
REMARK    2  A    between atoms: S_1  and  C_16
REMARK    3  A    between atoms: O_4  and  C_13
REMARK    4  A    between atoms: O_4  and  C_17
REMARK    5  A    between atoms: N_8  and  C_12
REMARK    6  A    between atoms: N_9  and  C_23
REMARK                            x       y       z     vdW  Elec       q    Type
REMARK                         _______ _______ _______ _____ _____    ______ ____
ROOT
ATOM      2  O   UNL     1      16.379   8.229  20.908  0.00  0.00    -0.369 OA
ATOM      3  O   UNL     1      16.123   5.877  18.958  0.00  0.00    -0.368 OA
ATOM     10  C   UNL     1      15.437   6.176  20.192  0.00  0.00    +0.171 C 
ATOM     11  C   UNL     1      16.454   6.809  21.119  0.00  0.00    +0.191 C 
ATOM     12  C   UNL     1      14.419   7.269  19.968  0.00  0.00    +0.133 C 
ATOM     13  C   UNL     1      17.757   6.237  20.613  0.00  0.00    +0.235 C 
ATOM     14  C   UNL     1      15.272   8.523  20.043  0.00  0.00    +0.183 C 
ATOM     15  C   UNL     1      17.519   6.169  19.122  0.00  0.00    +0.207 C 
ENDROOT
BRANCH  12   8
ATOM      8  N   UNL     1      13.406   7.261  20.996  0.00  0.00    -0.182 NA
ATOM     33  H   UNL     1      13.635   6.831  21.901  0.00  0.00    +0.148 HD
BRANCH   8   1
ATOM      1  S   UNL     1      11.791   7.595  20.594  0.00  0.00    +0.059 S 
ATOM      5  O   UNL     1      10.920   6.649  21.264  0.00  0.00    -0.153 OA
ATOM      6  O   UNL     1      11.696   7.785  19.160  0.00  0.00    -0.153 OA
BRANCH   1  16
ATOM     16  C   UNL     1      11.550   9.180  21.341  0.00  0.00    +0.106 A 
ATOM     18  C   UNL     1      11.995  10.312  20.681  0.00  0.00    +0.037 A 
ATOM     19  C   UNL     1      10.924   9.257  22.569  0.00  0.00    +0.029 A 
ATOM     20  C   UNL     1      11.812  11.578  21.261  0.00  0.00    -0.016 A 
ATOM     21  C   UNL     1      10.733  10.506  23.160  0.00  0.00    +0.010 A 
ATOM     22  C   UNL     1      11.172  11.677  22.519  0.00  0.00    -0.018 A 
ATOM     24  C   UNL     1      12.249  12.749  20.619  0.00  0.00    +0.008 A 
ATOM     25  C   UNL     1      10.989  12.943  23.100  0.00  0.00    +0.008 A 
ATOM     26  C   UNL     1      12.060  13.998  21.211  0.00  0.00    +0.001 A 
ATOM     27  C   UNL     1      11.430  14.095  22.448  0.00  0.00    +0.001 A 
ENDBRANCH   1  16
ENDBRANCH   8   1
ENDBRANCH  12   8
BRANCH  13   4
ATOM      4  O   UNL     1      18.881   7.025  20.936  0.00  0.00    -0.442 OA
BRANCH   4  17
ATOM      7  O   UNL     1      20.232   6.468  22.695  0.00  0.00    -0.226 OA
ATOM      9  N   UNL     1      20.621   5.647  20.538  0.00  0.00    -0.251 N 
ATOM     17  C   UNL     1      19.957   6.376  21.505  0.00  0.00    +0.405 C 
ATOM     34  H   UNL     1      20.237   5.696  19.597  0.00  0.00    +0.158 HD
BRANCH   9  23
ATOM     23  C   UNL     1      21.771   4.840  20.692  0.00  0.00    +0.036 A 
ATOM     28  C   UNL     1      21.627   3.521  21.093  0.00  0.00    +0.023 A 
ATOM     29  C   UNL     1      23.021   5.383  20.438  0.00  0.00    +0.023 A 
ATOM     30  C   UNL     1      22.763   2.725  21.245  0.00  0.00    +0.002 A 
ATOM     31  C   UNL     1      24.156   4.587  20.590  0.00  0.00    +0.002 A 
ATOM     32  C   UNL     1      24.027   3.258  20.993  0.00  0.00    +0.000 A 
ENDBRANCH   9  23
ENDBRANCH   4  17
ENDBRANCH  13   4
TORSDOF 6
ENDMDL
MODEL 4
REMARK VINA RESULT:      -7.9     27.736     30.371
REMARK  Name = 11883347
REMARK  6 active torsions:
REMARK  status: ('A' for Active; 'I' for Inactive)
REMARK    1  A    between atoms: S_1  and  N_8
REMARK    2  A    between atoms: S_1  and  C_16
REMARK    3  A    between atoms: O_4  and  C_13
REMARK    4  A    between atoms: O_4  and  C_17
REMARK    5  A    between atoms: N_8  and  C_12
REMARK    6  A    between atoms: N_9  and  C_23
REMARK                            x       y       z     vdW  Elec       q    Type
REMARK                         _______ _______ _______ _____ _____    ______ ____
ROOT
ATOM      2  O   UNL     1      -5.659 -10.198  17.221  0.00  0.00    -0.369 OA
ATOM      3  O   UNL     1      -4.182 -12.097  19.122  0.00  0.00    -0.368 OA
ATOM     10  C   UNL     1      -4.591 -12.248  17.747  0.00  0.00    +0.171 C 
ATOM     11  C   UNL     1      -5.932 -11.555  17.609  0.00  0.00    +0.191 C 
ATOM     12  C   UNL     1      -3.678 -11.456  16.843  0.00  0.00    +0.133 C 
ATOM     13  C   UNL     1      -6.487 -11.635  19.011  0.00  0.00    +0.235 C 
ATOM     14  C   UNL     1      -4.256 -10.055  16.948  0.00  0.00    +0.183 C 
ATOM     15  C   UNL     1      -5.245 -11.470  19.856  0.00  0.00    +0.207 C 
ENDROOT
BRANCH  12   8
ATOM      8  N   UNL     1      -3.729 -11.945  15.487  0.00  0.00    -0.182 NA
ATOM     33  H   UNL     1      -4.559 -12.473  15.191  0.00  0.00    +0.148 HD
BRANCH   8   1
ATOM      1  S   UNL     1      -2.315 -11.982  14.547  0.00  0.00    +0.059 S 
ATOM      5  O   UNL     1      -2.060 -13.341  14.111  0.00  0.00    -0.153 OA
ATOM      6  O   UNL     1      -1.282 -11.227  15.229  0.00  0.00    -0.153 OA
BRANCH   1  16
ATOM     16  C   UNL     1      -2.794 -11.036  13.132  0.00  0.00    +0.106 A 
ATOM     18  C   UNL     1      -4.121 -10.677  12.977  0.00  0.00    +0.037 A 
ATOM     19  C   UNL     1      -1.834 -10.675  12.208  0.00  0.00    +0.029 A 
ATOM     20  C   UNL     1      -4.518  -9.927  11.858  0.00  0.00    -0.016 A 
ATOM     21  C   UNL     1      -2.209  -9.929  11.090  0.00  0.00    +0.010 A 
ATOM     22  C   UNL     1      -3.548  -9.547  10.900  0.00  0.00    -0.018 A 
ATOM     24  C   UNL     1      -5.856  -9.544  11.669  0.00  0.00    +0.008 A 
ATOM     25  C   UNL     1      -3.944  -8.797   9.781  0.00  0.00    +0.008 A 
ATOM     26  C   UNL     1      -6.232  -8.799  10.550  0.00  0.00    +0.001 A 
ATOM     27  C   UNL     1      -5.278  -8.425   9.609  0.00  0.00    +0.001 A 
ENDBRANCH   1  16
ENDBRANCH   8   1
ENDBRANCH  12   8
BRANCH  13   4
ATOM      4  O   UNL     1      -7.455 -10.648  19.290  0.00  0.00    -0.442 OA
BRANCH   4  17
ATOM      7  O   UNL     1      -9.287 -11.437  18.171  0.00  0.00    -0.226 OA
ATOM      9  N   UNL     1      -8.486  -9.262  17.840  0.00  0.00    -0.251 N 
ATOM     17  C   UNL     1      -8.498 -10.526  18.397  0.00  0.00    +0.405 C 
ATOM     34  H   UNL     1      -7.746  -8.641  18.156  0.00  0.00    +0.158 HD
BRANCH   9  23
ATOM     23  C   UNL     1      -9.376  -8.723  16.884  0.00  0.00    +0.036 A 
ATOM     28  C   UNL     1     -10.252  -7.718  17.262  0.00  0.00    +0.023 A 
ATOM     29  C   UNL     1      -9.353  -9.209  15.586  0.00  0.00    +0.023 A 
ATOM     30  C   UNL     1     -11.130  -7.186  16.317  0.00  0.00    +0.002 A 
ATOM     31  C   UNL     1     -10.231  -8.676  14.642  0.00  0.00    +0.002 A 
ATOM     32  C   UNL     1     -11.120  -7.665  15.007  0.00  0.00    +0.000 A 
ENDBRANCH   9  23
ENDBRANCH   4  17
ENDBRANCH  13   4
TORSDOF 6
ENDMDL
MODEL 5
REMARK VINA RESULT:      -7.8     28.386     31.829
REMARK  Name = 11883347
REMARK  6 active torsions:
REMARK  status: ('A' for Active; 'I' for Inactive)
REMARK    1  A    between atoms: S_1  and  N_8
REMARK    2  A    between atoms: S_1  and  C_16
REMARK    3  A    between atoms: O_4  and  C_13
REMARK    4  A    between atoms: O_4  and  C_17
REMARK    5  A    between atoms: N_8  and  C_12
REMARK    6  A    between atoms: N_9  and  C_23
REMARK                            x       y       z     vdW  Elec       q    Type
REMARK                         _______ _______ _______ _____ _____    ______ ____
ROOT
ATOM      2  O   UNL     1     -10.773  -7.805  17.682  0.00  0.00    -0.369 OA
ATOM      3  O   UNL     1     -10.181  -9.162  14.998  0.00  0.00    -0.368 OA
ATOM     10  C   UNL     1      -9.310  -8.735  16.065  0.00  0.00    +0.171 C 
ATOM     11  C   UNL     1      -9.885  -7.443  16.611  0.00  0.00    +0.191 C 
ATOM     12  C   UNL     1      -9.404  -9.694  17.228  0.00  0.00    +0.133 C 
ATOM     13  C   UNL     1     -10.638  -6.893  15.423  0.00  0.00    +0.235 C 
ATOM     14  C   UNL     1     -10.654  -9.212  17.943  0.00  0.00    +0.183 C 
ATOM     15  C   UNL     1     -11.173  -8.150  14.775  0.00  0.00    +0.207 C 
ENDROOT
BRANCH  12   8
ATOM      8  N   UNL     1      -8.243  -9.600  18.080  0.00  0.00    -0.182 NA
ATOM     33  H   UNL     1      -7.736  -8.707  18.116  0.00  0.00    +0.148 HD
BRANCH   8   1
ATOM      1  S   UNL     1      -7.525 -11.014  18.689  0.00  0.00    +0.059 S 
ATOM      5  O   UNL     1      -8.275 -12.169  18.238  0.00  0.00    -0.153 OA
ATOM      6  O   UNL     1      -7.250 -10.827  20.100  0.00  0.00    -0.153 OA
BRANCH   1  16
ATOM     16  C   UNL     1      -5.965 -11.018  17.856  0.00  0.00    +0.106 A 
ATOM     18  C   UNL     1      -5.925 -10.762  16.496  0.00  0.00    +0.037 A 
ATOM     19  C   UNL     1      -4.817 -11.276  18.578  0.00  0.00    +0.029 A 
ATOM     20  C   UNL     1      -4.694 -10.762  15.820  0.00  0.00    -0.016 A 
ATOM     21  C   UNL     1      -3.586 -11.279  17.923  0.00  0.00    +0.010 A 
ATOM     22  C   UNL     1      -3.507 -11.024  16.544  0.00  0.00    -0.018 A 
ATOM     24  C   UNL     1      -4.615 -10.506  14.441  0.00  0.00    +0.008 A 
ATOM     25  C   UNL     1      -2.275 -11.025  15.868  0.00  0.00    +0.008 A 
ATOM     26  C   UNL     1      -3.383 -10.511  13.786  0.00  0.00    +0.001 A 
ATOM     27  C   UNL     1      -2.215 -10.769  14.498  0.00  0.00    +0.001 A 
ENDBRANCH   1  16
ENDBRANCH   8   1
ENDBRANCH  12   8
BRANCH  13   4
ATOM      4  O   UNL     1     -11.668  -5.997  15.774  0.00  0.00    -0.442 OA
BRANCH   4  17
ATOM      7  O   UNL     1     -13.723  -6.286  14.816  0.00  0.00    -0.226 OA
ATOM      9  N   UNL     1     -12.145  -4.810  13.917  0.00  0.00    -0.251 N 
ATOM     17  C   UNL     1     -12.627  -5.740  14.817  0.00  0.00    +0.405 C 
ATOM     34  H   UNL     1     -11.201  -4.470  14.086  0.00  0.00    +0.158 HD
BRANCH   9  23
ATOM     23  C   UNL     1     -12.800  -4.270  12.788  0.00  0.00    +0.036 A 
ATOM     28  C   UNL     1     -12.172  -4.313  11.553  0.00  0.00    +0.023 A 
ATOM     29  C   UNL     1     -14.060  -3.709  12.936  0.00  0.00    +0.023 A 
ATOM     30  C   UNL     1     -12.820  -3.780  10.438  0.00  0.00    +0.002 A 
ATOM     31  C   UNL     1     -14.706  -3.176  11.821  0.00  0.00    +0.002 A 
ATOM     32  C   UNL     1     -14.087  -3.212  10.572  0.00  0.00    +0.000 A 
ENDBRANCH   9  23
ENDBRANCH   4  17
ENDBRANCH  13   4
TORSDOF 6
ENDMDL
MODEL 6
REMARK VINA RESULT:      -7.7     27.797     31.035
REMARK  Name = 11883347
REMARK  6 active torsions:
REMARK  status: ('A' for Active; 'I' for Inactive)
REMARK    1  A    between atoms: S_1  and  N_8
REMARK    2  A    between atoms: S_1  and  C_16
REMARK    3  A    between atoms: O_4  and  C_13
REMARK    4  A    between atoms: O_4  and  C_17
REMARK    5  A    between atoms: N_8  and  C_12
REMARK    6  A    between atoms: N_9  and  C_23
REMARK                            x       y       z     vdW  Elec       q    Type
REMARK                         _______ _______ _______ _____ _____    ______ ____
ROOT
ATOM      2  O   UNL     1      -5.706 -10.259  16.953  0.00  0.00    -0.369 OA
ATOM      3  O   UNL     1      -4.417 -12.009  19.116  0.00  0.00    -0.368 OA
ATOM     10  C   UNL     1      -4.721 -12.271  17.730  0.00  0.00    +0.171 C 
ATOM     11  C   UNL     1      -6.034 -11.575  17.429  0.00  0.00    +0.191 C 
ATOM     12  C   UNL     1      -3.726 -11.569  16.838  0.00  0.00    +0.133 C 
ATOM     13  C   UNL     1      -6.698 -11.529  18.785  0.00  0.00    +0.235 C 
ATOM     14  C   UNL     1      -4.284 -10.158  16.780  0.00  0.00    +0.183 C 
ATOM     15  C   UNL     1      -5.521 -11.309  19.708  0.00  0.00    +0.207 C 
ENDROOT
BRANCH  12   8
ATOM      8  N   UNL     1      -3.681 -12.170  15.527  0.00  0.00    -0.182 NA
ATOM     33  H   UNL     1      -4.429 -12.824  15.266  0.00  0.00    +0.148 HD
BRANCH   8   1
ATOM      1  S   UNL     1      -2.252 -12.100  14.612  0.00  0.00    +0.059 S 
ATOM      5  O   UNL     1      -1.915 -13.429  14.140  0.00  0.00    -0.153 OA
ATOM      6  O   UNL     1      -1.273 -11.312  15.336  0.00  0.00    -0.153 OA
BRANCH   1  16
ATOM     16  C   UNL     1      -2.759 -11.138  13.218  0.00  0.00    +0.106 A 
ATOM     18  C   UNL     1      -4.092 -10.790  13.086  0.00  0.00    +0.037 A 
ATOM     19  C   UNL     1      -1.815 -10.752  12.288  0.00  0.00    +0.029 A 
ATOM     20  C   UNL     1      -4.511 -10.027  11.984  0.00  0.00    -0.016 A 
ATOM     21  C   UNL     1      -2.212  -9.993  11.187  0.00  0.00    +0.010 A 
ATOM     22  C   UNL     1      -3.557  -9.622  11.020  0.00  0.00    -0.018 A 
ATOM     24  C   UNL     1      -5.855  -9.655  11.818  0.00  0.00    +0.008 A 
ATOM     25  C   UNL     1      -3.975  -8.858   9.918  0.00  0.00    +0.008 A 
ATOM     26  C   UNL     1      -6.253  -8.897  10.716  0.00  0.00    +0.001 A 
ATOM     27  C   UNL     1      -5.315  -8.499   9.768  0.00  0.00    +0.001 A 
ENDBRANCH   1  16
ENDBRANCH   8   1
ENDBRANCH  12   8
BRANCH  13   4
ATOM      4  O   UNL     1      -7.665 -10.510  18.904  0.00  0.00    -0.442 OA
BRANCH   4  17
ATOM      7  O   UNL     1      -9.267 -12.057  19.424  0.00  0.00    -0.226 OA
ATOM      9  N   UNL     1      -9.815  -9.832  18.949  0.00  0.00    -0.251 N 
ATOM     17  C   UNL     1      -8.967 -10.908  19.123  0.00  0.00    +0.405 C 
ATOM     34  H   UNL     1      -9.374  -8.950  18.697  0.00  0.00    +0.158 HD
BRANCH   9  23
ATOM     23  C   UNL     1     -11.222  -9.802  19.076  0.00  0.00    +0.036 A 
ATOM     28  C   UNL     1     -11.797 -10.022  20.318  0.00  0.00    +0.023 A 
ATOM     29  C   UNL     1     -12.000  -9.553  17.956  0.00  0.00    +0.023 A 
ATOM     30  C   UNL     1     -13.186  -9.992  20.443  0.00  0.00    +0.002 A 
ATOM     31  C   UNL     1     -13.389  -9.523  18.081  0.00  0.00    +0.002 A 
ATOM     32  C   UNL     1     -13.982  -9.743  19.325  0.00  0.00    +0.000 A 
ENDBRANCH   9  23
ENDBRANCH   4  17
ENDBRANCH  13   4
TORSDOF 6
ENDMDL
MODEL 7
REMARK VINA RESULT:      -7.5      6.431      9.392
REMARK  Name = 11883347
REMARK  6 active torsions:
REMARK  status: ('A' for Active; 'I' for Inactive)
REMARK    1  A    between atoms: S_1  and  N_8
REMARK    2  A    between atoms: S_1  and  C_16
REMARK    3  A    between atoms: O_4  and  C_13
REMARK    4  A    between atoms: O_4  and  C_17
REMARK    5  A    between atoms: N_8  and  C_12
REMARK    6  A    between atoms: N_9  and  C_23
REMARK                            x       y       z     vdW  Elec       q    Type
REMARK                         _______ _______ _______ _____ _____    ______ ____
ROOT
ATOM      2  O   UNL     1      13.650   9.291  15.139  0.00  0.00    -0.369 OA
ATOM      3  O   UNL     1      15.326  11.163  16.896  0.00  0.00    -0.368 OA
ATOM     10  C   UNL     1      13.950  10.738  16.992  0.00  0.00    +0.171 C 
ATOM     11  C   UNL     1      13.421  10.641  15.576  0.00  0.00    +0.191 C 
ATOM     12  C   UNL     1      13.879   9.320  17.505  0.00  0.00    +0.133 C 
ATOM     13  C   UNL     1      14.293  11.625  14.832  0.00  0.00    +0.235 C 
ATOM     14  C   UNL     1      14.128   8.509  16.245  0.00  0.00    +0.183 C 
ATOM     15  C   UNL     1      15.626  11.454  15.523  0.00  0.00    +0.207 C 
ENDROOT
BRANCH  12   8
ATOM      8  N   UNL     1      12.583   9.030  18.068  0.00  0.00    -0.182 NA
ATOM     33  H   UNL     1      11.797   9.646  17.824  0.00  0.00    +0.148 HD
BRANCH   8   1
ATOM      1  S   UNL     1      12.450   7.956  19.377  0.00  0.00    +0.059 S 
ATOM      5  O   UNL     1      12.094   6.639  18.887  0.00  0.00    -0.153 OA
ATOM      6  O   UNL     1      11.661   8.586  20.418  0.00  0.00    -0.153 OA
BRANCH   1  16
ATOM     16  C   UNL     1      14.116   7.889  19.963  0.00  0.00    +0.106 A 
ATOM     18  C   UNL     1      14.973   6.929  19.453  0.00  0.00    +0.037 A 
ATOM     19  C   UNL     1      14.531   8.795  20.918  0.00  0.00    +0.029 A 
ATOM     20  C   UNL     1      16.300   6.861  19.908  0.00  0.00    -0.016 A 
ATOM     21  C   UNL     1      15.846   8.743  21.382  0.00  0.00    +0.010 A 
ATOM     22  C   UNL     1      16.743   7.782  20.887  0.00  0.00    -0.018 A 
ATOM     24  C   UNL     1      17.198   5.901  19.413  0.00  0.00    +0.008 A 
ATOM     25  C   UNL     1      18.070   7.715  21.343  0.00  0.00    +0.008 A 
ATOM     26  C   UNL     1      18.512   5.848  19.877  0.00  0.00    +0.001 A 
ATOM     27  C   UNL     1      18.948   6.754  20.840  0.00  0.00    +0.001 A 
ENDBRANCH   1  16
ENDBRANCH   8   1
ENDBRANCH  12   8
BRANCH  13   4
ATOM      4  O   UNL     1      14.375  11.370  13.448  0.00  0.00    -0.442 OA
BRANCH   4  17
ATOM      7  O   UNL     1      14.860  13.490  12.741  0.00  0.00    -0.226 OA
ATOM      9  N   UNL     1      15.992  11.624  11.897  0.00  0.00    -0.251 N 
ATOM     17  C   UNL     1      15.071  12.285  12.685  0.00  0.00    +0.405 C 
ATOM     34  H   UNL     1      16.019  10.611  11.991  0.00  0.00    +0.158 HD
BRANCH   9  23
ATOM     23  C   UNL     1      16.905  12.179  10.973  0.00  0.00    +0.036 A 
ATOM     28  C   UNL     1      18.241  12.295  11.323  0.00  0.00    +0.023 A 
ATOM     29  C   UNL     1      16.447  12.596   9.732  0.00  0.00    +0.023 A 
ATOM     30  C   UNL     1      19.142  12.844  10.410  0.00  0.00    +0.002 A 
ATOM     31  C   UNL     1      17.348  13.144   8.820  0.00  0.00    +0.002 A 
ATOM     32  C   UNL     1      18.696  13.268   9.159  0.00  0.00    +0.000 A 
ENDBRANCH   9  23
ENDBRANCH   4  17
ENDBRANCH  13   4
TORSDOF 6
ENDMDL
MODEL 8
REMARK VINA RESULT:      -7.5     27.917     30.092
REMARK  Name = 11883347
REMARK  6 active torsions:
REMARK  status: ('A' for Active; 'I' for Inactive)
REMARK    1  A    between atoms: S_1  and  N_8
REMARK    2  A    between atoms: S_1  and  C_16
REMARK    3  A    between atoms: O_4  and  C_13
REMARK    4  A    between atoms: O_4  and  C_17
REMARK    5  A    between atoms: N_8  and  C_12
REMARK    6  A    between atoms: N_9  and  C_23
REMARK                            x       y       z     vdW  Elec       q    Type
REMARK                         _______ _______ _______ _____ _____    ______ ____
ROOT
ATOM      2  O   UNL     1      -6.500 -11.972  17.119  0.00  0.00    -0.369 OA
ATOM      3  O   UNL     1      -5.240 -11.472  19.869  0.00  0.00    -0.368 OA
ATOM     10  C   UNL     1      -6.183 -10.702  19.095  0.00  0.00    +0.171 C 
ATOM     11  C   UNL     1      -5.779 -10.844  17.641  0.00  0.00    +0.191 C 
ATOM     12  C   UNL     1      -7.549 -11.342  19.156  0.00  0.00    +0.133 C 
ATOM     13  C   UNL     1      -4.298 -11.123  17.740  0.00  0.00    +0.235 C 
ATOM     14  C   UNL     1      -7.443 -12.428  18.100  0.00  0.00    +0.183 C 
ATOM     15  C   UNL     1      -4.215 -11.965  18.993  0.00  0.00    +0.207 C 
ENDROOT
BRANCH  12   8
ATOM      8  N   UNL     1      -8.587 -10.393  18.831  0.00  0.00    -0.182 NA
ATOM     33  H   UNL     1      -8.310  -9.467  18.487  0.00  0.00    +0.148 HD
BRANCH   8   1
ATOM      1  S   UNL     1     -10.177 -10.664  19.365  0.00  0.00    +0.059 S 
ATOM      5  O   UNL     1     -10.322 -10.167  20.720  0.00  0.00    -0.153 OA
ATOM      6  O   UNL     1     -10.552 -12.027  19.043  0.00  0.00    -0.153 OA
BRANCH   1  16
ATOM     16  C   UNL     1     -11.105  -9.607  18.294  0.00  0.00    +0.106 A 
ATOM     18  C   UNL     1     -10.451  -8.603  17.602  0.00  0.00    +0.037 A 
ATOM     19  C   UNL     1     -12.466  -9.804  18.169  0.00  0.00    +0.029 A 
ATOM     20  C   UNL     1     -11.174  -7.755  16.748  0.00  0.00    -0.016 A 
ATOM     21  C   UNL     1     -13.201  -8.971  17.325  0.00  0.00    +0.010 A 
ATOM     22  C   UNL     1     -12.570  -7.942  16.607  0.00  0.00    -0.018 A 
ATOM     24  C   UNL     1     -10.543  -6.727  16.029  0.00  0.00    +0.008 A 
ATOM     25  C   UNL     1     -13.294  -7.093  15.753  0.00  0.00    +0.008 A 
ATOM     26  C   UNL     1     -11.278  -5.893  15.185  0.00  0.00    +0.001 A 
ATOM     27  C   UNL     1     -12.651  -6.076  15.047  0.00  0.00    +0.001 A 
ENDBRANCH   1  16
ENDBRANCH   8   1
ENDBRANCH  12   8
BRANCH  13   4
ATOM      4  O   UNL     1      -3.775 -11.792  16.615  0.00  0.00    -0.442 OA
BRANCH   4  17
ATOM      7  O   UNL     1      -2.259 -10.232  15.912  0.00  0.00    -0.226 OA
ATOM      9  N   UNL     1      -3.733 -11.271  14.421  0.00  0.00    -0.251 N 
ATOM     17  C   UNL     1      -3.165 -11.014  15.653  0.00  0.00    +0.405 C 
ATOM     34  H   UNL     1      -4.481 -11.960  14.407  0.00  0.00    +0.158 HD
BRANCH   9  23
ATOM     23  C   UNL     1      -3.406 -10.693  13.174  0.00  0.00    +0.036 A 
ATOM     28  C   UNL     1      -4.422 -10.247  12.344  0.00  0.00    +0.023 A 
ATOM     29  C   UNL     1      -2.074 -10.583  12.804  0.00  0.00    +0.023 A 
ATOM     30  C   UNL     1      -4.098  -9.676  11.113  0.00  0.00    +0.002 A 
ATOM     31  C   UNL     1      -1.751 -10.012  11.573  0.00  0.00    +0.002 A 
ATOM     32  C   UNL     1      -2.763  -9.559  10.727  0.00  0.00    +0.000 A 
ENDBRANCH   9  23
ENDBRANCH   4  17
ENDBRANCH  13   4
TORSDOF 6
ENDMDL
MODEL 9
REMARK VINA RESULT:      -7.5     26.962     30.975
REMARK  Name = 11883347
REMARK  6 active torsions:
REMARK  status: ('A' for Active; 'I' for Inactive)
REMARK    1  A    between atoms: S_1  and  N_8
REMARK    2  A    between atoms: S_1  and  C_16
REMARK    3  A    between atoms: O_4  and  C_13
REMARK    4  A    between atoms: O_4  and  C_17
REMARK    5  A    between atoms: N_8  and  C_12
REMARK    6  A    between atoms: N_9  and  C_23
REMARK                            x       y       z     vdW  Elec       q    Type
REMARK                         _______ _______ _______ _____ _____    ______ ____
ROOT
ATOM      2  O   UNL     1     -15.638   6.677  23.688  0.00  0.00    -0.369 OA
ATOM      3  O   UNL     1     -16.296   4.143  22.093  0.00  0.00    -0.368 OA
ATOM     10  C   UNL     1     -15.658   4.328  23.374  0.00  0.00    +0.171 C 
ATOM     11  C   UNL     1     -14.811   5.580  23.266  0.00  0.00    +0.191 C 
ATOM     12  C   UNL     1     -16.688   4.676  24.422  0.00  0.00    +0.133 C 
ATOM     13  C   UNL     1     -14.508   5.643  21.788  0.00  0.00    +0.235 C 
ATOM     14  C   UNL     1     -16.876   6.168  24.206  0.00  0.00    +0.183 C 
ATOM     15  C   UNL     1     -15.790   5.125  21.178  0.00  0.00    +0.207 C 
ENDROOT
BRANCH  12   8
ATOM      8  N   UNL     1     -16.201   4.395  25.750  0.00  0.00    -0.182 NA
ATOM     33  H   UNL     1     -15.288   3.933  25.846  0.00  0.00    +0.148 HD
BRANCH   8   1
ATOM      1  S   UNL     1     -17.262   4.470  27.074  0.00  0.00    +0.059 S 
ATOM      5  O   UNL     1     -18.457   3.704  26.779  0.00  0.00    -0.153 OA
ATOM      6  O   UNL     1     -17.367   5.849  27.510  0.00  0.00    -0.153 OA
BRANCH   1  16
ATOM     16  C   UNL     1     -16.353   3.603  28.319  0.00  0.00    +0.106 A 
ATOM     18  C   UNL     1     -15.833   4.309  29.390  0.00  0.00    +0.037 A 
ATOM     19  C   UNL     1     -16.181   2.239  28.199  0.00  0.00    +0.029 A 
ATOM     20  C   UNL     1     -15.108   3.636  30.387  0.00  0.00    -0.016 A 
ATOM     21  C   UNL     1     -15.464   1.553  29.180  0.00  0.00    +0.010 A 
ATOM     22  C   UNL     1     -14.921   2.238  30.281  0.00  0.00    -0.018 A 
ATOM     24  C   UNL     1     -14.566   4.320  31.488  0.00  0.00    +0.008 A 
ATOM     25  C   UNL     1     -14.197   1.563  31.278  0.00  0.00    +0.008 A 
ATOM     26  C   UNL     1     -13.849   3.634  32.468  0.00  0.00    +0.001 A 
ATOM     27  C   UNL     1     -13.665   2.259  32.364  0.00  0.00    +0.001 A 
ENDBRANCH   1  16
ENDBRANCH   8   1
ENDBRANCH  12   8
BRANCH  13   4
ATOM      4  O   UNL     1     -14.188   6.939  21.334  0.00  0.00    -0.442 OA
BRANCH   4  17
ATOM      7  O   UNL     1     -11.958   6.485  21.115  0.00  0.00    -0.226 OA
ATOM      9  N   UNL     1     -13.031   8.057  19.754  0.00  0.00    -0.251 N 
ATOM     17  C   UNL     1     -12.948   7.109  20.754  0.00  0.00    +0.405 C 
ATOM     34  H   UNL     1     -13.949   8.469  19.601  0.00  0.00    +0.158 HD
BRANCH   9  23
ATOM     23  C   UNL     1     -11.998   8.529  18.914  0.00  0.00    +0.036 A 
ATOM     28  C   UNL     1     -11.956   8.117  17.591  0.00  0.00    +0.023 A 
ATOM     29  C   UNL     1     -11.047   9.397  19.428  0.00  0.00    +0.023 A 
ATOM     30  C   UNL     1     -10.935   8.584  16.762  0.00  0.00    +0.002 A 
ATOM     31  C   UNL     1     -10.027   9.863  18.598  0.00  0.00    +0.002 A 
ATOM     32  C   UNL     1      -9.971   9.457  17.265  0.00  0.00    +0.000 A 
ENDBRANCH   9  23
ENDBRANCH   4  17
ENDBRANCH  13   4
TORSDOF 6
ENDMDL
MODEL 10
REMARK VINA RESULT:      -7.3     28.347     31.148
REMARK  Name = 11883347
REMARK  6 active torsions:
REMARK  status: ('A' for Active; 'I' for Inactive)
REMARK    1  A    between atoms: S_1  and  N_8
REMARK    2  A    between atoms: S_1  and  C_16
REMARK    3  A    between atoms: O_4  and  C_13
REMARK    4  A    between atoms: O_4  and  C_17
REMARK    5  A    between atoms: N_8  and  C_12
REMARK    6  A    between atoms: N_9  and  C_23
REMARK                            x       y       z     vdW  Elec       q    Type
REMARK                         _______ _______ _______ _____ _____    ______ ____
ROOT
ATOM      2  O   UNL     1      -5.391 -13.575  16.681  0.00  0.00    -0.369 OA
ATOM      3  O   UNL     1      -4.810 -10.652  15.959  0.00  0.00    -0.368 OA
ATOM     10  C   UNL     1      -3.934 -11.784  16.141  0.00  0.00    +0.171 C 
ATOM     11  C   UNL     1      -4.510 -12.607  17.276  0.00  0.00    +0.191 C 
ATOM     12  C   UNL     1      -4.019 -12.704  14.947  0.00  0.00    +0.133 C 
ATOM     13  C   UNL     1      -5.271 -11.575  18.075  0.00  0.00    +0.235 C 
ATOM     14  C   UNL     1      -5.266 -13.515  15.252  0.00  0.00    +0.183 C 
ATOM     15  C   UNL     1      -5.807 -10.666  16.992  0.00  0.00    +0.207 C 
ENDROOT
BRANCH  12   8
ATOM      8  N   UNL     1      -2.853 -13.549  14.853  0.00  0.00    -0.182 NA
ATOM     33  H   UNL     1      -2.266 -13.664  15.688  0.00  0.00    +0.148 HD
BRANCH   8   1
ATOM      1  S   UNL     1      -2.268 -14.016  13.328  0.00  0.00    +0.059 S 
ATOM      5  O   UNL     1      -3.118 -15.056  12.783  0.00  0.00    -0.153 OA
ATOM      6  O   UNL     1      -0.835 -14.217  13.420  0.00  0.00    -0.153 OA
BRANCH   1  16
ATOM     16  C   UNL     1      -2.522 -12.549  12.376  0.00  0.00    +0.106 A 
ATOM     18  C   UNL     1      -3.429 -12.570  11.330  0.00  0.00    +0.037 A 
ATOM     19  C   UNL     1      -1.810 -11.409  12.692  0.00  0.00    +0.029 A 
ATOM     20  C   UNL     1      -3.642 -11.413  10.563  0.00  0.00    -0.016 A 
ATOM     21  C   UNL     1      -2.009 -10.250  11.942  0.00  0.00    +0.010 A 
ATOM     22  C   UNL     1      -2.922 -10.235  10.874  0.00  0.00    -0.018 A 
ATOM     24  C   UNL     1      -4.555 -11.399   9.496  0.00  0.00    +0.008 A 
ATOM     25  C   UNL     1      -3.134  -9.078  10.107  0.00  0.00    +0.008 A 
ATOM     26  C   UNL     1      -4.753 -10.240   8.745  0.00  0.00    +0.001 A 
ATOM     27  C   UNL     1      -4.045  -9.082   9.050  0.00  0.00    +0.001 A 
ENDBRANCH   1  16
ENDBRANCH   8   1
ENDBRANCH  12   8
BRANCH  13   4
ATOM      4  O   UNL     1      -6.301 -12.123  18.866  0.00  0.00    -0.442 OA
BRANCH   4  17
ATOM      7  O   UNL     1      -7.023 -10.337  20.097  0.00  0.00    -0.226 OA
ATOM      9  N   UNL     1      -8.490 -11.588  18.771  0.00  0.00    -0.251 N 
ATOM     17  C   UNL     1      -7.269 -11.252  19.321  0.00  0.00    +0.405 C 
ATOM     34  H   UNL     1      -8.494 -12.389  18.143  0.00  0.00    +0.158 HD
BRANCH   9  23
ATOM     23  C   UNL     1      -9.739 -10.958  18.971  0.00  0.00    +0.036 A 
ATOM     28  C   UNL     1     -10.162  -9.989  18.076  0.00  0.00    +0.023 A 
ATOM     29  C   UNL     1     -10.517 -11.323  20.060  0.00  0.00    +0.023 A 
ATOM     30  C   UNL     1     -11.396  -9.367  18.275  0.00  0.00    +0.002 A 
ATOM     31  C   UNL     1     -11.749 -10.701  20.258  0.00  0.00    +0.002 A 
ATOM     32  C   UNL     1     -12.189  -9.724  19.365  0.00  0.00    +0.000 A 
ENDBRANCH   9  23
ENDBRANCH   4  17
ENDBRANCH  13   4
TORSDOF 6
ENDMDL
