REMARK  Name = 11913377
REMARK  5 active torsions:
REMARK  status: ('A' for Active; 'I' for Inactive)
REMARK    1  A    between atoms: N_4  and  C_10
REMARK    2  A    between atoms: N_4  and  C_14
REMARK    3  A    between atoms: N_5  and  C_11
REMARK    4  A    between atoms: C_14  and  C_16
REMARK    5  A    between atoms: C_19  and  C_25
REMARK                            x       y       z     vdW  Elec       q    Type
REMARK                         _______ _______ _______ _____ _____    ______ ____
ROOT
ATOM      2  O   UNL     1      -0.519   0.898   2.164  0.00  0.00    -0.370 OA
ATOM      3  O   UNL     1      -1.624   3.444   0.726  0.00  0.00    -0.370 OA
ATOM      8  C   UNL     1      -1.838   2.034   0.542  0.00  0.00    +0.168 C 
ATOM      9  C   UNL     1      -0.515   1.339   0.796  0.00  0.00    +0.171 C 
ATOM     10  C   UNL     1      -2.749   1.499   1.620  0.00  0.00    +0.111 C 
ATOM     11  C   UNL     1       0.517   2.425   0.599  0.00  0.00    +0.130 C 
ATOM     12  C   UNL     1      -1.788   1.209   2.756  0.00  0.00    +0.181 C 
ATOM     13  C   UNL     1      -0.236   3.678   1.006  0.00  0.00    +0.185 C 
ENDROOT
BRANCH  11   5
ATOM      5  N   UNL     1       0.896   2.501  -0.795  0.00  0.00    -0.306 N 
ATOM      6  N   UNL     1       2.507   0.810  -0.563  0.00  0.00    -0.214 NA
ATOM      7  N   UNL     1       2.132   1.878  -2.690  0.00  0.00    -0.223 NA
ATOM     15  C   UNL     1       1.874   1.706  -1.367  0.00  0.00    +0.216 A 
ATOM     19  C   UNL     1       3.454   0.052  -1.152  0.00  0.00    +0.076 A 
ATOM     20  C   UNL     1       3.091   1.087  -3.215  0.00  0.00    +0.116 A 
ATOM     23  C   UNL     1       3.792   0.147  -2.487  0.00  0.00    +0.048 A 
ATOM     32  H   UNL     1       0.395   3.127  -1.415  0.00  0.00    +0.149 HD
BRANCH  19  25
ATOM      1  F   UNL     1       3.405  -2.872   2.691  0.00  0.00    -0.205 F 
ATOM     25  C   UNL     1       4.113  -0.893  -0.282  0.00  0.00    +0.003 A 
ATOM     26  C   UNL     1       3.428  -1.438   0.807  0.00  0.00    +0.048 A 
ATOM     27  C   UNL     1       5.437  -1.265  -0.525  0.00  0.00    +0.010 A 
ATOM     28  C   UNL     1       4.064  -2.351   1.648  0.00  0.00    +0.124 A 
ATOM     29  C   UNL     1       6.073  -2.178   0.316  0.00  0.00    +0.003 A 
ATOM     30  C   UNL     1       5.387  -2.721   1.403  0.00  0.00    +0.038 A 
ENDBRANCH  19  25
ENDBRANCH  11   5
BRANCH  10   4
ATOM      4  N   UNL     1      -3.375   0.235   1.162  0.00  0.00    -0.305 NA
ATOM     31  H   UNL     1      -3.881  -0.181   1.944  0.00  0.00    +0.123 HD
BRANCH   4  14
ATOM     14  C   UNL     1      -4.295   0.483   0.064  0.00  0.00    +0.116 C 
BRANCH  14  16
ATOM     16  C   UNL     1      -4.943  -0.786  -0.423  0.00  0.00    -0.034 A 
ATOM     17  C   UNL     1      -4.337  -1.518  -1.434  0.00  0.00    +0.005 A 
ATOM     18  C   UNL     1      -6.138  -1.205   0.146  0.00  0.00    +0.005 A 
ATOM     21  C   UNL     1      -4.937  -2.694  -1.885  0.00  0.00    +0.000 A 
ATOM     22  C   UNL     1      -6.738  -2.380  -0.305  0.00  0.00    +0.000 A 
ATOM     24  C   UNL     1      -6.138  -3.125  -1.321  0.00  0.00    +0.000 A 
ENDBRANCH  14  16
ENDBRANCH   4  14
ENDBRANCH  10   4
TORSDOF 5
