MODEL 1
REMARK VINA RESULT:      -7.2      0.000      0.000
REMARK  Name = 40777833
REMARK  11 active torsions:
REMARK  status: ('A' for Active; 'I' for Inactive)
REMARK    1  A    between atoms: O_2  and  C_8
REMARK    2  A    between atoms: O_3  and  C_9
REMARK    3  A    between atoms: N_6  and  C_13
REMARK    4  A    between atoms: N_7  and  C_15
REMARK    5  A    between atoms: C_10  and  C_12
REMARK    6  A    between atoms: C_11  and  C_13
REMARK    7  A    between atoms: C_12  and  C_14
REMARK    8  A    between atoms: C_15  and  C_18
REMARK    9  A    between atoms: C_15  and  C_19
REMARK   10  A    between atoms: C_16  and  C_17
REMARK   11  A    between atoms: C_24  and  C_25
REMARK                            x       y       z     vdW  Elec       q    Type
REMARK                         _______ _______ _______ _____ _____    ______ ____
ROOT
ATOM      1  O   UNL     1      13.292   6.698  20.204  0.00  0.00    -0.366 OA
ATOM      8  C   UNL     1      11.796   8.337  19.407  0.00  0.00    +0.175 C 
ATOM      9  C   UNL     1      12.666   7.897  18.247  0.00  0.00    +0.176 C 
ATOM     10  C   UNL     1      11.939   7.162  20.358  0.00  0.00    +0.158 C 
ATOM     11  C   UNL     1      13.826   7.212  18.963  0.00  0.00    +0.167 C 
ENDROOT
BRANCH   8   2
ATOM      2  O   UNL     1      10.452   8.564  19.042  0.00  0.00    -0.387 OA
ATOM     26  H   UNL     1       9.905   7.932  19.540  0.00  0.00    +0.210 HD
ENDBRANCH   8   2
BRANCH   9   3
ATOM      3  O   UNL     1      11.987   6.916  17.464  0.00  0.00    -0.387 OA
ATOM     27  H   UNL     1      11.958   7.244  16.549  0.00  0.00    +0.210 HD
ENDBRANCH   9   3
BRANCH  10  12
ATOM     12  C   UNL     1      11.685   7.527  21.809  0.00  0.00    +0.130 C 
BRANCH  12  14
ATOM      4  O   UNL     1      13.489   9.089  22.201  0.00  0.00    -0.276 OA
ATOM      7  N   UNL     1      11.295   9.793  22.504  0.00  0.00    -0.313 N 
ATOM     14  C   UNL     1      12.281   8.870  22.185  0.00  0.00    +0.216 C 
ATOM     29  H   UNL     1      10.319   9.528  22.412  0.00  0.00    +0.149 HD
BRANCH   7  15
ATOM     15  C   UNL     1      11.586  11.152  22.900  0.00  0.00    +0.067 C 
ATOM     18  C   UNL     1      11.258  12.121  21.769  0.00  0.00    +0.027 C 
ATOM     19  C   UNL     1      10.823  11.509  24.169  0.00  0.00    +0.027 C 
ENDBRANCH   7  15
ENDBRANCH  12  14
ENDBRANCH  10  12
BRANCH  11  13
ATOM     13  C   UNL     1      14.963   8.166  19.303  0.00  0.00    +0.138 C 
BRANCH  13   6
ATOM      5  O   UNL     1      16.660   8.487  21.597  0.00  0.00    -0.270 OA
ATOM      6  N   UNL     1      16.173   7.451  19.578  0.00  0.00    -0.309 N 
ATOM     16  C   UNL     1      16.937   7.672  20.721  0.00  0.00    +0.244 C 
ATOM     28  H   UNL     1      16.490   6.802  18.866  0.00  0.00    +0.149 HD
BRANCH  16  17
ATOM     17  C   UNL     1      18.180   6.867  20.846  0.00  0.00    +0.037 A 
ATOM     20  C   UNL     1      19.086   7.139  21.871  0.00  0.00    +0.013 A 
ATOM     21  C   UNL     1      18.441   5.841  19.939  0.00  0.00    +0.013 A 
ATOM     22  C   UNL     1      20.253   6.383  21.990  0.00  0.00    +0.004 A 
ATOM     23  C   UNL     1      19.608   5.085  20.057  0.00  0.00    +0.004 A 
ATOM     24  C   UNL     1      20.513   5.356  21.082  0.00  0.00    -0.050 A 
ATOM     25  C   UNL     1      21.761   4.548  21.207  0.00  0.00    +0.044 C 
ENDBRANCH  16  17
ENDBRANCH  13   6
ENDBRANCH  11  13
TORSDOF 8
ENDMDL
MODEL 2
REMARK VINA RESULT:      -7.0      2.375      3.856
REMARK  Name = 40777833
REMARK  11 active torsions:
REMARK  status: ('A' for Active; 'I' for Inactive)
REMARK    1  A    between atoms: O_2  and  C_8
REMARK    2  A    between atoms: O_3  and  C_9
REMARK    3  A    between atoms: N_6  and  C_13
REMARK    4  A    between atoms: N_7  and  C_15
REMARK    5  A    between atoms: C_10  and  C_12
REMARK    6  A    between atoms: C_11  and  C_13
REMARK    7  A    between atoms: C_12  and  C_14
REMARK    8  A    between atoms: C_15  and  C_18
REMARK    9  A    between atoms: C_15  and  C_19
REMARK   10  A    between atoms: C_16  and  C_17
REMARK   11  A    between atoms: C_24  and  C_25
REMARK                            x       y       z     vdW  Elec       q    Type
REMARK                         _______ _______ _______ _____ _____    ______ ____
ROOT
ATOM      1  O   UNL     1      13.384   8.742  19.692  0.00  0.00    -0.366 OA
ATOM      8  C   UNL     1      11.492   7.541  20.426  0.00  0.00    +0.175 C 
ATOM      9  C   UNL     1      12.531   7.490  21.527  0.00  0.00    +0.176 C 
ATOM     10  C   UNL     1      11.947   8.755  19.634  0.00  0.00    +0.158 C 
ATOM     11  C   UNL     1      13.801   7.889  20.783  0.00  0.00    +0.167 C 
ENDROOT
BRANCH   8   2
ATOM      2  O   UNL     1      10.174   7.687  20.908  0.00  0.00    -0.387 OA
ATOM     26  H   UNL     1      10.051   8.623  21.142  0.00  0.00    +0.210 HD
ENDBRANCH   8   2
BRANCH   9   3
ATOM      3  O   UNL     1      12.261   8.490  22.509  0.00  0.00    -0.387 OA
ATOM     27  H   UNL     1      11.564   8.143  23.092  0.00  0.00    +0.210 HD
ENDBRANCH   9   3
BRANCH  10  12
ATOM     12  C   UNL     1      11.493   8.733  18.185  0.00  0.00    +0.130 C 
BRANCH  12  14
ATOM      4  O   UNL     1      13.142   7.870  16.639  0.00  0.00    -0.276 OA
ATOM      7  N   UNL     1      13.070  10.154  17.060  0.00  0.00    -0.313 N 
ATOM     14  C   UNL     1      12.651   8.840  17.210  0.00  0.00    +0.216 C 
ATOM     29  H   UNL     1      12.566  10.893  17.540  0.00  0.00    +0.149 HD
BRANCH   7  15
ATOM     15  C   UNL     1      14.159  10.541  16.192  0.00  0.00    +0.067 C 
ATOM     18  C   UNL     1      13.630  11.276  14.966  0.00  0.00    +0.027 C 
ATOM     19  C   UNL     1      15.166  11.393  16.953  0.00  0.00    +0.027 C 
ENDBRANCH   7  15
ENDBRANCH  12  14
ENDBRANCH  10  12
BRANCH  11  13
ATOM     13  C   UNL     1      14.542   6.699  20.187  0.00  0.00    +0.138 C 
BRANCH  13   6
ATOM      5  O   UNL     1      16.736   5.640  18.668  0.00  0.00    -0.270 OA
ATOM      6  N   UNL     1      15.925   6.712  20.560  0.00  0.00    -0.309 N 
ATOM     16  C   UNL     1      16.928   6.173  19.758  0.00  0.00    +0.244 C 
ATOM     28  H   UNL     1      16.146   7.086  21.476  0.00  0.00    +0.149 HD
BRANCH  16  17
ATOM     17  C   UNL     1      18.310   6.241  20.299  0.00  0.00    +0.037 A 
ATOM     20  C   UNL     1      18.696   7.322  21.092  0.00  0.00    +0.013 A 
ATOM     21  C   UNL     1      19.221   5.224  20.014  0.00  0.00    +0.013 A 
ATOM     22  C   UNL     1      19.993   7.386  21.601  0.00  0.00    +0.004 A 
ATOM     23  C   UNL     1      20.519   5.288  20.524  0.00  0.00    +0.004 A 
ATOM     24  C   UNL     1      20.904   6.368  21.317  0.00  0.00    -0.050 A 
ATOM     25  C   UNL     1      22.292   6.437  21.860  0.00  0.00    +0.044 C 
ENDBRANCH  16  17
ENDBRANCH  13   6
ENDBRANCH  11  13
TORSDOF 8
ENDMDL
MODEL 3
REMARK VINA RESULT:      -6.7      1.736      2.313
REMARK  Name = 40777833
REMARK  11 active torsions:
REMARK  status: ('A' for Active; 'I' for Inactive)
REMARK    1  A    between atoms: O_2  and  C_8
REMARK    2  A    between atoms: O_3  and  C_9
REMARK    3  A    between atoms: N_6  and  C_13
REMARK    4  A    between atoms: N_7  and  C_15
REMARK    5  A    between atoms: C_10  and  C_12
REMARK    6  A    between atoms: C_11  and  C_13
REMARK    7  A    between atoms: C_12  and  C_14
REMARK    8  A    between atoms: C_15  and  C_18
REMARK    9  A    between atoms: C_15  and  C_19
REMARK   10  A    between atoms: C_16  and  C_17
REMARK   11  A    between atoms: C_24  and  C_25
REMARK                            x       y       z     vdW  Elec       q    Type
REMARK                         _______ _______ _______ _____ _____    ______ ____
ROOT
ATOM      1  O   UNL     1      13.457   8.703  21.556  0.00  0.00    -0.366 OA
ATOM      8  C   UNL     1      11.582   8.091  20.262  0.00  0.00    +0.175 C 
ATOM      9  C   UNL     1      12.298   6.821  20.674  0.00  0.00    +0.176 C 
ATOM     10  C   UNL     1      12.092   9.077  21.299  0.00  0.00    +0.158 C 
ATOM     11  C   UNL     1      13.667   7.350  21.092  0.00  0.00    +0.167 C 
ENDROOT
BRANCH   8   2
ATOM      2  O   UNL     1      10.176   7.973  20.288  0.00  0.00    -0.387 OA
ATOM     26  H   UNL     1       9.957   7.055  20.056  0.00  0.00    +0.210 HD
ENDBRANCH   8   2
BRANCH   9   3
ATOM      3  O   UNL     1      11.673   6.252  21.824  0.00  0.00    -0.387 OA
ATOM     27  H   UNL     1      11.076   6.925  22.193  0.00  0.00    +0.210 HD
ENDBRANCH   9   3
BRANCH  10  12
ATOM     12  C   UNL     1      12.037  10.522  20.834  0.00  0.00    +0.130 C 
BRANCH  12  14
ATOM      4  O   UNL     1      10.882  12.389  21.851  0.00  0.00    -0.276 OA
ATOM      7  N   UNL     1      12.445  11.206  23.100  0.00  0.00    -0.313 N 
ATOM     14  C   UNL     1      11.705  11.484  21.960  0.00  0.00    +0.216 C 
ATOM     29  H   UNL     1      13.065  10.402  23.106  0.00  0.00    +0.149 HD
BRANCH   7  15
ATOM     15  C   UNL     1      12.328  11.970  24.321  0.00  0.00    +0.067 C 
ATOM     18  C   UNL     1      11.119  11.510  25.127  0.00  0.00    +0.027 C 
ATOM     19  C   UNL     1      13.609  11.862  25.139  0.00  0.00    +0.027 C 
ENDBRANCH   7  15
ENDBRANCH  12  14
ENDBRANCH  10  12
BRANCH  11  13
ATOM     13  C   UNL     1      14.663   7.400  19.941  0.00  0.00    +0.138 C 
BRANCH  13   6
ATOM      5  O   UNL     1      16.600   5.685  18.695  0.00  0.00    -0.270 OA
ATOM      6  N   UNL     1      15.995   7.141  20.399  0.00  0.00    -0.309 N 
ATOM     16  C   UNL     1      16.871   6.291  19.729  0.00  0.00    +0.244 C 
ATOM     28  H   UNL     1      16.264   7.566  21.279  0.00  0.00    +0.149 HD
BRANCH  16  17
ATOM     17  C   UNL     1      18.209   6.106  20.347  0.00  0.00    +0.037 A 
ATOM     20  C   UNL     1      18.580   6.877  21.450  0.00  0.00    +0.013 A 
ATOM     21  C   UNL     1      19.095   5.163  19.826  0.00  0.00    +0.013 A 
ATOM     22  C   UNL     1      19.836   6.703  22.032  0.00  0.00    +0.004 A 
ATOM     23  C   UNL     1      20.351   4.990  20.408  0.00  0.00    +0.004 A 
ATOM     24  C   UNL     1      20.721   5.759  21.510  0.00  0.00    -0.050 A 
ATOM     25  C   UNL     1      22.065   5.575  22.131  0.00  0.00    +0.044 C 
ENDBRANCH  16  17
ENDBRANCH  13   6
ENDBRANCH  11  13
TORSDOF 8
ENDMDL
MODEL 4
REMARK VINA RESULT:      -6.7      1.524      2.054
REMARK  Name = 40777833
REMARK  11 active torsions:
REMARK  status: ('A' for Active; 'I' for Inactive)
REMARK    1  A    between atoms: O_2  and  C_8
REMARK    2  A    between atoms: O_3  and  C_9
REMARK    3  A    between atoms: N_6  and  C_13
REMARK    4  A    between atoms: N_7  and  C_15
REMARK    5  A    between atoms: C_10  and  C_12
REMARK    6  A    between atoms: C_11  and  C_13
REMARK    7  A    between atoms: C_12  and  C_14
REMARK    8  A    between atoms: C_15  and  C_18
REMARK    9  A    between atoms: C_15  and  C_19
REMARK   10  A    between atoms: C_16  and  C_17
REMARK   11  A    between atoms: C_24  and  C_25
REMARK                            x       y       z     vdW  Elec       q    Type
REMARK                         _______ _______ _______ _____ _____    ______ ____
ROOT
ATOM      1  O   UNL     1      12.950   7.637  18.640  0.00  0.00    -0.366 OA
ATOM      8  C   UNL     1      12.683   9.505  17.226  0.00  0.00    +0.175 C 
ATOM      9  C   UNL     1      14.061   8.927  16.978  0.00  0.00    +0.176 C 
ATOM     10  C   UNL     1      11.963   8.321  17.848  0.00  0.00    +0.158 C 
ATOM     11  C   UNL     1      14.266   8.056  18.213  0.00  0.00    +0.167 C 
ENDROOT
BRANCH   8   2
ATOM      2  O   UNL     1      12.046   9.955  16.050  0.00  0.00    -0.387 OA
ATOM     26  H   UNL     1      12.534  10.734  15.734  0.00  0.00    +0.210 HD
ENDBRANCH   8   2
BRANCH   9   3
ATOM      3  O   UNL     1      14.041   8.074  15.833  0.00  0.00    -0.387 OA
ATOM     27  H   UNL     1      13.423   7.347  16.024  0.00  0.00    +0.210 HD
ENDBRANCH   9   3
BRANCH  10  12
ATOM     12  C   UNL     1      10.790   8.722  18.725  0.00  0.00    +0.130 C 
BRANCH  12  14
ATOM      4  O   UNL     1      10.715   7.460  20.787  0.00  0.00    -0.276 OA
ATOM      7  N   UNL     1      11.722   9.555  20.777  0.00  0.00    -0.313 N 
ATOM     14  C   UNL     1      11.057   8.483  20.199  0.00  0.00    +0.216 C 
ATOM     29  H   UNL     1      12.005  10.335  20.192  0.00  0.00    +0.149 HD
BRANCH   7  15
ATOM     15  C   UNL     1      12.098   9.592  22.171  0.00  0.00    +0.067 C 
ATOM     18  C   UNL     1      13.436  10.301  22.346  0.00  0.00    +0.027 C 
ATOM     19  C   UNL     1      11.007  10.261  22.997  0.00  0.00    +0.027 C 
ENDBRANCH   7  15
ENDBRANCH  12  14
ENDBRANCH  10  12
BRANCH  11  13
ATOM     13  C   UNL     1      14.915   8.805  19.369  0.00  0.00    +0.138 C 
BRANCH  13   6
ATOM      5  O   UNL     1      15.432   6.222  20.513  0.00  0.00    -0.270 OA
ATOM      6  N   UNL     1      16.198   8.252  19.688  0.00  0.00    -0.309 N 
ATOM     16  C   UNL     1      16.356   6.984  20.244  0.00  0.00    +0.244 C 
ATOM     28  H   UNL     1      17.001   8.853  19.543  0.00  0.00    +0.149 HD
BRANCH  16  17
ATOM     17  C   UNL     1      17.751   6.567  20.541  0.00  0.00    +0.037 A 
ATOM     20  C   UNL     1      18.476   7.220  21.539  0.00  0.00    +0.013 A 
ATOM     21  C   UNL     1      18.335   5.524  19.823  0.00  0.00    +0.013 A 
ATOM     22  C   UNL     1      19.786   6.828  21.819  0.00  0.00    +0.004 A 
ATOM     23  C   UNL     1      19.645   5.133  20.104  0.00  0.00    +0.004 A 
ATOM     24  C   UNL     1      20.369   5.784  21.101  0.00  0.00    -0.050 A 
ATOM     25  C   UNL     1      21.769   5.366  21.399  0.00  0.00    +0.044 C 
ENDBRANCH  16  17
ENDBRANCH  13   6
ENDBRANCH  11  13
TORSDOF 8
ENDMDL
MODEL 5
REMARK VINA RESULT:      -6.5     14.721     18.824
REMARK  Name = 40777833
REMARK  11 active torsions:
REMARK  status: ('A' for Active; 'I' for Inactive)
REMARK    1  A    between atoms: O_2  and  C_8
REMARK    2  A    between atoms: O_3  and  C_9
REMARK    3  A    between atoms: N_6  and  C_13
REMARK    4  A    between atoms: N_7  and  C_15
REMARK    5  A    between atoms: C_10  and  C_12
REMARK    6  A    between atoms: C_11  and  C_13
REMARK    7  A    between atoms: C_12  and  C_14
REMARK    8  A    between atoms: C_15  and  C_18
REMARK    9  A    between atoms: C_15  and  C_19
REMARK   10  A    between atoms: C_16  and  C_17
REMARK   11  A    between atoms: C_24  and  C_25
REMARK                            x       y       z     vdW  Elec       q    Type
REMARK                         _______ _______ _______ _____ _____    ______ ____
ROOT
ATOM      1  O   UNL     1       9.942   6.068   5.573  0.00  0.00    -0.366 OA
ATOM      8  C   UNL     1      11.569   6.375   7.253  0.00  0.00    +0.175 C 
ATOM      9  C   UNL     1      10.386   5.662   7.875  0.00  0.00    +0.176 C 
ATOM     10  C   UNL     1      11.365   6.072   5.779  0.00  0.00    +0.158 C 
ATOM     11  C   UNL     1       9.284   5.923   6.853  0.00  0.00    +0.167 C 
ENDROOT
BRANCH   8   2
ATOM      2  O   UNL     1      12.814   5.908   7.724  0.00  0.00    -0.387 OA
ATOM     26  H   UNL     1      12.729   4.950   7.870  0.00  0.00    +0.210 HD
ENDBRANCH   8   2
BRANCH   9   3
ATOM      3  O   UNL     1      10.624   4.255   7.920  0.00  0.00    -0.387 OA
ATOM     27  H   UNL     1      11.093   4.014   7.103  0.00  0.00    +0.210 HD
ENDBRANCH   9   3
BRANCH  10  12
ATOM     12  C   UNL     1      12.012   7.092   4.859  0.00  0.00    +0.130 C 
BRANCH  12  14
ATOM      4  O   UNL     1      11.775   7.541   2.494  0.00  0.00    -0.276 OA
ATOM      7  N   UNL     1      11.934   5.338   3.219  0.00  0.00    -0.313 N 
ATOM     14  C   UNL     1      11.894   6.714   3.394  0.00  0.00    +0.216 C 
ATOM     29  H   UNL     1      12.085   4.740   4.026  0.00  0.00    +0.149 HD
BRANCH   7  15
ATOM     15  C   UNL     1      11.839   4.705   1.923  0.00  0.00    +0.067 C 
ATOM     18  C   UNL     1      12.830   3.551   1.818  0.00  0.00    +0.027 C 
ATOM     19  C   UNL     1      10.413   4.233   1.668  0.00  0.00    +0.027 C 
ENDBRANCH   7  15
ENDBRANCH  12  14
ENDBRANCH  10  12
BRANCH  11  13
ATOM     13  C   UNL     1       8.508   7.204   7.128  0.00  0.00    +0.138 C 
BRANCH  13   6
ATOM      5  O   UNL     1       9.330   9.504   5.618  0.00  0.00    -0.270 OA
ATOM      6  N   UNL     1       7.898   7.705   5.932  0.00  0.00    -0.309 N 
ATOM     16  C   UNL     1       8.365   8.833   5.262  0.00  0.00    +0.244 C 
ATOM     28  H   UNL     1       7.061   7.229   5.615  0.00  0.00    +0.149 HD
BRANCH  16  17
ATOM     17  C   UNL     1       7.605   9.239   4.051  0.00  0.00    +0.037 A 
ATOM     20  C   UNL     1       8.051   8.855   2.787  0.00  0.00    +0.013 A 
ATOM     21  C   UNL     1       6.447  10.005   4.179  0.00  0.00    +0.013 A 
ATOM     22  C   UNL     1       7.338   9.235   1.649  0.00  0.00    +0.004 A 
ATOM     23  C   UNL     1       5.734  10.386   3.042  0.00  0.00    +0.004 A 
ATOM     24  C   UNL     1       6.179  10.001   1.778  0.00  0.00    -0.050 A 
ATOM     25  C   UNL     1       5.417  10.409   0.563  0.00  0.00    +0.044 C 
ENDBRANCH  16  17
ENDBRANCH  13   6
ENDBRANCH  11  13
TORSDOF 8
ENDMDL
MODEL 6
REMARK VINA RESULT:      -6.5      3.144      4.798
REMARK  Name = 40777833
REMARK  11 active torsions:
REMARK  status: ('A' for Active; 'I' for Inactive)
REMARK    1  A    between atoms: O_2  and  C_8
REMARK    2  A    between atoms: O_3  and  C_9
REMARK    3  A    between atoms: N_6  and  C_13
REMARK    4  A    between atoms: N_7  and  C_15
REMARK    5  A    between atoms: C_10  and  C_12
REMARK    6  A    between atoms: C_11  and  C_13
REMARK    7  A    between atoms: C_12  and  C_14
REMARK    8  A    between atoms: C_15  and  C_18
REMARK    9  A    between atoms: C_15  and  C_19
REMARK   10  A    between atoms: C_16  and  C_17
REMARK   11  A    between atoms: C_24  and  C_25
REMARK                            x       y       z     vdW  Elec       q    Type
REMARK                         _______ _______ _______ _____ _____    ______ ____
ROOT
ATOM      1  O   UNL     1      12.451   9.529  19.290  0.00  0.00    -0.366 OA
ATOM      8  C   UNL     1      13.872   8.061  18.112  0.00  0.00    +0.175 C 
ATOM      9  C   UNL     1      13.197   7.270  19.213  0.00  0.00    +0.176 C 
ATOM     10  C   UNL     1      12.930   9.244  17.964  0.00  0.00    +0.158 C 
ATOM     11  C   UNL     1      12.688   8.377  20.132  0.00  0.00    +0.167 C 
ENDROOT
BRANCH   8   2
ATOM      2  O   UNL     1      14.008   7.338  16.908  0.00  0.00    -0.387 OA
ATOM     26  H   UNL     1      14.565   6.563  17.095  0.00  0.00    +0.210 HD
ENDBRANCH   8   2
BRANCH   9   3
ATOM      3  O   UNL     1      12.066   6.569  18.697  0.00  0.00    -0.387 OA
ATOM     27  H   UNL     1      12.277   6.312  17.783  0.00  0.00    +0.210 HD
ENDBRANCH   9   3
BRANCH  10  12
ATOM     12  C   UNL     1      13.598  10.478  17.385  0.00  0.00    +0.130 C 
BRANCH  12  14
ATOM      4  O   UNL     1      13.146   9.602  15.176  0.00  0.00    -0.276 OA
ATOM      7  N   UNL     1      13.735  11.838  15.410  0.00  0.00    -0.313 N 
ATOM     14  C   UNL     1      13.461  10.561  15.876  0.00  0.00    +0.216 C 
ATOM     29  H   UNL     1      13.938  12.577  16.077  0.00  0.00    +0.149 HD
BRANCH   7  15
ATOM     15  C   UNL     1      13.681  12.196  14.011  0.00  0.00    +0.067 C 
ATOM     18  C   UNL     1      13.213  13.637  13.845  0.00  0.00    +0.027 C 
ATOM     19  C   UNL     1      15.038  11.978  13.355  0.00  0.00    +0.027 C 
ENDBRANCH   7  15
ENDBRANCH  12  14
ENDBRANCH  10  12
BRANCH  11  13
ATOM     13  C   UNL     1      13.699   8.778  21.198  0.00  0.00    +0.138 C 
BRANCH  13   6
ATOM      5  O   UNL     1      16.333   9.750  20.596  0.00  0.00    -0.270 OA
ATOM      6  N   UNL     1      14.896   7.997  21.095  0.00  0.00    -0.309 N 
ATOM     16  C   UNL     1      16.137   8.555  20.797  0.00  0.00    +0.244 C 
ATOM     28  H   UNL     1      14.794   6.993  21.194  0.00  0.00    +0.149 HD
BRANCH  16  17
ATOM     17  C   UNL     1      17.276   7.606  20.699  0.00  0.00    +0.037 A 
ATOM     20  C   UNL     1      17.232   6.555  19.783  0.00  0.00    +0.013 A 
ATOM     21  C   UNL     1      18.390   7.766  21.523  0.00  0.00    +0.013 A 
ATOM     22  C   UNL     1      18.302   5.665  19.690  0.00  0.00    +0.004 A 
ATOM     23  C   UNL     1      19.460   6.876  21.431  0.00  0.00    +0.004 A 
ATOM     24  C   UNL     1      19.416   5.826  20.515  0.00  0.00    -0.050 A 
ATOM     25  C   UNL     1      20.560   4.873  20.417  0.00  0.00    +0.044 C 
ENDBRANCH  16  17
ENDBRANCH  13   6
ENDBRANCH  11  13
TORSDOF 8
ENDMDL
MODEL 7
REMARK VINA RESULT:      -6.5     17.152     20.520
REMARK  Name = 40777833
REMARK  11 active torsions:
REMARK  status: ('A' for Active; 'I' for Inactive)
REMARK    1  A    between atoms: O_2  and  C_8
REMARK    2  A    between atoms: O_3  and  C_9
REMARK    3  A    between atoms: N_6  and  C_13
REMARK    4  A    between atoms: N_7  and  C_15
REMARK    5  A    between atoms: C_10  and  C_12
REMARK    6  A    between atoms: C_11  and  C_13
REMARK    7  A    between atoms: C_12  and  C_14
REMARK    8  A    between atoms: C_15  and  C_18
REMARK    9  A    between atoms: C_15  and  C_19
REMARK   10  A    between atoms: C_16  and  C_17
REMARK   11  A    between atoms: C_24  and  C_25
REMARK                            x       y       z     vdW  Elec       q    Type
REMARK                         _______ _______ _______ _____ _____    ______ ____
ROOT
ATOM      1  O   UNL     1      13.276   3.333   0.072  0.00  0.00    -0.366 OA
ATOM      8  C   UNL     1      15.129   4.761   0.368  0.00  0.00    +0.175 C 
ATOM      9  C   UNL     1      14.734   4.224   1.728  0.00  0.00    +0.176 C 
ATOM     10  C   UNL     1      14.505   3.732  -0.559  0.00  0.00    +0.158 C 
ATOM     11  C   UNL     1      13.322   3.710   1.468  0.00  0.00    +0.167 C 
ENDROOT
BRANCH   8   2
ATOM      2  O   UNL     1      16.526   4.858   0.190  0.00  0.00    -0.387 OA
ATOM     26  H   UNL     1      16.711   4.698  -0.751  0.00  0.00    +0.210 HD
ENDBRANCH   8   2
BRANCH   9   3
ATOM      3  O   UNL     1      15.554   3.109   2.078  0.00  0.00    -0.387 OA
ATOM     27  H   UNL     1      16.281   3.071   1.433  0.00  0.00    +0.210 HD
ENDBRANCH   9   3
BRANCH  10  12
ATOM     12  C   UNL     1      14.216   4.270  -1.949  0.00  0.00    +0.130 C 
BRANCH  12  14
ATOM      4  O   UNL     1      12.616   2.869  -3.100  0.00  0.00    -0.276 OA
ATOM      7  N   UNL     1      11.881   4.820  -2.074  0.00  0.00    -0.313 N 
ATOM     14  C   UNL     1      12.836   3.885  -2.447  0.00  0.00    +0.216 C 
ATOM     29  H   UNL     1      12.156   5.604  -1.490  0.00  0.00    +0.149 HD
BRANCH   7  15
ATOM     15  C   UNL     1      10.483   4.700  -2.419  0.00  0.00    +0.067 C 
ATOM     18  C   UNL     1       9.607   5.266  -1.307  0.00  0.00    +0.027 C 
ATOM     19  C   UNL     1      10.204   5.393  -3.747  0.00  0.00    +0.027 C 
ENDBRANCH   7  15
ENDBRANCH  12  14
ENDBRANCH  10  12
BRANCH  11  13
ATOM     13  C   UNL     1      12.250   4.766   1.702  0.00  0.00    +0.138 C 
BRANCH  13   6
ATOM      5  O   UNL     1      11.234   6.988   3.210  0.00  0.00    -0.270 OA
ATOM      6  N   UNL     1      11.784   4.739   3.056  0.00  0.00    -0.309 N 
ATOM     16  C   UNL     1      11.306   5.870   3.713  0.00  0.00    +0.244 C 
ATOM     28  H   UNL     1      11.870   3.857   3.549  0.00  0.00    +0.149 HD
BRANCH  16  17
ATOM     17  C   UNL     1      10.886   5.681   5.125  0.00  0.00    +0.037 A 
ATOM     20  C   UNL     1       9.933   4.714   5.446  0.00  0.00    +0.013 A 
ATOM     21  C   UNL     1      11.442   6.471   6.130  0.00  0.00    +0.013 A 
ATOM     22  C   UNL     1       9.539   4.535   6.772  0.00  0.00    +0.004 A 
ATOM     23  C   UNL     1      11.048   6.293   7.457  0.00  0.00    +0.004 A 
ATOM     24  C   UNL     1      10.097   5.326   7.777  0.00  0.00    -0.050 A 
ATOM     25  C   UNL     1       9.674   5.136   9.195  0.00  0.00    +0.044 C 
ENDBRANCH  16  17
ENDBRANCH  13   6
ENDBRANCH  11  13
TORSDOF 8
ENDMDL
MODEL 8
REMARK VINA RESULT:      -6.5     25.984     28.840
REMARK  Name = 40777833
REMARK  11 active torsions:
REMARK  status: ('A' for Active; 'I' for Inactive)
REMARK    1  A    between atoms: O_2  and  C_8
REMARK    2  A    between atoms: O_3  and  C_9
REMARK    3  A    between atoms: N_6  and  C_13
REMARK    4  A    between atoms: N_7  and  C_15
REMARK    5  A    between atoms: C_10  and  C_12
REMARK    6  A    between atoms: C_11  and  C_13
REMARK    7  A    between atoms: C_12  and  C_14
REMARK    8  A    between atoms: C_15  and  C_18
REMARK    9  A    between atoms: C_15  and  C_19
REMARK   10  A    between atoms: C_16  and  C_17
REMARK   11  A    between atoms: C_24  and  C_25
REMARK                            x       y       z     vdW  Elec       q    Type
REMARK                         _______ _______ _______ _____ _____    ______ ____
ROOT
ATOM      1  O   UNL     1      -6.038 -12.484  16.901  0.00  0.00    -0.366 OA
ATOM      8  C   UNL     1      -7.025 -11.869  18.952  0.00  0.00    +0.175 C 
ATOM      9  C   UNL     1      -8.053 -12.647  18.155  0.00  0.00    +0.176 C 
ATOM     10  C   UNL     1      -5.730 -12.315  18.296  0.00  0.00    +0.158 C 
ATOM     11  C   UNL     1      -7.472 -12.589  16.747  0.00  0.00    +0.167 C 
ENDROOT
BRANCH   8   2
ATOM      2  O   UNL     1      -7.049 -12.164  20.332  0.00  0.00    -0.387 OA
ATOM     26  H   UNL     1      -7.978 -12.143  20.618  0.00  0.00    +0.210 HD
ENDBRANCH   8   2
BRANCH   9   3
ATOM      3  O   UNL     1      -8.071 -14.012  18.571  0.00  0.00    -0.387 OA
ATOM     27  H   UNL     1      -7.275 -14.437  18.208  0.00  0.00    +0.210 HD
ENDBRANCH   9   3
BRANCH  10  12
ATOM     12  C   UNL     1      -4.599 -11.315  18.453  0.00  0.00    +0.130 C 
BRANCH  12  14
ATOM      4  O   UNL     1      -4.728  -9.808  16.565  0.00  0.00    -0.276 OA
ATOM      7  N   UNL     1      -3.016 -11.378  16.647  0.00  0.00    -0.313 N 
ATOM     14  C   UNL     1      -4.147 -10.733  17.127  0.00  0.00    +0.216 C 
ATOM     29  H   UNL     1      -2.580 -12.100  17.213  0.00  0.00    +0.149 HD
BRANCH   7  15
ATOM     15  C   UNL     1      -2.375 -11.025  15.401  0.00  0.00    +0.067 C 
ATOM     18  C   UNL     1      -1.111 -10.213  15.660  0.00  0.00    +0.027 C 
ATOM     19  C   UNL     1      -2.069 -12.277  14.590  0.00  0.00    +0.027 C 
ENDBRANCH   7  15
ENDBRANCH  12  14
ENDBRANCH  10  12
BRANCH  11  13
ATOM     13  C   UNL     1      -7.946 -11.377  15.956  0.00  0.00    +0.138 C 
BRANCH  13   6
ATOM      5  O   UNL     1      -8.342  -9.469  13.847  0.00  0.00    -0.270 OA
ATOM      6  N   UNL     1      -7.010 -11.033  14.927  0.00  0.00    -0.309 N 
ATOM     16  C   UNL     1      -7.287 -10.092  13.939  0.00  0.00    +0.244 C 
ATOM     28  H   UNL     1      -6.140 -11.553  14.912  0.00  0.00    +0.149 HD
BRANCH  16  17
ATOM     17  C   UNL     1      -6.222  -9.868  12.928  0.00  0.00    +0.037 A 
ATOM     20  C   UNL     1      -6.374  -8.870  11.964  0.00  0.00    +0.013 A 
ATOM     21  C   UNL     1      -5.071 -10.654  12.941  0.00  0.00    +0.013 A 
ATOM     22  C   UNL     1      -5.374  -8.659  11.014  0.00  0.00    +0.004 A 
ATOM     23  C   UNL     1      -4.070 -10.443  11.992  0.00  0.00    +0.004 A 
ATOM     24  C   UNL     1      -4.222  -9.446  11.029  0.00  0.00    -0.050 A 
ATOM     25  C   UNL     1      -3.153  -9.222  10.014  0.00  0.00    +0.044 C 
ENDBRANCH  16  17
ENDBRANCH  13   6
ENDBRANCH  11  13
TORSDOF 8
ENDMDL
MODEL 9
REMARK VINA RESULT:      -6.3     12.697     16.581
REMARK  Name = 40777833
REMARK  11 active torsions:
REMARK  status: ('A' for Active; 'I' for Inactive)
REMARK    1  A    between atoms: O_2  and  C_8
REMARK    2  A    between atoms: O_3  and  C_9
REMARK    3  A    between atoms: N_6  and  C_13
REMARK    4  A    between atoms: N_7  and  C_15
REMARK    5  A    between atoms: C_10  and  C_12
REMARK    6  A    between atoms: C_11  and  C_13
REMARK    7  A    between atoms: C_12  and  C_14
REMARK    8  A    between atoms: C_15  and  C_18
REMARK    9  A    between atoms: C_15  and  C_19
REMARK   10  A    between atoms: C_16  and  C_17
REMARK   11  A    between atoms: C_24  and  C_25
REMARK                            x       y       z     vdW  Elec       q    Type
REMARK                         _______ _______ _______ _____ _____    ______ ____
ROOT
ATOM      1  O   UNL     1       9.503   5.784   5.673  0.00  0.00    -0.366 OA
ATOM      8  C   UNL     1      11.590   6.585   6.423  0.00  0.00    +0.175 C 
ATOM      9  C   UNL     1      10.716   6.356   7.639  0.00  0.00    +0.176 C 
ATOM     10  C   UNL     1      10.911   5.704   5.389  0.00  0.00    +0.158 C 
ATOM     11  C   UNL     1       9.324   6.283   7.018  0.00  0.00    +0.167 C 
ENDROOT
BRANCH   8   2
ATOM      2  O   UNL     1      12.938   6.219   6.627  0.00  0.00    -0.387 OA
ATOM     26  H   UNL     1      13.116   5.440   6.072  0.00  0.00    +0.210 HD
ENDBRANCH   8   2
BRANCH   9   3
ATOM      3  O   UNL     1      11.006   5.088   8.226  0.00  0.00    -0.387 OA
ATOM     27  H   UNL     1      11.800   4.740   7.785  0.00  0.00    +0.210 HD
ENDBRANCH   9   3
BRANCH  10  12
ATOM     12  C   UNL     1      11.170   6.144   3.959  0.00  0.00    +0.130 C 
BRANCH  12  14
ATOM      4  O   UNL     1      10.341   4.240   2.717  0.00  0.00    -0.276 OA
ATOM      7  N   UNL     1      12.575   4.846   2.505  0.00  0.00    -0.313 N 
ATOM     14  C   UNL     1      11.285   4.973   3.001  0.00  0.00    +0.216 C 
ATOM     29  H   UNL     1      13.275   5.534   2.764  0.00  0.00    +0.149 HD
BRANCH   7  15
ATOM     15  C   UNL     1      12.964   3.811   1.574  0.00  0.00    +0.067 C 
ATOM     18  C   UNL     1      12.629   4.224   0.146  0.00  0.00    +0.027 C 
ATOM     19  C   UNL     1      14.446   3.494   1.724  0.00  0.00    +0.027 C 
ENDBRANCH   7  15
ENDBRANCH  12  14
ENDBRANCH  10  12
BRANCH  11  13
ATOM     13  C   UNL     1       8.641   7.641   6.926  0.00  0.00    +0.138 C 
BRANCH  13   6
ATOM      5  O   UNL     1       9.347  10.408   6.629  0.00  0.00    -0.270 OA
ATOM      6  N   UNL     1       9.099   8.522   7.958  0.00  0.00    -0.309 N 
ATOM     16  C   UNL     1       9.421   9.856   7.724  0.00  0.00    +0.244 C 
ATOM     28  H   UNL     1       9.237   8.113   8.876  0.00  0.00    +0.149 HD
BRANCH  16  17
ATOM     17  C   UNL     1       9.908  10.630   8.895  0.00  0.00    +0.037 A 
ATOM     20  C   UNL     1       9.016  11.011   9.898  0.00  0.00    +0.013 A 
ATOM     21  C   UNL     1      11.255  10.975   8.992  0.00  0.00    +0.013 A 
ATOM     22  C   UNL     1       9.473  11.738  10.999  0.00  0.00    +0.004 A 
ATOM     23  C   UNL     1      11.712  11.702  10.093  0.00  0.00    +0.004 A 
ATOM     24  C   UNL     1      10.821  12.082  11.095  0.00  0.00    -0.050 A 
ATOM     25  C   UNL     1      11.309  12.859  12.271  0.00  0.00    +0.044 C 
ENDBRANCH  16  17
ENDBRANCH  13   6
ENDBRANCH  11  13
TORSDOF 8
ENDMDL
MODEL 10
REMARK VINA RESULT:      -6.2      3.518      6.531
REMARK  Name = 40777833
REMARK  11 active torsions:
REMARK  status: ('A' for Active; 'I' for Inactive)
REMARK    1  A    between atoms: O_2  and  C_8
REMARK    2  A    between atoms: O_3  and  C_9
REMARK    3  A    between atoms: N_6  and  C_13
REMARK    4  A    between atoms: N_7  and  C_15
REMARK    5  A    between atoms: C_10  and  C_12
REMARK    6  A    between atoms: C_11  and  C_13
REMARK    7  A    between atoms: C_12  and  C_14
REMARK    8  A    between atoms: C_15  and  C_18
REMARK    9  A    between atoms: C_15  and  C_19
REMARK   10  A    between atoms: C_16  and  C_17
REMARK   11  A    between atoms: C_24  and  C_25
REMARK                            x       y       z     vdW  Elec       q    Type
REMARK                         _______ _______ _______ _____ _____    ______ ____
ROOT
ATOM      1  O   UNL     1      12.366   6.539  19.196  0.00  0.00    -0.366 OA
ATOM      8  C   UNL     1      12.013   8.721  20.017  0.00  0.00    +0.175 C 
ATOM      9  C   UNL     1      11.747   8.737  18.526  0.00  0.00    +0.176 C 
ATOM     10  C   UNL     1      11.854   7.245  20.340  0.00  0.00    +0.158 C 
ATOM     11  C   UNL     1      12.419   7.445  18.071  0.00  0.00    +0.167 C 
ENDROOT
BRANCH   8   2
ATOM      2  O   UNL     1      11.116   9.524  20.753  0.00  0.00    -0.387 OA
ATOM     26  H   UNL     1      11.567   9.787  21.574  0.00  0.00    +0.210 HD
ENDBRANCH   8   2
BRANCH   9   3
ATOM      3  O   UNL     1      10.347   8.621  18.272  0.00  0.00    -0.387 OA
ATOM     27  H   UNL     1       9.923   9.427  18.612  0.00  0.00    +0.210 HD
ENDBRANCH   9   3
BRANCH  10  12
ATOM     12  C   UNL     1      12.608   6.816  21.586  0.00  0.00    +0.130 C 
BRANCH  12  14
ATOM      4  O   UNL     1      14.352   8.318  22.331  0.00  0.00    -0.276 OA
ATOM      7  N   UNL     1      14.868   6.660  20.786  0.00  0.00    -0.313 N 
ATOM     14  C   UNL     1      14.022   7.365  21.629  0.00  0.00    +0.216 C 
ATOM     29  H   UNL     1      14.508   5.854  20.284  0.00  0.00    +0.149 HD
BRANCH   7  15
ATOM     15  C   UNL     1      16.270   6.974  20.632  0.00  0.00    +0.067 C 
ATOM     18  C   UNL     1      16.902   6.091  19.563  0.00  0.00    +0.027 C 
ATOM     19  C   UNL     1      16.449   8.451  20.304  0.00  0.00    +0.027 C 
ENDBRANCH   7  15
ENDBRANCH  12  14
ENDBRANCH  10  12
BRANCH  11  13
ATOM     13  C   UNL     1      13.883   7.636  17.695  0.00  0.00    +0.138 C 
BRANCH  13   6
ATOM      5  O   UNL     1      13.892   8.600  14.990  0.00  0.00    -0.270 OA
ATOM      6  N   UNL     1      14.135   8.980  17.266  0.00  0.00    -0.309 N 
ATOM     16  C   UNL     1      14.120   9.360  15.927  0.00  0.00    +0.244 C 
ATOM     28  H   UNL     1      14.387   9.647  17.987  0.00  0.00    +0.149 HD
BRANCH  16  17
ATOM     17  C   UNL     1      14.429  10.786  15.645  0.00  0.00    +0.037 A 
ATOM     20  C   UNL     1      15.415  11.444  16.380  0.00  0.00    +0.013 A 
ATOM     21  C   UNL     1      13.732  11.467  14.647  0.00  0.00    +0.013 A 
ATOM     22  C   UNL     1      15.706  12.783  16.116  0.00  0.00    +0.004 A 
ATOM     23  C   UNL     1      14.023  12.806  14.383  0.00  0.00    +0.004 A 
ATOM     24  C   UNL     1      15.009  13.463  15.117  0.00  0.00    -0.050 A 
ATOM     25  C   UNL     1      15.319  14.895  14.835  0.00  0.00    +0.044 C 
ENDBRANCH  16  17
ENDBRANCH  13   6
ENDBRANCH  11  13
TORSDOF 8
ENDMDL
