REMARK  Name = 75367171
REMARK  3 active torsions:
REMARK  status: ('A' for Active; 'I' for Inactive)
REMARK    1  A    between atoms: N_2  and  C_7
REMARK    2  A    between atoms: C_8  and  C_16
REMARK    3  A    between atoms: C_17  and  C_19
REMARK                            x       y       z     vdW  Elec       q    Type
REMARK                         _______ _______ _______ _____ _____    ______ ____
ROOT
ATOM      1  O   UNL     1      -2.261   3.087  -0.343  0.00  0.00    -0.377 OA
ATOM      2  N   UNL     1      -1.932   0.314   0.369  0.00  0.00    -0.286 NA
ATOM      8  C   UNL     1      -1.169   0.912  -0.750  0.00  0.00    +0.149 C 
ATOM     11  C   UNL     1      -2.394   1.336   1.318  0.00  0.00    +0.113 C 
ATOM     14  C   UNL     1      -1.883   2.143  -1.346  0.00  0.00    +0.186 C 
ATOM     15  C   UNL     1      -3.109   2.496   0.637  0.00  0.00    +0.175 C 
ENDROOT
BRANCH   2   7
ATOM      3  N   UNL     1      -4.540  -3.032   0.053  0.00  0.00    -0.316 NA
ATOM      7  C   UNL     1      -3.030  -0.526  -0.104  0.00  0.00    +0.060 C 
ATOM      9  C   UNL     1      -4.030  -0.807   1.023  0.00  0.00    +0.034 C 
ATOM     10  C   UNL     1      -2.486  -1.842  -0.667  0.00  0.00    +0.034 C 
ATOM     12  C   UNL     1      -5.113  -1.782   0.559  0.00  0.00    +0.082 C 
ATOM     13  C   UNL     1      -3.630  -2.777  -1.066  0.00  0.00    +0.082 C 
ATOM     24  H   UNL     1      -5.293  -3.645  -0.259  0.00  0.00    +0.122 HD
ENDBRANCH   2   7
BRANCH   8  16
ATOM      4  N   UNL     1       1.207   0.115  -0.427  0.00  0.00    -0.341 N 
ATOM      5  N   UNL     1       0.830   2.238   0.103  0.00  0.00    -0.238 NA
ATOM     16  C   UNL     1       0.291   1.126  -0.347  0.00  0.00    +0.127 A 
ATOM     17  C   UNL     1       2.406   0.613  -0.001  0.00  0.00    +0.066 A 
ATOM     18  C   UNL     1       2.148   1.925   0.320  0.00  0.00    +0.139 A 
ATOM     25  H   UNL     1       1.023  -0.826  -0.751  0.00  0.00    +0.167 HD
BRANCH  17  19
ATOM      6  N   UNL     1       5.960  -1.684   0.168  0.00  0.00    -0.263 NA
ATOM     19  C   UNL     1       3.614  -0.168   0.055  0.00  0.00    +0.003 A 
ATOM     20  C   UNL     1       4.850   0.445  -0.117  0.00  0.00    +0.029 A 
ATOM     21  C   UNL     1       3.549  -1.538   0.284  0.00  0.00    +0.029 A 
ATOM     22  C   UNL     1       5.983  -0.350  -0.053  0.00  0.00    +0.111 A 
ATOM     23  C   UNL     1       4.740  -2.244   0.331  0.00  0.00    +0.111 A 
ENDBRANCH  17  19
ENDBRANCH   8  16
TORSDOF 3
