MODEL 1
REMARK VINA RESULT:      -6.5      0.000      0.000
REMARK  Name = 45783488
REMARK  9 active torsions:
REMARK  status: ('A' for Active; 'I' for Inactive)
REMARK    1  A    between atoms: O_2  and  C_27
REMARK    2  A    between atoms: O_2  and  C_28
REMARK    3  A    between atoms: N_3  and  C_13
REMARK    4  A    between atoms: N_8  and  C_25
REMARK    5  A    between atoms: N_8  and  C_26
REMARK    6  A    between atoms: C_9  and  C_14
REMARK    7  A    between atoms: C_13  and  C_15
REMARK    8  A    between atoms: C_16  and  C_19
REMARK    9  A    between atoms: C_26  and  C_27
REMARK                            x       y       z     vdW  Elec       q    Type
REMARK                         _______ _______ _______ _____ _____    ______ ____
ROOT
ATOM      1  O   UNL     1      14.428   6.915  19.319  0.00  0.00    -0.336 OA
ATOM      4  N   UNL     1      15.645   7.505  21.106  0.00  0.00    -0.190 NA
ATOM      5  N   UNL     1      15.694   6.344  19.134  0.00  0.00    -0.056 NA
ATOM     14  C   UNL     1      14.485   7.581  20.503  0.00  0.00    +0.245 A 
ATOM     16  C   UNL     1      16.354   6.737  20.229  0.00  0.00    +0.204 A 
ENDROOT
BRANCH  16  19
ATOM      7  N   UNL     1      19.627   4.999  19.919  0.00  0.00    -0.240 NA
ATOM     19  C   UNL     1      17.721   6.379  20.474  0.00  0.00    +0.041 A 
ATOM     22  C   UNL     1      18.464   7.020  21.460  0.00  0.00    +0.016 A 
ATOM     23  C   UNL     1      18.343   5.384  19.737  0.00  0.00    +0.124 A 
ATOM     24  C   UNL     1      19.786   6.652  21.676  0.00  0.00    +0.044 A 
ATOM     25  C   UNL     1      20.317   5.644  20.885  0.00  0.00    +0.119 A 
BRANCH  25   8
ATOM      8  N   UNL     1      21.666   5.281  21.116  0.00  0.00    -0.327 N 
ATOM     29  H   UNL     1      22.359   6.012  20.994  0.00  0.00    +0.148 HD
BRANCH   8  26
ATOM     26  C   UNL     1      22.055   3.961  21.497  0.00  0.00    +0.131 C 
BRANCH  26  27
ATOM     27  C   UNL     1      23.394   3.613  20.869  0.00  0.00    +0.178 C 
BRANCH  27   2
ATOM      2  O   UNL     1      23.596   2.206  20.935  0.00  0.00    -0.381 OA
ATOM     28  C   UNL     1      24.978   1.880  20.983  0.00  0.00    +0.194 C 
ENDBRANCH  27   2
ENDBRANCH  26  27
ENDBRANCH   8  26
ENDBRANCH  25   8
ENDBRANCH  16  19
BRANCH  14   9
ATOM      3  N   UNL     1      12.392   8.726  19.795  0.00  0.00    -0.287 NA
ATOM      9  C   UNL     1      13.222   8.295  20.938  0.00  0.00    +0.146 C 
ATOM     10  C   UNL     1      12.294   7.401  21.781  0.00  0.00    +0.030 C 
ATOM     11  C   UNL     1      10.950   7.439  21.068  0.00  0.00    +0.017 C 
ATOM     12  C   UNL     1      11.007   8.724  20.267  0.00  0.00    +0.085 C 
BRANCH   3  13
ATOM     13  C   UNL     1      12.786  10.020  19.255  0.00  0.00    +0.121 C 
BRANCH  13  15
ATOM      6  N   UNL     1      13.023   8.956  15.630  0.00  0.00    -0.263 NA
ATOM     15  C   UNL     1      13.279   9.910  17.837  0.00  0.00    -0.015 A 
ATOM     17  C   UNL     1      14.394  10.622  17.408  0.00  0.00    +0.008 A 
ATOM     18  C   UNL     1      12.634   9.099  16.917  0.00  0.00    +0.115 A 
ATOM     20  C   UNL     1      14.825  10.500  16.092  0.00  0.00    +0.020 A 
ATOM     21  C   UNL     1      14.112   9.662  15.250  0.00  0.00    +0.111 A 
ENDBRANCH  13  15
ENDBRANCH   3  13
ENDBRANCH  14   9
TORSDOF 8
ENDMDL
MODEL 2
REMARK VINA RESULT:      -6.3      2.135      3.891
REMARK  Name = 45783488
REMARK  9 active torsions:
REMARK  status: ('A' for Active; 'I' for Inactive)
REMARK    1  A    between atoms: O_2  and  C_27
REMARK    2  A    between atoms: O_2  and  C_28
REMARK    3  A    between atoms: N_3  and  C_13
REMARK    4  A    between atoms: N_8  and  C_25
REMARK    5  A    between atoms: N_8  and  C_26
REMARK    6  A    between atoms: C_9  and  C_14
REMARK    7  A    between atoms: C_13  and  C_15
REMARK    8  A    between atoms: C_16  and  C_19
REMARK    9  A    between atoms: C_26  and  C_27
REMARK                            x       y       z     vdW  Elec       q    Type
REMARK                         _______ _______ _______ _____ _____    ______ ____
ROOT
ATOM      1  O   UNL     1      14.965   8.748  19.616  0.00  0.00    -0.336 OA
ATOM      4  N   UNL     1      15.360   6.580  20.016  0.00  0.00    -0.190 NA
ATOM      5  N   UNL     1      16.328   8.651  19.922  0.00  0.00    -0.056 NA
ATOM     14  C   UNL     1      14.471   7.484  19.694  0.00  0.00    +0.245 A 
ATOM     16  C   UNL     1      16.485   7.342  20.146  0.00  0.00    +0.204 A 
ENDROOT
BRANCH  16  19
ATOM      7  N   UNL     1      19.666   6.741  21.975  0.00  0.00    -0.240 NA
ATOM     19  C   UNL     1      17.749   6.767  20.502  0.00  0.00    +0.041 A 
ATOM     22  C   UNL     1      18.291   5.717  19.768  0.00  0.00    +0.016 A 
ATOM     23  C   UNL     1      18.469   7.239  21.588  0.00  0.00    +0.124 A 
ATOM     24  C   UNL     1      19.518   5.179  20.136  0.00  0.00    +0.044 A 
ATOM     25  C   UNL     1      20.160   5.722  21.238  0.00  0.00    +0.119 A 
BRANCH  25   8
ATOM      8  N   UNL     1      21.409   5.162  21.601  0.00  0.00    -0.327 N 
ATOM     29  H   UNL     1      22.062   5.780  22.071  0.00  0.00    +0.148 HD
BRANCH   8  26
ATOM     26  C   UNL     1      21.755   3.805  21.328  0.00  0.00    +0.131 C 
BRANCH  26  27
ATOM     27  C   UNL     1      22.377   3.168  22.558  0.00  0.00    +0.178 C 
BRANCH  27   2
ATOM      2  O   UNL     1      22.142   3.996  23.691  0.00  0.00    -0.381 OA
ATOM     28  C   UNL     1      23.326   4.190  24.451  0.00  0.00    +0.194 C 
ENDBRANCH  27   2
ENDBRANCH  26  27
ENDBRANCH   8  26
ENDBRANCH  25   8
ENDBRANCH  16  19
BRANCH  14   9
ATOM      3  N   UNL     1      12.174   8.397  19.984  0.00  0.00    -0.287 NA
ATOM      9  C   UNL     1      12.994   7.317  19.401  0.00  0.00    +0.146 C 
ATOM     10  C   UNL     1      12.679   7.355  17.895  0.00  0.00    +0.030 C 
ATOM     11  C   UNL     1      11.629   8.445  17.735  0.00  0.00    +0.017 C 
ATOM     12  C   UNL     1      11.007   8.545  19.113  0.00  0.00    +0.085 C 
BRANCH   3  13
ATOM     13  C   UNL     1      11.798   8.150  21.369  0.00  0.00    +0.121 C 
BRANCH  13  15
ATOM      6  N   UNL     1      13.273  11.207  23.044  0.00  0.00    -0.263 NA
ATOM     15  C   UNL     1      11.910   9.392  22.212  0.00  0.00    -0.015 A 
ATOM     17  C   UNL     1      10.816   9.879  22.920  0.00  0.00    +0.008 A 
ATOM     18  C   UNL     1      13.105  10.087  22.306  0.00  0.00    +0.115 A 
ATOM     20  C   UNL     1      10.951  11.029  23.690  0.00  0.00    +0.020 A 
ATOM     21  C   UNL     1      12.189  11.650  23.718  0.00  0.00    +0.111 A 
ENDBRANCH  13  15
ENDBRANCH   3  13
ENDBRANCH  14   9
TORSDOF 8
ENDMDL
MODEL 3
REMARK VINA RESULT:      -6.2     26.006     29.897
REMARK  Name = 45783488
REMARK  9 active torsions:
REMARK  status: ('A' for Active; 'I' for Inactive)
REMARK    1  A    between atoms: O_2  and  C_27
REMARK    2  A    between atoms: O_2  and  C_28
REMARK    3  A    between atoms: N_3  and  C_13
REMARK    4  A    between atoms: N_8  and  C_25
REMARK    5  A    between atoms: N_8  and  C_26
REMARK    6  A    between atoms: C_9  and  C_14
REMARK    7  A    between atoms: C_13  and  C_15
REMARK    8  A    between atoms: C_16  and  C_19
REMARK    9  A    between atoms: C_26  and  C_27
REMARK                            x       y       z     vdW  Elec       q    Type
REMARK                         _______ _______ _______ _____ _____    ______ ____
ROOT
ATOM      1  O   UNL     1      -4.772 -11.126  17.204  0.00  0.00    -0.336 OA
ATOM      4  N   UNL     1      -5.616 -10.178  15.359  0.00  0.00    -0.190 NA
ATOM      5  N   UNL     1      -6.066 -10.706  17.539  0.00  0.00    -0.056 NA
ATOM     14  C   UNL     1      -4.587 -10.776  15.904  0.00  0.00    +0.245 A 
ATOM     16  C   UNL     1      -6.498 -10.157  16.399  0.00  0.00    +0.204 A 
ENDROOT
BRANCH  16  19
ATOM      7  N   UNL     1      -9.730  -9.118  14.881  0.00  0.00    -0.240 NA
ATOM     19  C   UNL     1      -7.804  -9.579  16.269  0.00  0.00    +0.041 A 
ATOM     22  C   UNL     1      -8.416  -8.940  17.341  0.00  0.00    +0.016 A 
ATOM     23  C   UNL     1      -8.497  -9.642  15.070  0.00  0.00    +0.124 A 
ATOM     24  C   UNL     1      -9.682  -8.389  17.185  0.00  0.00    +0.044 A 
ATOM     25  C   UNL     1     -10.292  -8.504  15.945  0.00  0.00    +0.119 A 
BRANCH  25   8
ATOM      8  N   UNL     1     -11.582  -7.939  15.802  0.00  0.00    -0.327 N 
ATOM     29  H   UNL     1     -12.222  -8.071  16.578  0.00  0.00    +0.148 HD
BRANCH   8  26
ATOM     26  C   UNL     1     -11.986  -7.223  14.635  0.00  0.00    +0.131 C 
BRANCH  26  27
ATOM     27  C   UNL     1     -11.735  -5.737  14.824  0.00  0.00    +0.178 C 
BRANCH  27   2
ATOM      2  O   UNL     1     -12.726  -4.996  14.123  0.00  0.00    -0.381 OA
ATOM     28  C   UNL     1     -12.313  -4.696  12.797  0.00  0.00    +0.194 C 
ENDBRANCH  27   2
ENDBRANCH  26  27
ENDBRANCH   8  26
ENDBRANCH  25   8
ENDBRANCH  16  19
BRANCH  14   9
ATOM      3  N   UNL     1      -3.012 -10.443  14.007  0.00  0.00    -0.287 NA
ATOM      9  C   UNL     1      -3.246 -11.127  15.294  0.00  0.00    +0.146 C 
ATOM     10  C   UNL     1      -2.061 -10.706  16.182  0.00  0.00    +0.030 C 
ATOM     11  C   UNL     1      -1.184  -9.838  15.292  0.00  0.00    +0.017 C 
ATOM     12  C   UNL     1      -1.563 -10.268  13.889  0.00  0.00    +0.085 C 
BRANCH   3  13
ATOM     13  C   UNL     1      -3.573 -11.155  12.867  0.00  0.00    +0.121 C 
BRANCH  13  15
ATOM      6  N   UNL     1      -5.657  -8.706  10.870  0.00  0.00    -0.263 NA
ATOM     15  C   UNL     1      -3.997 -10.215  11.770  0.00  0.00    -0.015 A 
ATOM     17  C   UNL     1      -3.173  -9.972  10.676  0.00  0.00    +0.008 A 
ATOM     18  C   UNL     1      -5.218  -9.562  11.820  0.00  0.00    +0.115 A 
ATOM     20  C   UNL     1      -3.591  -9.098   9.679  0.00  0.00    +0.020 A 
ATOM     21  C   UNL     1      -4.831  -8.496   9.822  0.00  0.00    +0.111 A 
ENDBRANCH  13  15
ENDBRANCH   3  13
ENDBRANCH  14   9
TORSDOF 8
ENDMDL
MODEL 4
REMARK VINA RESULT:      -6.2     26.716     30.351
REMARK  Name = 45783488
REMARK  9 active torsions:
REMARK  status: ('A' for Active; 'I' for Inactive)
REMARK    1  A    between atoms: O_2  and  C_27
REMARK    2  A    between atoms: O_2  and  C_28
REMARK    3  A    between atoms: N_3  and  C_13
REMARK    4  A    between atoms: N_8  and  C_25
REMARK    5  A    between atoms: N_8  and  C_26
REMARK    6  A    between atoms: C_9  and  C_14
REMARK    7  A    between atoms: C_13  and  C_15
REMARK    8  A    between atoms: C_16  and  C_19
REMARK    9  A    between atoms: C_26  and  C_27
REMARK                            x       y       z     vdW  Elec       q    Type
REMARK                         _______ _______ _______ _____ _____    ______ ____
ROOT
ATOM      1  O   UNL     1      -5.416  -9.554  15.710  0.00  0.00    -0.336 OA
ATOM      4  N   UNL     1      -5.722 -11.296  17.084  0.00  0.00    -0.190 NA
ATOM      5  N   UNL     1      -6.624  -9.315  16.378  0.00  0.00    -0.056 NA
ATOM     14  C   UNL     1      -4.952 -10.740  16.185  0.00  0.00    +0.245 A 
ATOM     16  C   UNL     1      -6.736 -10.386  17.171  0.00  0.00    +0.204 A 
ENDROOT
BRANCH  16  19
ATOM      7  N   UNL     1      -8.722 -11.544  20.093  0.00  0.00    -0.240 NA
ATOM     19  C   UNL     1      -7.846 -10.576  18.058  0.00  0.00    +0.041 A 
ATOM     22  C   UNL     1      -9.087 -10.013  17.784  0.00  0.00    +0.016 A 
ATOM     23  C   UNL     1      -7.716 -11.327  19.216  0.00  0.00    +0.124 A 
ATOM     24  C   UNL     1     -10.146 -10.214  18.662  0.00  0.00    +0.044 A 
ATOM     25  C   UNL     1      -9.913 -10.981  19.793  0.00  0.00    +0.119 A 
BRANCH  25   8
ATOM      8  N   UNL     1     -11.001 -11.176  20.679  0.00  0.00    -0.327 N 
ATOM     29  H   UNL     1     -10.853 -10.902  21.644  0.00  0.00    +0.148 HD
BRANCH   8  26
ATOM     26  C   UNL     1     -12.248 -11.731  20.259  0.00  0.00    +0.131 C 
BRANCH  26  27
ATOM     27  C   UNL     1     -12.459 -13.086  20.912  0.00  0.00    +0.178 C 
BRANCH  27   2
ATOM      2  O   UNL     1     -11.307 -13.432  21.670  0.00  0.00    -0.381 OA
ATOM     28  C   UNL     1     -11.608 -14.401  22.664  0.00  0.00    +0.194 C 
ENDBRANCH  27   2
ENDBRANCH  26  27
ENDBRANCH   8  26
ENDBRANCH  25   8
ENDBRANCH  16  19
BRANCH  14   9
ATOM      3  N   UNL     1      -3.300 -10.577  14.331  0.00  0.00    -0.287 NA
ATOM      9  C   UNL     1      -3.637 -11.229  15.612  0.00  0.00    +0.146 C 
ATOM     10  C   UNL     1      -2.440 -10.930  16.531  0.00  0.00    +0.030 C 
ATOM     11  C   UNL     1      -1.455 -10.159  15.664  0.00  0.00    +0.017 C 
ATOM     12  C   UNL     1      -1.838 -10.554  14.252  0.00  0.00    +0.085 C 
BRANCH   3  13
ATOM     13  C   UNL     1      -3.901 -11.232  13.176  0.00  0.00    +0.121 C 
BRANCH  13  15
ATOM      6  N   UNL     1      -5.817  -8.673  11.151  0.00  0.00    -0.263 NA
ATOM     15  C   UNL     1      -4.243 -10.250  12.089  0.00  0.00    -0.015 A 
ATOM     17  C   UNL     1      -3.358  -9.996  11.047  0.00  0.00    +0.008 A 
ATOM     18  C   UNL     1      -5.449  -9.567  12.095  0.00  0.00    +0.115 A 
ATOM     20  C   UNL     1      -3.701  -9.083  10.056  0.00  0.00    +0.020 A 
ATOM     21  C   UNL     1      -4.932  -8.453  10.153  0.00  0.00    +0.111 A 
ENDBRANCH  13  15
ENDBRANCH   3  13
ENDBRANCH  14   9
TORSDOF 8
ENDMDL
MODEL 5
REMARK VINA RESULT:      -5.9     26.508     30.113
REMARK  Name = 45783488
REMARK  9 active torsions:
REMARK  status: ('A' for Active; 'I' for Inactive)
REMARK    1  A    between atoms: O_2  and  C_27
REMARK    2  A    between atoms: O_2  and  C_28
REMARK    3  A    between atoms: N_3  and  C_13
REMARK    4  A    between atoms: N_8  and  C_25
REMARK    5  A    between atoms: N_8  and  C_26
REMARK    6  A    between atoms: C_9  and  C_14
REMARK    7  A    between atoms: C_13  and  C_15
REMARK    8  A    between atoms: C_16  and  C_19
REMARK    9  A    between atoms: C_26  and  C_27
REMARK                            x       y       z     vdW  Elec       q    Type
REMARK                         _______ _______ _______ _____ _____    ______ ____
ROOT
ATOM      1  O   UNL     1      -4.342 -13.296  15.469  0.00  0.00    -0.336 OA
ATOM      4  N   UNL     1      -4.596 -11.277  16.405  0.00  0.00    -0.190 NA
ATOM      5  N   UNL     1      -5.517 -13.364  16.229  0.00  0.00    -0.056 NA
ATOM     14  C   UNL     1      -3.864 -12.034  15.628  0.00  0.00    +0.245 A 
ATOM     16  C   UNL     1      -5.599 -12.135  16.751  0.00  0.00    +0.204 A 
ENDROOT
BRANCH  16  19
ATOM      7  N   UNL     1      -8.516 -10.242  18.067  0.00  0.00    -0.240 NA
ATOM     19  C   UNL     1      -6.668 -11.735  17.619  0.00  0.00    +0.041 A 
ATOM     22  C   UNL     1      -6.910 -12.405  18.813  0.00  0.00    +0.016 A 
ATOM     23  C   UNL     1      -7.492 -10.669  17.294  0.00  0.00    +0.124 A 
ATOM     24  C   UNL     1      -7.954 -11.995  19.634  0.00  0.00    +0.044 A 
ATOM     25  C   UNL     1      -8.721 -10.918  19.220  0.00  0.00    +0.119 A 
BRANCH  25   8
ATOM      8  N   UNL     1      -9.781 -10.512  20.067  0.00  0.00    -0.327 N 
ATOM     29  H   UNL     1      -9.590  -9.736  20.691  0.00  0.00    +0.148 HD
BRANCH   8  26
ATOM     26  C   UNL     1     -11.058 -11.150  20.063  0.00  0.00    +0.131 C 
BRANCH  26  27
ATOM     27  C   UNL     1     -12.159 -10.111  20.186  0.00  0.00    +0.178 C 
BRANCH  27   2
ATOM      2  O   UNL     1     -13.136 -10.563  21.115  0.00  0.00    -0.381 OA
ATOM     28  C   UNL     1     -13.091 -11.974  21.275  0.00  0.00    +0.194 C 
ENDBRANCH  27   2
ENDBRANCH  26  27
ENDBRANCH   8  26
ENDBRANCH  25   8
ENDBRANCH  16  19
BRANCH  14   9
ATOM      3  N   UNL     1      -2.782 -10.704  13.824  0.00  0.00    -0.287 NA
ATOM      9  C   UNL     1      -2.581 -11.701  14.895  0.00  0.00    +0.146 C 
ATOM     10  C   UNL     1      -1.515 -11.079  15.814  0.00  0.00    +0.030 C 
ATOM     11  C   UNL     1      -1.133  -9.764  15.149  0.00  0.00    +0.017 C 
ATOM     12  C   UNL     1      -1.520  -9.973  13.699  0.00  0.00    +0.085 C 
BRANCH   3  13
ATOM     13  C   UNL     1      -3.202 -11.294  12.560  0.00  0.00    +0.121 C 
BRANCH  13  15
ATOM      6  N   UNL     1      -5.644  -8.749  11.186  0.00  0.00    -0.263 NA
ATOM     15  C   UNL     1      -3.826 -10.276  11.644  0.00  0.00    -0.015 A 
ATOM     17  C   UNL     1      -3.210  -9.911  10.452  0.00  0.00    +0.008 A 
ATOM     18  C   UNL     1      -5.031  -9.671  11.963  0.00  0.00    +0.115 A 
ATOM     20  C   UNL     1      -3.810  -8.967   9.627  0.00  0.00    +0.020 A 
ATOM     21  C   UNL     1      -5.016  -8.421  10.035  0.00  0.00    +0.111 A 
ENDBRANCH  13  15
ENDBRANCH   3  13
ENDBRANCH  14   9
TORSDOF 8
ENDMDL
MODEL 6
REMARK VINA RESULT:      -5.9     30.559     31.791
REMARK  Name = 45783488
REMARK  9 active torsions:
REMARK  status: ('A' for Active; 'I' for Inactive)
REMARK    1  A    between atoms: O_2  and  C_27
REMARK    2  A    between atoms: O_2  and  C_28
REMARK    3  A    between atoms: N_3  and  C_13
REMARK    4  A    between atoms: N_8  and  C_25
REMARK    5  A    between atoms: N_8  and  C_26
REMARK    6  A    between atoms: C_9  and  C_14
REMARK    7  A    between atoms: C_13  and  C_15
REMARK    8  A    between atoms: C_16  and  C_19
REMARK    9  A    between atoms: C_26  and  C_27
REMARK                            x       y       z     vdW  Elec       q    Type
REMARK                         _______ _______ _______ _____ _____    ______ ____
ROOT
ATOM      1  O   UNL     1     -13.342  -6.312  12.843  0.00  0.00    -0.336 OA
ATOM      4  N   UNL     1     -11.810  -5.335  14.153  0.00  0.00    -0.190 NA
ATOM      5  N   UNL     1     -12.751  -7.342  13.586  0.00  0.00    -0.056 NA
ATOM     14  C   UNL     1     -12.730  -5.164  13.238  0.00  0.00    +0.245 A 
ATOM     16  C   UNL     1     -11.858  -6.687  14.335  0.00  0.00    +0.204 A 
ENDROOT
BRANCH  16  19
ATOM      7  N   UNL     1      -9.361  -9.074  15.709  0.00  0.00    -0.240 NA
ATOM     19  C   UNL     1     -11.001  -7.353  15.272  0.00  0.00    +0.041 A 
ATOM     22  C   UNL     1     -10.958  -6.963  16.606  0.00  0.00    +0.016 A 
ATOM     23  C   UNL     1     -10.190  -8.405  14.877  0.00  0.00    +0.124 A 
ATOM     24  C   UNL     1     -10.117  -7.627  17.492  0.00  0.00    +0.044 A 
ATOM     25  C   UNL     1      -9.345  -8.667  16.998  0.00  0.00    +0.119 A 
BRANCH  25   8
ATOM      8  N   UNL     1      -8.493  -9.333  17.912  0.00  0.00    -0.327 N 
ATOM     29  H   UNL     1      -8.000  -8.750  18.578  0.00  0.00    +0.148 HD
BRANCH   8  26
ATOM     26  C   UNL     1      -8.319 -10.750  17.911  0.00  0.00    +0.131 C 
BRANCH  26  27
ATOM     27  C   UNL     1      -8.173 -11.257  19.336  0.00  0.00    +0.178 C 
BRANCH  27   2
ATOM      2  O   UNL     1      -9.273 -10.802  20.115  0.00  0.00    -0.381 OA
ATOM     28  C   UNL     1     -10.338 -11.742  20.113  0.00  0.00    +0.194 C 
ENDBRANCH  27   2
ENDBRANCH  26  27
ENDBRANCH   8  26
ENDBRANCH  25   8
ENDBRANCH  16  19
BRANCH  14   9
ATOM      3  N   UNL     1     -13.130  -3.956  11.100  0.00  0.00    -0.287 NA
ATOM      9  C   UNL     1     -13.198  -3.886  12.573  0.00  0.00    +0.146 C 
ATOM     10  C   UNL     1     -14.669  -3.559  12.883  0.00  0.00    +0.030 C 
ATOM     11  C   UNL     1     -15.337  -3.403  11.525  0.00  0.00    +0.017 C 
ATOM     12  C   UNL     1     -14.185  -3.075  10.596  0.00  0.00    +0.085 C 
BRANCH   3  13
ATOM     13  C   UNL     1     -11.821  -3.605  10.567  0.00  0.00    +0.121 C 
BRANCH  13  15
ATOM      6  N   UNL     1     -11.277  -7.050   9.097  0.00  0.00    -0.263 NA
ATOM     15  C   UNL     1     -11.225  -4.725   9.757  0.00  0.00    -0.015 A 
ATOM     17  C   UNL     1     -10.119  -4.511   8.942  0.00  0.00    +0.008 A 
ATOM     18  C   UNL     1     -11.763  -6.002   9.799  0.00  0.00    +0.115 A 
ATOM     20  C   UNL     1      -9.591  -5.565   8.206  0.00  0.00    +0.020 A 
ATOM     21  C   UNL     1     -10.201  -6.804   8.317  0.00  0.00    +0.111 A 
ENDBRANCH  13  15
ENDBRANCH   3  13
ENDBRANCH  14   9
TORSDOF 8
ENDMDL
MODEL 7
REMARK VINA RESULT:      -5.9     27.977     31.430
REMARK  Name = 45783488
REMARK  9 active torsions:
REMARK  status: ('A' for Active; 'I' for Inactive)
REMARK    1  A    between atoms: O_2  and  C_27
REMARK    2  A    between atoms: O_2  and  C_28
REMARK    3  A    between atoms: N_3  and  C_13
REMARK    4  A    between atoms: N_8  and  C_25
REMARK    5  A    between atoms: N_8  and  C_26
REMARK    6  A    between atoms: C_9  and  C_14
REMARK    7  A    between atoms: C_13  and  C_15
REMARK    8  A    between atoms: C_16  and  C_19
REMARK    9  A    between atoms: C_26  and  C_27
REMARK                            x       y       z     vdW  Elec       q    Type
REMARK                         _______ _______ _______ _____ _____    ______ ____
ROOT
ATOM      1  O   UNL     1      -9.036 -11.144  20.210  0.00  0.00    -0.336 OA
ATOM      4  N   UNL     1      -8.848 -10.882  17.993  0.00  0.00    -0.190 NA
ATOM      5  N   UNL     1      -7.665 -11.036  19.946  0.00  0.00    -0.056 NA
ATOM     14  C   UNL     1      -9.660 -11.043  19.007  0.00  0.00    +0.245 A 
ATOM     16  C   UNL     1      -7.634 -10.884  18.618  0.00  0.00    +0.204 A 
ENDROOT
BRANCH  16  19
ATOM      7  N   UNL     1      -5.237  -9.788  15.996  0.00  0.00    -0.240 NA
ATOM     19  C   UNL     1      -6.410 -10.732  17.887  0.00  0.00    +0.041 A 
ATOM     22  C   UNL     1      -5.238 -11.344  18.318  0.00  0.00    +0.016 A 
ATOM     23  C   UNL     1      -6.357  -9.971  16.730  0.00  0.00    +0.124 A 
ATOM     24  C   UNL     1      -4.066 -11.179  17.589  0.00  0.00    +0.044 A 
ATOM     25  C   UNL     1      -4.117 -10.398  16.445  0.00  0.00    +0.119 A 
BRANCH  25   8
ATOM      8  N   UNL     1      -2.915 -10.238  15.714  0.00  0.00    -0.327 N 
ATOM     29  H   UNL     1      -2.500  -9.313  15.721  0.00  0.00    +0.148 HD
BRANCH   8  26
ATOM     26  C   UNL     1      -2.303 -11.308  14.993  0.00  0.00    +0.131 C 
BRANCH  26  27
ATOM     27  C   UNL     1      -3.100 -11.611  13.736  0.00  0.00    +0.178 C 
BRANCH  27   2
ATOM      2  O   UNL     1      -3.257 -10.419  12.976  0.00  0.00    -0.381 OA
ATOM     28  C   UNL     1      -4.571 -10.307  12.447  0.00  0.00    +0.194 C 
ENDBRANCH  27   2
ENDBRANCH  26  27
ENDBRANCH   8  26
ENDBRANCH  25   8
ENDBRANCH  16  19
BRANCH  14   9
ATOM      3  N   UNL     1     -11.691 -11.803  20.228  0.00  0.00    -0.287 NA
ATOM      9  C   UNL     1     -11.172 -11.130  19.020  0.00  0.00    +0.146 C 
ATOM     10  C   UNL     1     -11.847  -9.747  19.022  0.00  0.00    +0.030 C 
ATOM     11  C   UNL     1     -12.771  -9.756  20.231  0.00  0.00    +0.017 C 
ATOM     12  C   UNL     1     -13.014 -11.230  20.484  0.00  0.00    +0.085 C 
BRANCH   3  13
ATOM     13  C   UNL     1     -11.735 -13.254  20.104  0.00  0.00    +0.121 C 
BRANCH  13  15
ATOM      6  N   UNL     1      -9.098 -15.057  22.135  0.00  0.00    -0.263 NA
ATOM     15  C   UNL     1     -11.054 -13.937  21.260  0.00  0.00    -0.015 A 
ATOM     17  C   UNL     1     -11.697 -14.087  22.484  0.00  0.00    +0.008 A 
ATOM     18  C   UNL     1      -9.766 -14.434  21.138  0.00  0.00    +0.115 A 
ATOM     20  C   UNL     1     -11.042 -14.723  23.533  0.00  0.00    +0.020 A 
ATOM     21  C   UNL     1      -9.755 -15.185  23.309  0.00  0.00    +0.111 A 
ENDBRANCH  13  15
ENDBRANCH   3  13
ENDBRANCH  14   9
TORSDOF 8
ENDMDL
MODEL 8
REMARK VINA RESULT:      -5.9     14.365     18.870
REMARK  Name = 45783488
REMARK  9 active torsions:
REMARK  status: ('A' for Active; 'I' for Inactive)
REMARK    1  A    between atoms: O_2  and  C_27
REMARK    2  A    between atoms: O_2  and  C_28
REMARK    3  A    between atoms: N_3  and  C_13
REMARK    4  A    between atoms: N_8  and  C_25
REMARK    5  A    between atoms: N_8  and  C_26
REMARK    6  A    between atoms: C_9  and  C_14
REMARK    7  A    between atoms: C_13  and  C_15
REMARK    8  A    between atoms: C_16  and  C_19
REMARK    9  A    between atoms: C_26  and  C_27
REMARK                            x       y       z     vdW  Elec       q    Type
REMARK                         _______ _______ _______ _____ _____    ______ ____
ROOT
ATOM      1  O   UNL     1      11.480   6.863   4.055  0.00  0.00    -0.336 OA
ATOM      4  N   UNL     1      10.897   4.736   3.660  0.00  0.00    -0.190 NA
ATOM      5  N   UNL     1      11.873   6.590   2.739  0.00  0.00    -0.056 NA
ATOM     14  C   UNL     1      10.915   5.719   4.524  0.00  0.00    +0.245 A 
ATOM     16  C   UNL     1      11.495   5.317   2.579  0.00  0.00    +0.204 A 
ENDROOT
BRANCH  16  19
ATOM      7  N   UNL     1      10.825   3.833  -0.763  0.00  0.00    -0.240 NA
ATOM     19  C   UNL     1      11.702   4.599   1.356  0.00  0.00    +0.041 A 
ATOM     22  C   UNL     1      12.919   3.985   1.082  0.00  0.00    +0.016 A 
ATOM     23  C   UNL     1      10.695   4.495   0.409  0.00  0.00    +0.124 A 
ATOM     24  C   UNL     1      13.091   3.296  -0.113  0.00  0.00    +0.044 A 
ATOM     25  C   UNL     1      12.022   3.249  -0.995  0.00  0.00    +0.119 A 
BRANCH  25   8
ATOM      8  N   UNL     1      12.213   2.544  -2.208  0.00  0.00    -0.327 N 
ATOM     29  H   UNL     1      11.986   1.556  -2.197  0.00  0.00    +0.148 HD
BRANCH   8  26
ATOM     26  C   UNL     1      12.701   3.170  -3.395  0.00  0.00    +0.131 C 
BRANCH  26  27
ATOM     27  C   UNL     1      11.571   3.343  -4.394  0.00  0.00    +0.178 C 
BRANCH  27   2
ATOM      2  O   UNL     1      10.434   2.607  -3.957  0.00  0.00    -0.381 OA
ATOM     28  C   UNL     1       9.244   3.375  -4.062  0.00  0.00    +0.194 C 
ENDBRANCH  27   2
ENDBRANCH  26  27
ENDBRANCH   8  26
ENDBRANCH  25   8
ENDBRANCH  16  19
BRANCH  14   9
ATOM      3  N   UNL     1      10.960   6.877   6.726  0.00  0.00    -0.287 NA
ATOM      9  C   UNL     1      10.400   5.755   5.948  0.00  0.00    +0.146 C 
ATOM     10  C   UNL     1       8.874   5.948   6.024  0.00  0.00    +0.030 C 
ATOM     11  C   UNL     1       8.671   7.166   6.914  0.00  0.00    +0.017 C 
ATOM     12  C   UNL     1       9.950   7.233   7.724  0.00  0.00    +0.085 C 
BRANCH   3  13
ATOM     13  C   UNL     1      12.248   6.570   7.334  0.00  0.00    +0.121 C 
BRANCH  13  15
ATOM      6  N   UNL     1      13.961   9.871   6.630  0.00  0.00    -0.263 NA
ATOM     15  C   UNL     1      13.307   7.564   6.940  0.00  0.00    -0.015 A 
ATOM     17  C   UNL     1      14.569   7.144   6.535  0.00  0.00    +0.008 A 
ATOM     18  C   UNL     1      13.055   8.927   6.971  0.00  0.00    +0.115 A 
ATOM     20  C   UNL     1      15.527   8.086   6.177  0.00  0.00    +0.020 A 
ATOM     21  C   UNL     1      15.176   9.425   6.241  0.00  0.00    +0.111 A 
ENDBRANCH  13  15
ENDBRANCH   3  13
ENDBRANCH  14   9
TORSDOF 8
ENDMDL
MODEL 9
REMARK VINA RESULT:      -5.7     14.163     18.319
REMARK  Name = 45783488
REMARK  9 active torsions:
REMARK  status: ('A' for Active; 'I' for Inactive)
REMARK    1  A    between atoms: O_2  and  C_27
REMARK    2  A    between atoms: O_2  and  C_28
REMARK    3  A    between atoms: N_3  and  C_13
REMARK    4  A    between atoms: N_8  and  C_25
REMARK    5  A    between atoms: N_8  and  C_26
REMARK    6  A    between atoms: C_9  and  C_14
REMARK    7  A    between atoms: C_13  and  C_15
REMARK    8  A    between atoms: C_16  and  C_19
REMARK    9  A    between atoms: C_26  and  C_27
REMARK                            x       y       z     vdW  Elec       q    Type
REMARK                         _______ _______ _______ _____ _____    ______ ____
ROOT
ATOM      1  O   UNL     1      12.312   7.319   5.572  0.00  0.00    -0.336 OA
ATOM      4  N   UNL     1      10.765   5.795   5.024  0.00  0.00    -0.190 NA
ATOM      5  N   UNL     1      12.537   7.002   4.226  0.00  0.00    -0.056 NA
ATOM     14  C   UNL     1      11.252   6.565   5.964  0.00  0.00    +0.245 A 
ATOM     16  C   UNL     1      11.585   6.097   3.976  0.00  0.00    +0.204 A 
ENDROOT
BRANCH  16  19
ATOM      7  N   UNL     1      10.062   5.100   0.734  0.00  0.00    -0.240 NA
ATOM     19  C   UNL     1      11.429   5.477   2.693  0.00  0.00    +0.041 A 
ATOM     22  C   UNL     1      12.432   4.679   2.155  0.00  0.00    +0.016 A 
ATOM     23  C   UNL     1      10.272   5.655   1.949  0.00  0.00    +0.124 A 
ATOM     24  C   UNL     1      12.252   4.091   0.908  0.00  0.00    +0.044 A 
ATOM     25  C   UNL     1      11.059   4.330   0.244  0.00  0.00    +0.119 A 
BRANCH  25   8
ATOM      8  N   UNL     1      10.891   3.725  -1.025  0.00  0.00    -0.327 N 
ATOM     29  H   UNL     1       9.960   3.765  -1.425  0.00  0.00    +0.148 HD
BRANCH   8  26
ATOM     26  C   UNL     1      11.959   3.084  -1.722  0.00  0.00    +0.131 C 
BRANCH  26  27
ATOM     27  C   UNL     1      11.409   2.011  -2.644  0.00  0.00    +0.178 C 
BRANCH  27   2
ATOM      2  O   UNL     1       9.987   2.036  -2.605  0.00  0.00    -0.381 OA
ATOM     28  C   UNL     1       9.433   2.251  -3.896  0.00  0.00    +0.194 C 
ENDBRANCH  27   2
ENDBRANCH  26  27
ENDBRANCH   8  26
ENDBRANCH  25   8
ENDBRANCH  16  19
BRANCH  14   9
ATOM      3  N   UNL     1       9.424   7.245   7.510  0.00  0.00    -0.287 NA
ATOM      9  C   UNL     1      10.803   6.727   7.401  0.00  0.00    +0.146 C 
ATOM     10  C   UNL     1      10.782   5.394   8.172  0.00  0.00    +0.030 C 
ATOM     11  C   UNL     1       9.370   5.277   8.728  0.00  0.00    +0.017 C 
ATOM     12  C   UNL     1       8.880   6.711   8.760  0.00  0.00    +0.085 C 
BRANCH   3  13
ATOM     13  C   UNL     1       9.351   8.699   7.456  0.00  0.00    +0.121 C 
BRANCH  13  15
ATOM      6  N   UNL     1       8.582  10.990   4.543  0.00  0.00    -0.263 NA
ATOM     15  C   UNL     1       8.821   9.186   6.134  0.00  0.00    -0.015 A 
ATOM     17  C   UNL     1       8.108   8.339   5.292  0.00  0.00    +0.008 A 
ATOM     18  C   UNL     1       9.030  10.491   5.717  0.00  0.00    +0.115 A 
ATOM     20  C   UNL     1       7.632   8.817   4.077  0.00  0.00    +0.020 A 
ATOM     21  C   UNL     1       7.893  10.139   3.752  0.00  0.00    +0.111 A 
ENDBRANCH  13  15
ENDBRANCH   3  13
ENDBRANCH  14   9
TORSDOF 8
ENDMDL
MODEL 10
REMARK VINA RESULT:      -5.7      2.399      2.919
REMARK  Name = 45783488
REMARK  9 active torsions:
REMARK  status: ('A' for Active; 'I' for Inactive)
REMARK    1  A    between atoms: O_2  and  C_27
REMARK    2  A    between atoms: O_2  and  C_28
REMARK    3  A    between atoms: N_3  and  C_13
REMARK    4  A    between atoms: N_8  and  C_25
REMARK    5  A    between atoms: N_8  and  C_26
REMARK    6  A    between atoms: C_9  and  C_14
REMARK    7  A    between atoms: C_13  and  C_15
REMARK    8  A    between atoms: C_16  and  C_19
REMARK    9  A    between atoms: C_26  and  C_27
REMARK                            x       y       z     vdW  Elec       q    Type
REMARK                         _______ _______ _______ _____ _____    ______ ____
ROOT
ATOM      1  O   UNL     1      16.264  11.498  22.259  0.00  0.00    -0.336 OA
ATOM      4  N   UNL     1      15.472   9.576  21.426  0.00  0.00    -0.190 NA
ATOM      5  N   UNL     1      17.379  10.678  22.046  0.00  0.00    -0.056 NA
ATOM     14  C   UNL     1      15.183  10.773  21.868  0.00  0.00    +0.245 A 
ATOM     16  C   UNL     1      16.831   9.562  21.554  0.00  0.00    +0.204 A 
ENDROOT
BRANCH  16  19
ATOM      7  N   UNL     1      17.765   6.322  19.986  0.00  0.00    -0.240 NA
ATOM     19  C   UNL     1      17.612   8.418  21.182  0.00  0.00    +0.041 A 
ATOM     22  C   UNL     1      18.923   8.272  21.621  0.00  0.00    +0.016 A 
ATOM     23  C   UNL     1      17.083   7.424  20.373  0.00  0.00    +0.124 A 
ATOM     24  C   UNL     1      19.655   7.152  21.244  0.00  0.00    +0.044 A 
ATOM     25  C   UNL     1      19.036   6.215  20.433  0.00  0.00    +0.119 A 
BRANCH  25   8
ATOM      8  N   UNL     1      19.796   5.080  20.057  0.00  0.00    -0.327 N 
ATOM     29  H   UNL     1      19.320   4.382  19.496  0.00  0.00    +0.148 HD
BRANCH   8  26
ATOM     26  C   UNL     1      21.161   4.905  20.438  0.00  0.00    +0.131 C 
BRANCH  26  27
ATOM     27  C   UNL     1      21.344   3.553  21.106  0.00  0.00    +0.178 C 
BRANCH  27   2
ATOM      2  O   UNL     1      22.730   3.243  21.176  0.00  0.00    -0.381 OA
ATOM     28  C   UNL     1      23.528   4.299  20.660  0.00  0.00    +0.194 C 
ENDBRANCH  27   2
ENDBRANCH  26  27
ENDBRANCH   8  26
ENDBRANCH  25   8
ENDBRANCH  16  19
BRANCH  14   9
ATOM      3  N   UNL     1      12.750  10.682  21.352  0.00  0.00    -0.287 NA
ATOM      9  C   UNL     1      13.833  11.448  22.000  0.00  0.00    +0.146 C 
ATOM     10  C   UNL     1      13.385  11.600  23.464  0.00  0.00    +0.030 C 
ATOM     11  C   UNL     1      12.014  10.942  23.531  0.00  0.00    +0.017 C 
ATOM     12  C   UNL     1      11.527  10.986  22.097  0.00  0.00    +0.085 C 
BRANCH   3  13
ATOM     13  C   UNL     1      12.613  10.968  19.931  0.00  0.00    +0.121 C 
BRANCH  13  15
ATOM      6  N   UNL     1      12.060   7.556  18.388  0.00  0.00    -0.263 NA
ATOM     15  C   UNL     1      12.826   9.741  19.087  0.00  0.00    -0.015 A 
ATOM     17  C   UNL     1      13.929   9.630  18.247  0.00  0.00    +0.008 A 
ATOM     18  C   UNL     1      11.928   8.685  19.120  0.00  0.00    +0.115 A 
ATOM     20  C   UNL     1      14.099   8.484  17.479  0.00  0.00    +0.020 A 
ATOM     21  C   UNL     1      13.145   7.485  17.585  0.00  0.00    +0.111 A 
ENDBRANCH  13  15
ENDBRANCH   3  13
ENDBRANCH  14   9
TORSDOF 8
ENDMDL
