MODEL 1
REMARK VINA RESULT:      -7.9      0.000      0.000
REMARK  Name = 7050376
REMARK  4 active torsions:
REMARK  status: ('A' for Active; 'I' for Inactive)
REMARK    1  A    between atoms: N_7  and  C_10
REMARK    2  A    between atoms: C_15  and  C_18
REMARK    3  A    between atoms: C_25  and  C_29
REMARK    4  A    between atoms: C_28  and  C_31
REMARK                            x       y       z     vdW  Elec       q    Type
REMARK                         _______ _______ _______ _____ _____    ______ ____
ROOT
ATOM      2  O   UNL     1     -10.704  -8.761  17.999  0.00  0.00    -0.273 OA
ATOM      3  O   UNL     1      -7.928 -10.521  13.834  0.00  0.00    -0.270 OA
ATOM      6  N   UNL     1      -9.241  -9.050  15.046  0.00  0.00    -0.286 N 
ATOM      9  N   UNL     1      -8.621  -9.665  17.873  0.00  0.00    -0.283 N 
ATOM     10  C   UNL     1     -11.746  -7.485  15.405  0.00  0.00    +0.077 C 
ATOM     11  C   UNL     1     -10.364  -6.975  15.842  0.00  0.00    +0.054 C 
ATOM     12  C   UNL     1      -9.340  -8.081  16.129  0.00  0.00    +0.164 C 
ATOM     13  C   UNL     1     -11.677  -8.842  14.693  0.00  0.00    +0.041 C 
ATOM     14  C   UNL     1     -10.316  -9.073  14.050  0.00  0.00    +0.111 C 
ATOM     21  C   UNL     1      -9.642  -8.876  17.387  0.00  0.00    +0.238 C 
ATOM     22  C   UNL     1      -8.113  -9.840  14.845  0.00  0.00    +0.249 C 
ATOM     23  C   UNL     1      -7.080  -9.906  15.914  0.00  0.00    +0.059 A 
ATOM     24  C   UNL     1      -7.363  -9.927  17.289  0.00  0.00    +0.046 A 
ATOM     26  C   UNL     1      -5.762 -10.144  15.478  0.00  0.00    +0.026 A 
ATOM     27  C   UNL     1      -6.335 -10.255  18.190  0.00  0.00    +0.025 A 
ATOM     28  C   UNL     1      -4.745 -10.421  16.390  0.00  0.00    +0.018 A 
ATOM     30  C   UNL     1      -5.034 -10.491  17.746  0.00  0.00    +0.013 A 
ATOM     36  H   UNL     1      -8.754 -10.017  18.819  0.00  0.00    +0.155 HD
ENDROOT
BRANCH  28  31
ATOM      5  O   UNL     1      -3.279 -10.831  14.584  0.00  0.00    -0.463 OA
ATOM     31  C   UNL     1      -3.402 -10.661  15.923  0.00  0.00    +0.135 A 
ATOM     32  C   UNL     1      -2.185 -10.762  16.546  0.00  0.00    +0.050 A 
ATOM     33  C   UNL     1      -1.243 -11.011  15.519  0.00  0.00    +0.042 A 
ATOM     34  C   UNL     1      -1.958 -11.044  14.345  0.00  0.00    +0.196 A 
ENDBRANCH  28  31
BRANCH  10   7
ATOM      1  O   UNL     1     -14.547  -6.713  15.444  0.00  0.00    -0.276 OA
ATOM      7  N   UNL     1     -12.398  -6.495  14.575  0.00  0.00    -0.312 N 
ATOM     18  C   UNL     1     -13.748  -6.196  14.668  0.00  0.00    +0.216 C 
ATOM     35  H   UNL     1     -11.816  -5.964  13.933  0.00  0.00    +0.149 HD
BRANCH  18  15
ATOM      4  O   UNL     1     -12.749  -3.386   9.284  0.00  0.00    -0.276 OA
ATOM      8  N   UNL     1     -14.135  -4.029  11.034  0.00  0.00    -0.302 N 
ATOM     15  C   UNL     1     -14.159  -5.118  13.714  0.00  0.00    +0.078 C 
ATOM     16  C   UNL     1     -12.909  -4.452  13.128  0.00  0.00    +0.032 C 
ATOM     17  C   UNL     1     -15.033  -5.704  12.602  0.00  0.00    +0.032 C 
ATOM     19  C   UNL     1     -13.281  -3.428  12.060  0.00  0.00    +0.108 C 
ATOM     20  C   UNL     1     -15.362  -4.653  11.544  0.00  0.00    +0.108 C 
ATOM     25  C   UNL     1     -13.770  -3.945   9.691  0.00  0.00    +0.212 C 
ATOM     29  C   UNL     1     -14.701  -4.592   8.697  0.00  0.00    +0.109 C 
ENDBRANCH  18  15
ENDBRANCH  10   7
TORSDOF 3
ENDMDL
MODEL 2
REMARK VINA RESULT:      -7.6     28.995     33.416
REMARK  Name = 7050376
REMARK  4 active torsions:
REMARK  status: ('A' for Active; 'I' for Inactive)
REMARK    1  A    between atoms: N_7  and  C_10
REMARK    2  A    between atoms: C_15  and  C_18
REMARK    3  A    between atoms: C_25  and  C_29
REMARK    4  A    between atoms: C_28  and  C_31
REMARK                            x       y       z     vdW  Elec       q    Type
REMARK                         _______ _______ _______ _____ _____    ______ ____
ROOT
ATOM      2  O   UNL     1      22.030   7.033  19.887  0.00  0.00    -0.273 OA
ATOM      3  O   UNL     1      22.683   4.422  24.459  0.00  0.00    -0.270 OA
ATOM      6  N   UNL     1      21.520   5.323  22.673  0.00  0.00    -0.286 N 
ATOM      9  N   UNL     1      23.492   5.390  20.468  0.00  0.00    -0.283 N 
ATOM     10  C   UNL     1      19.462   7.167  21.569  0.00  0.00    +0.077 C 
ATOM     11  C   UNL     1      19.752   5.777  20.979  0.00  0.00    +0.054 C 
ATOM     12  C   UNL     1      21.164   5.250  21.262  0.00  0.00    +0.164 C 
ATOM     13  C   UNL     1      20.286   7.457  22.830  0.00  0.00    +0.041 C 
ATOM     14  C   UNL     1      20.701   6.176  23.539  0.00  0.00    +0.111 C 
ATOM     21  C   UNL     1      22.253   5.993  20.508  0.00  0.00    +0.238 C 
ATOM     22  C   UNL     1      22.500   4.516  23.244  0.00  0.00    +0.249 C 
ATOM     23  C   UNL     1      23.407   3.744  22.353  0.00  0.00    +0.059 A 
ATOM     24  C   UNL     1      23.920   4.224  21.137  0.00  0.00    +0.046 A 
ATOM     26  C   UNL     1      23.903   2.537  22.881  0.00  0.00    +0.026 A 
ATOM     27  C   UNL     1      24.967   3.520  20.516  0.00  0.00    +0.025 A 
ATOM     28  C   UNL     1      24.908   1.827  22.226  0.00  0.00    +0.018 A 
ATOM     30  C   UNL     1      25.451   2.327  21.050  0.00  0.00    +0.013 A 
ATOM     36  H   UNL     1      24.144   5.779  19.790  0.00  0.00    +0.155 HD
ENDROOT
BRANCH  28  31
ATOM      5  O   UNL     1      25.186   0.433  24.112  0.00  0.00    -0.463 OA
ATOM     31  C   UNL     1      25.402   0.592  22.783  0.00  0.00    +0.135 A 
ATOM     32  C   UNL     1      26.062  -0.489  22.259  0.00  0.00    +0.050 A 
ATOM     33  C   UNL     1      26.268  -1.379  23.340  0.00  0.00    +0.042 A 
ATOM     34  C   UNL     1      25.718  -0.773  24.444  0.00  0.00    +0.196 A 
ENDBRANCH  28  31
BRANCH  10   7
ATOM      1  O   UNL     1      17.279   6.878  19.674  0.00  0.00    -0.276 OA
ATOM      7  N   UNL     1      18.045   7.306  21.830  0.00  0.00    -0.312 N 
ATOM     18  C   UNL     1      17.074   7.149  20.854  0.00  0.00    +0.216 C 
ATOM     35  H   UNL     1      17.760   7.476  22.790  0.00  0.00    +0.149 HD
BRANCH  18  15
ATOM      4  O   UNL     1      11.880  10.451  20.841  0.00  0.00    -0.276 OA
ATOM      8  N   UNL     1      13.044   8.462  21.139  0.00  0.00    -0.302 N 
ATOM     15  C   UNL     1      15.689   7.322  21.397  0.00  0.00    +0.078 C 
ATOM     16  C   UNL     1      15.427   8.809  21.657  0.00  0.00    +0.032 C 
ATOM     17  C   UNL     1      14.664   6.753  20.413  0.00  0.00    +0.032 C 
ATOM     19  C   UNL     1      13.985   9.044  22.098  0.00  0.00    +0.108 C 
ATOM     20  C   UNL     1      13.236   7.030  20.880  0.00  0.00    +0.108 C 
ATOM     25  C   UNL     1      12.042   9.256  20.581  0.00  0.00    +0.212 C 
ATOM     29  C   UNL     1      11.115   8.583  19.600  0.00  0.00    +0.109 C 
ENDBRANCH  18  15
ENDBRANCH  10   7
TORSDOF 3
ENDMDL
MODEL 3
REMARK VINA RESULT:      -7.5      4.835      9.959
REMARK  Name = 7050376
REMARK  4 active torsions:
REMARK  status: ('A' for Active; 'I' for Inactive)
REMARK    1  A    between atoms: N_7  and  C_10
REMARK    2  A    between atoms: C_15  and  C_18
REMARK    3  A    between atoms: C_25  and  C_29
REMARK    4  A    between atoms: C_28  and  C_31
REMARK                            x       y       z     vdW  Elec       q    Type
REMARK                         _______ _______ _______ _____ _____    ______ ____
ROOT
ATOM      2  O   UNL     1      -8.022 -11.051  19.974  0.00  0.00    -0.273 OA
ATOM      3  O   UNL     1     -11.247  -7.905  17.172  0.00  0.00    -0.270 OA
ATOM      6  N   UNL     1      -9.651  -9.544  17.520  0.00  0.00    -0.286 N 
ATOM      9  N   UNL     1     -10.231 -10.574  20.232  0.00  0.00    -0.283 N 
ATOM     10  C   UNL     1      -6.906 -10.627  17.142  0.00  0.00    +0.077 C 
ATOM     11  C   UNL     1      -8.161 -11.513  17.194  0.00  0.00    +0.054 C 
ATOM     12  C   UNL     1      -9.340 -10.898  17.958  0.00  0.00    +0.164 C 
ATOM     13  C   UNL     1      -7.234  -9.131  17.221  0.00  0.00    +0.041 C 
ATOM     14  C   UNL     1      -8.643  -8.836  16.725  0.00  0.00    +0.111 C 
ATOM     21  C   UNL     1      -9.116 -10.820  19.459  0.00  0.00    +0.238 C 
ATOM     22  C   UNL     1     -10.903  -8.964  17.700  0.00  0.00    +0.249 C 
ATOM     23  C   UNL     1     -11.881  -9.628  18.604  0.00  0.00    +0.059 A 
ATOM     24  C   UNL     1     -11.540 -10.266  19.808  0.00  0.00    +0.046 A 
ATOM     26  C   UNL     1     -13.239  -9.425  18.292  0.00  0.00    +0.026 A 
ATOM     27  C   UNL     1     -12.565 -10.621  20.702  0.00  0.00    +0.025 A 
ATOM     28  C   UNL     1     -14.244  -9.829  19.170  0.00  0.00    +0.018 A 
ATOM     30  C   UNL     1     -13.907 -10.414  20.382  0.00  0.00    +0.013 A 
ATOM     36  H   UNL     1     -10.113 -10.738  21.230  0.00  0.00    +0.155 HD
ENDROOT
BRANCH  28  31
ATOM      5  O   UNL     1     -16.516 -10.372  19.520  0.00  0.00    -0.463 OA
ATOM     31  C   UNL     1     -15.629  -9.612  18.831  0.00  0.00    +0.135 A 
ATOM     32  C   UNL     1     -16.271  -8.790  17.943  0.00  0.00    +0.050 A 
ATOM     33  C   UNL     1     -17.653  -9.059  18.093  0.00  0.00    +0.042 A 
ATOM     34  C   UNL     1     -17.749 -10.028  19.064  0.00  0.00    +0.196 A 
ENDBRANCH  28  31
BRANCH  10   7
ATOM      1  O   UNL     1      -4.049 -10.272  16.746  0.00  0.00    -0.276 OA
ATOM      7  N   UNL     1      -6.137 -10.929  15.953  0.00  0.00    -0.312 N 
ATOM     18  C   UNL     1      -4.770 -10.723  15.860  0.00  0.00    +0.216 C 
ATOM     35  H   UNL     1      -6.627 -11.361  15.175  0.00  0.00    +0.149 HD
BRANCH  18  15
ATOM      4  O   UNL     1      -3.258  -9.076  10.126  0.00  0.00    -0.276 OA
ATOM      8  N   UNL     1      -3.016 -10.425  12.002  0.00  0.00    -0.302 N 
ATOM     15  C   UNL     1      -4.221 -11.142  14.532  0.00  0.00    +0.078 C 
ATOM     16  C   UNL     1      -5.034 -10.482  13.414  0.00  0.00    +0.032 C 
ATOM     17  C   UNL     1      -2.743 -10.758  14.428  0.00  0.00    +0.032 C 
ATOM     19  C   UNL     1      -4.434 -10.787  12.044  0.00  0.00    +0.108 C 
ATOM     20  C   UNL     1      -2.189 -11.058  13.037  0.00  0.00    +0.108 C 
ATOM     25  C   UNL     1      -2.547  -9.569  11.005  0.00  0.00    +0.212 C 
ATOM     29  C   UNL     1      -1.076  -9.242  11.033  0.00  0.00    +0.109 C 
ENDBRANCH  18  15
ENDBRANCH  10   7
TORSDOF 3
ENDMDL
MODEL 4
REMARK VINA RESULT:      -7.4     20.975     23.726
REMARK  Name = 7050376
REMARK  4 active torsions:
REMARK  status: ('A' for Active; 'I' for Inactive)
REMARK    1  A    between atoms: N_7  and  C_10
REMARK    2  A    between atoms: C_15  and  C_18
REMARK    3  A    between atoms: C_25  and  C_29
REMARK    4  A    between atoms: C_28  and  C_31
REMARK                            x       y       z     vdW  Elec       q    Type
REMARK                         _______ _______ _______ _____ _____    ______ ____
ROOT
ATOM      2  O   UNL     1     -15.037   2.970  33.489  0.00  0.00    -0.273 OA
ATOM      3  O   UNL     1     -17.210   5.859  29.605  0.00  0.00    -0.270 OA
ATOM      6  N   UNL     1     -15.692   5.337  31.271  0.00  0.00    -0.286 N 
ATOM      9  N   UNL     1     -15.728   2.381  31.403  0.00  0.00    -0.283 N 
ATOM     10  C   UNL     1     -14.357   5.944  33.860  0.00  0.00    +0.077 C 
ATOM     11  C   UNL     1     -13.636   5.280  32.676  0.00  0.00    +0.054 C 
ATOM     12  C   UNL     1     -14.561   4.529  31.710  0.00  0.00    +0.164 C 
ATOM     13  C   UNL     1     -15.804   6.330  33.531  0.00  0.00    +0.041 C 
ATOM     14  C   UNL     1     -16.003   6.548  32.037  0.00  0.00    +0.111 C 
ATOM     21  C   UNL     1     -15.148   3.256  32.296  0.00  0.00    +0.238 C 
ATOM     22  C   UNL     1     -16.384   5.084  30.091  0.00  0.00    +0.249 C 
ATOM     23  C   UNL     1     -16.151   3.797  29.381  0.00  0.00    +0.059 A 
ATOM     24  C   UNL     1     -15.957   2.563  30.023  0.00  0.00    +0.046 A 
ATOM     26  C   UNL     1     -16.325   3.828  27.984  0.00  0.00    +0.026 A 
ATOM     27  C   UNL     1     -16.012   1.384  29.258  0.00  0.00    +0.025 A 
ATOM     28  C   UNL     1     -16.328   2.651  27.237  0.00  0.00    +0.018 A 
ATOM     30  C   UNL     1     -16.186   1.428  27.875  0.00  0.00    +0.013 A 
ATOM     36  H   UNL     1     -15.919   1.450  31.767  0.00  0.00    +0.155 HD
ENDROOT
BRANCH  28  31
ATOM      5  O   UNL     1     -15.674   3.551  25.152  0.00  0.00    -0.463 OA
ATOM     31  C   UNL     1     -16.507   2.704  25.806  0.00  0.00    +0.135 A 
ATOM     32  C   UNL     1     -17.355   2.075  24.933  0.00  0.00    +0.050 A 
ATOM     33  C   UNL     1     -17.023   2.567  23.647  0.00  0.00    +0.042 A 
ATOM     34  C   UNL     1     -15.995   3.461  23.835  0.00  0.00    +0.196 A 
ENDBRANCH  28  31
BRANCH  10   7
ATOM      1  O   UNL     1     -13.015   6.274  36.417  0.00  0.00    -0.276 OA
ATOM      7  N   UNL     1     -13.603   7.091  34.317  0.00  0.00    -0.312 N 
ATOM     18  C   UNL     1     -12.996   7.155  35.561  0.00  0.00    +0.216 C 
ATOM     35  H   UNL     1     -13.475   7.859  33.664  0.00  0.00    +0.149 HD
BRANCH  18  15
ATOM      4  O   UNL     1      -7.611  10.131  35.389  0.00  0.00    -0.276 OA
ATOM      8  N   UNL     1      -9.931  10.083  35.271  0.00  0.00    -0.302 N 
ATOM     15  C   UNL     1     -12.260   8.442  35.770  0.00  0.00    +0.078 C 
ATOM     16  C   UNL     1     -10.916   8.156  36.447  0.00  0.00    +0.032 C 
ATOM     17  C   UNL     1     -12.053   9.154  34.430  0.00  0.00    +0.032 C 
ATOM     19  C   UNL     1     -10.081   9.427  36.571  0.00  0.00    +0.108 C 
ATOM     20  C   UNL     1     -11.194  10.406  34.595  0.00  0.00    +0.108 C 
ATOM     25  C   UNL     1      -8.657  10.383  34.787  0.00  0.00    +0.212 C 
ATOM     29  C   UNL     1      -8.588  11.055  33.439  0.00  0.00    +0.109 C 
ENDBRANCH  18  15
ENDBRANCH  10   7
TORSDOF 3
ENDMDL
MODEL 5
REMARK VINA RESULT:      -7.2     28.883     34.541
REMARK  Name = 7050376
REMARK  4 active torsions:
REMARK  status: ('A' for Active; 'I' for Inactive)
REMARK    1  A    between atoms: N_7  and  C_10
REMARK    2  A    between atoms: C_15  and  C_18
REMARK    3  A    between atoms: C_25  and  C_29
REMARK    4  A    between atoms: C_28  and  C_31
REMARK                            x       y       z     vdW  Elec       q    Type
REMARK                         _______ _______ _______ _____ _____    ______ ____
ROOT
ATOM      2  O   UNL     1      20.623   9.165  21.923  0.00  0.00    -0.273 OA
ATOM      3  O   UNL     1      17.062   5.871  19.774  0.00  0.00    -0.270 OA
ATOM      6  N   UNL     1      18.854   6.493  21.100  0.00  0.00    -0.286 N 
ATOM      9  N   UNL     1      18.367   9.348  21.706  0.00  0.00    -0.283 N 
ATOM     10  C   UNL     1      21.725   6.297  21.858  0.00  0.00    +0.077 C 
ATOM     11  C   UNL     1      20.596   6.511  22.880  0.00  0.00    +0.054 C 
ATOM     12  C   UNL     1      19.333   7.162  22.303  0.00  0.00    +0.164 C 
ATOM     13  C   UNL     1      21.201   6.113  20.428  0.00  0.00    +0.041 C 
ATOM     14  C   UNL     1      19.774   5.581  20.415  0.00  0.00    +0.111 C 
ATOM     21  C   UNL     1      19.517   8.624  21.933  0.00  0.00    +0.238 C 
ATOM     22  C   UNL     1      17.533   6.576  20.670  0.00  0.00    +0.249 C 
ATOM     23  C   UNL     1      16.635   7.588  21.288  0.00  0.00    +0.059 A 
ATOM     24  C   UNL     1      17.036   8.883  21.654  0.00  0.00    +0.046 A 
ATOM     26  C   UNL     1      15.268   7.252  21.326  0.00  0.00    +0.026 A 
ATOM     27  C   UNL     1      16.051   9.832  21.980  0.00  0.00    +0.025 A 
ATOM     28  C   UNL     1      14.310   8.194  21.699  0.00  0.00    +0.018 A 
ATOM     30  C   UNL     1      14.699   9.488  22.012  0.00  0.00    +0.013 A 
ATOM     36  H   UNL     1      18.487  10.359  21.675  0.00  0.00    +0.155 HD
ENDROOT
BRANCH  28  31
ATOM      5  O   UNL     1      12.633   6.584  21.276  0.00  0.00    -0.463 OA
ATOM     31  C   UNL     1      12.914   7.830  21.732  0.00  0.00    +0.135 A 
ATOM     32  C   UNL     1      11.774   8.478  22.129  0.00  0.00    +0.050 A 
ATOM     33  C   UNL     1      10.713   7.569  21.904  0.00  0.00    +0.042 A 
ATOM     34  C   UNL     1      11.287   6.433  21.384  0.00  0.00    +0.196 A 
ENDBRANCH  28  31
BRANCH  10   7
ATOM      1  O   UNL     1      24.507   5.813  21.176  0.00  0.00    -0.276 OA
ATOM      7  N   UNL     1      22.547   5.175  22.259  0.00  0.00    -0.312 N 
ATOM     18  C   UNL     1      23.872   5.032  21.880  0.00  0.00    +0.216 C 
ATOM     35  H   UNL     1      22.137   4.495  22.891  0.00  0.00    +0.149 HD
BRANCH  18  15
ATOM      4  O   UNL     1      24.319   1.194  26.670  0.00  0.00    -0.276 OA
ATOM      8  N   UNL     1      24.446   1.658  24.397  0.00  0.00    -0.302 N 
ATOM     15  C   UNL     1      24.497   3.797  22.452  0.00  0.00    +0.078 C 
ATOM     16  C   UNL     1      24.852   4.041  23.922  0.00  0.00    +0.032 C 
ATOM     17  C   UNL     1      23.541   2.610  22.312  0.00  0.00    +0.032 C 
ATOM     19  C   UNL     1      25.382   2.769  24.577  0.00  0.00    +0.108 C 
ATOM     20  C   UNL     1      24.099   1.366  23.001  0.00  0.00    +0.108 C 
ATOM     25  C   UNL     1      23.987   0.950  25.508  0.00  0.00    +0.212 C 
ATOM     29  C   UNL     1      23.022  -0.177  25.239  0.00  0.00    +0.109 C 
ENDBRANCH  18  15
ENDBRANCH  10   7
TORSDOF 3
ENDMDL
MODEL 6
REMARK VINA RESULT:      -7.1     11.752     14.230
REMARK  Name = 7050376
REMARK  4 active torsions:
REMARK  status: ('A' for Active; 'I' for Inactive)
REMARK    1  A    between atoms: N_7  and  C_10
REMARK    2  A    between atoms: C_15  and  C_18
REMARK    3  A    between atoms: C_25  and  C_29
REMARK    4  A    between atoms: C_28  and  C_31
REMARK                            x       y       z     vdW  Elec       q    Type
REMARK                         _______ _______ _______ _____ _____    ______ ____
ROOT
ATOM      2  O   UNL     1      -3.051 -15.409   5.352  0.00  0.00    -0.273 OA
ATOM      3  O   UNL     1      -1.534 -13.440   0.664  0.00  0.00    -0.270 OA
ATOM      6  N   UNL     1      -2.325 -13.383   2.838  0.00  0.00    -0.286 N 
ATOM      9  N   UNL     1      -1.198 -15.814   4.096  0.00  0.00    -0.283 N 
ATOM     10  C   UNL     1      -4.438 -12.718   4.824  0.00  0.00    +0.077 C 
ATOM     11  C   UNL     1      -2.935 -12.600   5.122  0.00  0.00    +0.054 C 
ATOM     12  C   UNL     1      -2.044 -13.506   4.263  0.00  0.00    +0.164 C 
ATOM     13  C   UNL     1      -4.723 -13.133   3.376  0.00  0.00    +0.041 C 
ATOM     14  C   UNL     1      -3.583 -12.744   2.443  0.00  0.00    +0.111 C 
ATOM     21  C   UNL     1      -2.176 -14.982   4.598  0.00  0.00    +0.238 C 
ATOM     22  C   UNL     1      -1.394 -13.714   1.858  0.00  0.00    +0.249 C 
ATOM     23  C   UNL     1      -0.173 -14.469   2.248  0.00  0.00    +0.059 A 
ATOM     24  C   UNL     1      -0.150 -15.495   3.207  0.00  0.00    +0.046 A 
ATOM     26  C   UNL     1       0.969 -14.238   1.458  0.00  0.00    +0.026 A 
ATOM     27  C   UNL     1       0.992 -16.310   3.301  0.00  0.00    +0.025 A 
ATOM     28  C   UNL     1       2.110 -15.026   1.600  0.00  0.00    +0.018 A 
ATOM     30  C   UNL     1       2.116 -16.072   2.512  0.00  0.00    +0.013 A 
ATOM     36  H   UNL     1      -1.172 -16.748   4.499  0.00  0.00    +0.155 HD
ENDROOT
BRANCH  28  31
ATOM      5  O   UNL     1       4.295 -15.644   0.949  0.00  0.00    -0.463 OA
ATOM     31  C   UNL     1       3.270 -14.773   0.781  0.00  0.00    +0.135 A 
ATOM     32  C   UNL     1       3.580 -13.822  -0.156  0.00  0.00    +0.050 A 
ATOM     33  C   UNL     1       4.890 -14.126  -0.599  0.00  0.00    +0.042 A 
ATOM     34  C   UNL     1       5.280 -15.243   0.103  0.00  0.00    +0.196 A 
ENDBRANCH  28  31
BRANCH  10   7
ATOM      1  O   UNL     1      -5.365 -11.843   7.435  0.00  0.00    -0.276 OA
ATOM      7  N   UNL     1      -5.106 -11.476   5.151  0.00  0.00    -0.312 N 
ATOM     18  C   UNL     1      -5.512 -11.147   6.434  0.00  0.00    +0.216 C 
ATOM     35  H   UNL     1      -5.229 -10.799   4.404  0.00  0.00    +0.149 HD
BRANCH  18  15
ATOM      4  O   UNL     1     -10.312  -7.612   4.903  0.00  0.00    -0.276 OA
ATOM      8  N   UNL     1      -8.529  -8.160   6.288  0.00  0.00    -0.302 N 
ATOM     15  C   UNL     1      -6.154  -9.796   6.498  0.00  0.00    +0.078 C 
ATOM     16  C   UNL     1      -6.785  -9.467   5.142  0.00  0.00    +0.032 C 
ATOM     17  C   UNL     1      -7.207  -9.765   7.609  0.00  0.00    +0.032 C 
ATOM     19  C   UNL     1      -7.553  -8.149   5.198  0.00  0.00    +0.108 C 
ATOM     20  C   UNL     1      -7.967  -8.440   7.615  0.00  0.00    +0.108 C 
ATOM     25  C   UNL     1      -9.870  -7.878   6.023  0.00  0.00    +0.212 C 
ATOM     29  C   UNL     1     -10.812  -7.912   7.199  0.00  0.00    +0.109 C 
ENDBRANCH  18  15
ENDBRANCH  10   7
TORSDOF 3
ENDMDL
MODEL 7
REMARK VINA RESULT:      -7.0      6.182      7.367
REMARK  Name = 7050376
REMARK  4 active torsions:
REMARK  status: ('A' for Active; 'I' for Inactive)
REMARK    1  A    between atoms: N_7  and  C_10
REMARK    2  A    between atoms: C_15  and  C_18
REMARK    3  A    between atoms: C_25  and  C_29
REMARK    4  A    between atoms: C_28  and  C_31
REMARK                            x       y       z     vdW  Elec       q    Type
REMARK                         _______ _______ _______ _____ _____    ______ ____
ROOT
ATOM      2  O   UNL     1      -6.450 -11.553  20.525  0.00  0.00    -0.273 OA
ATOM      3  O   UNL     1      -6.752 -13.589  15.634  0.00  0.00    -0.270 OA
ATOM      6  N   UNL     1      -7.495 -12.482  17.526  0.00  0.00    -0.286 N 
ATOM      9  N   UNL     1      -5.036 -11.383  18.751  0.00  0.00    -0.283 N 
ATOM     10  C   UNL     1      -9.366 -12.223  19.826  0.00  0.00    +0.077 C 
ATOM     11  C   UNL     1      -8.800 -11.017  19.060  0.00  0.00    +0.054 C 
ATOM     12  C   UNL     1      -7.465 -11.283  18.353  0.00  0.00    +0.164 C 
ATOM     13  C   UNL     1      -8.928 -13.564  19.223  0.00  0.00    +0.041 C 
ATOM     14  C   UNL     1      -8.589 -13.434  17.745  0.00  0.00    +0.111 C 
ATOM     21  C   UNL     1      -6.295 -11.451  19.307  0.00  0.00    +0.238 C 
ATOM     22  C   UNL     1      -6.624 -12.682  16.460  0.00  0.00    +0.249 C 
ATOM     23  C   UNL     1      -5.447 -11.784  16.314  0.00  0.00    +0.059 A 
ATOM     24  C   UNL     1      -4.685 -11.295  17.387  0.00  0.00    +0.046 A 
ATOM     26  C   UNL     1      -4.990 -11.584  14.997  0.00  0.00    +0.026 A 
ATOM     27  C   UNL     1      -3.450 -10.678  17.119  0.00  0.00    +0.025 A 
ATOM     28  C   UNL     1      -3.786 -10.927  14.749  0.00  0.00    +0.018 A 
ATOM     30  C   UNL     1      -3.008 -10.486  15.810  0.00  0.00    +0.013 A 
ATOM     36  H   UNL     1      -4.271 -11.279  19.415  0.00  0.00    +0.155 HD
ENDROOT
BRANCH  28  31
ATOM      5  O   UNL     1      -2.030 -10.388  13.262  0.00  0.00    -0.463 OA
ATOM     31  C   UNL     1      -3.336 -10.731  13.392  0.00  0.00    +0.135 A 
ATOM     32  C   UNL     1      -3.947 -10.813  12.169  0.00  0.00    +0.050 A 
ATOM     33  C   UNL     1      -2.950 -10.500  11.214  0.00  0.00    +0.042 A 
ATOM     34  C   UNL     1      -1.802 -10.249  11.929  0.00  0.00    +0.196 A 
ENDBRANCH  28  31
BRANCH  10   7
ATOM      1  O   UNL     1     -11.130 -13.536  21.725  0.00  0.00    -0.276 OA
ATOM      7  N   UNL     1     -10.809 -12.131  19.896  0.00  0.00    -0.312 N 
ATOM     18  C   UNL     1     -11.566 -12.799  20.845  0.00  0.00    +0.216 C 
ATOM     35  H   UNL     1     -11.271 -11.502  19.247  0.00  0.00    +0.149 HD
BRANCH  18  15
ATOM      4  O   UNL     1     -16.149  -8.772  21.657  0.00  0.00    -0.276 OA
ATOM      8  N   UNL     1     -15.180 -10.582  20.569  0.00  0.00    -0.302 N 
ATOM     15  C   UNL     1     -13.030 -12.511  20.710  0.00  0.00    +0.078 C 
ATOM     16  C   UNL     1     -13.516 -11.759  21.953  0.00  0.00    +0.032 C 
ATOM     17  C   UNL     1     -13.290 -11.692  19.443  0.00  0.00    +0.032 C 
ATOM     19  C   UNL     1     -14.976 -11.340  21.805  0.00  0.00    +0.108 C 
ATOM     20  C   UNL     1     -14.756 -11.274  19.346  0.00  0.00    +0.108 C 
ATOM     25  C   UNL     1     -15.771  -9.319  20.619  0.00  0.00    +0.212 C 
ATOM     29  C   UNL     1     -15.943  -8.602  19.303  0.00  0.00    +0.109 C 
ENDBRANCH  18  15
ENDBRANCH  10   7
TORSDOF 3
ENDMDL
MODEL 8
REMARK VINA RESULT:      -7.0      4.686     10.990
REMARK  Name = 7050376
REMARK  4 active torsions:
REMARK  status: ('A' for Active; 'I' for Inactive)
REMARK    1  A    between atoms: N_7  and  C_10
REMARK    2  A    between atoms: C_15  and  C_18
REMARK    3  A    between atoms: C_25  and  C_29
REMARK    4  A    between atoms: C_28  and  C_31
REMARK                            x       y       z     vdW  Elec       q    Type
REMARK                         _______ _______ _______ _____ _____    ______ ____
ROOT
ATOM      2  O   UNL     1      -7.566 -11.097  19.943  0.00  0.00    -0.273 OA
ATOM      3  O   UNL     1     -10.555  -8.304  16.563  0.00  0.00    -0.270 OA
ATOM      6  N   UNL     1      -9.079  -9.957  17.230  0.00  0.00    -0.286 N 
ATOM      9  N   UNL     1      -9.737 -10.430  20.076  0.00  0.00    -0.283 N 
ATOM     10  C   UNL     1      -6.415 -11.277  17.099  0.00  0.00    +0.077 C 
ATOM     11  C   UNL     1      -7.729 -12.050  17.292  0.00  0.00    +0.054 C 
ATOM     12  C   UNL     1      -8.864 -11.226  17.913  0.00  0.00    +0.164 C 
ATOM     13  C   UNL     1      -6.637  -9.772  16.899  0.00  0.00    +0.041 C 
ATOM     14  C   UNL     1      -8.021  -9.478  16.335  0.00  0.00    +0.111 C 
ATOM     21  C   UNL     1      -8.640 -10.889  19.377  0.00  0.00    +0.238 C 
ATOM     22  C   UNL     1     -10.288  -9.270  17.281  0.00  0.00    +0.249 C 
ATOM     23  C   UNL     1     -11.312  -9.688  18.276  0.00  0.00    +0.059 A 
ATOM     24  C   UNL     1     -11.020 -10.116  19.581  0.00  0.00    +0.046 A 
ATOM     26  C   UNL     1     -12.652  -9.454  17.911  0.00  0.00    +0.026 A 
ATOM     27  C   UNL     1     -12.070 -10.231  20.509  0.00  0.00    +0.025 A 
ATOM     28  C   UNL     1     -13.684  -9.620  18.832  0.00  0.00    +0.018 A 
ATOM     30  C   UNL     1     -13.393  -9.994  20.136  0.00  0.00    +0.013 A 
ATOM     36  H   UNL     1      -9.634 -10.416  21.088  0.00  0.00    +0.155 HD
ENDROOT
BRANCH  28  31
ATOM      5  O   UNL     1     -15.971 -10.188  19.013  0.00  0.00    -0.463 OA
ATOM     31  C   UNL     1     -15.050  -9.375  18.438  0.00  0.00    +0.135 A 
ATOM     32  C   UNL     1     -15.646  -8.481  17.588  0.00  0.00    +0.050 A 
ATOM     33  C   UNL     1     -17.033  -8.760  17.641  0.00  0.00    +0.042 A 
ATOM     34  C   UNL     1     -17.179  -9.806  18.521  0.00  0.00    +0.196 A 
ENDBRANCH  28  31
BRANCH  10   7
ATOM      1  O   UNL     1      -3.546 -11.141  16.657  0.00  0.00    -0.276 OA
ATOM      7  N   UNL     1      -5.666 -11.843  15.997  0.00  0.00    -0.312 N 
ATOM     18  C   UNL     1      -4.291 -11.724  15.873  0.00  0.00    +0.216 C 
ATOM     35  H   UNL     1      -6.179 -12.397  15.317  0.00  0.00    +0.149 HD
BRANCH  18  15
ATOM      4  O   UNL     1       0.165 -15.171  13.394  0.00  0.00    -0.276 OA
ATOM      8  N   UNL     1      -2.033 -14.423  13.493  0.00  0.00    -0.302 N 
ATOM     15  C   UNL     1      -3.767 -12.423  14.657  0.00  0.00    +0.078 C 
ATOM     16  C   UNL     1      -2.253 -12.216  14.564  0.00  0.00    +0.032 C 
ATOM     17  C   UNL     1      -4.110 -13.914  14.717  0.00  0.00    +0.032 C 
ATOM     19  C   UNL     1      -1.659 -13.011  13.405  0.00  0.00    +0.108 C 
ATOM     20  C   UNL     1      -3.478 -14.674  13.553  0.00  0.00    +0.108 C 
ATOM     25  C   UNL     1      -1.043 -15.406  13.479  0.00  0.00    +0.212 C 
ATOM     29  C   UNL     1      -1.510 -16.836  13.577  0.00  0.00    +0.109 C 
ENDBRANCH  18  15
ENDBRANCH  10   7
TORSDOF 3
ENDMDL
MODEL 9
REMARK VINA RESULT:      -7.0     20.588     24.367
REMARK  Name = 7050376
REMARK  4 active torsions:
REMARK  status: ('A' for Active; 'I' for Inactive)
REMARK    1  A    between atoms: N_7  and  C_10
REMARK    2  A    between atoms: C_15  and  C_18
REMARK    3  A    between atoms: C_25  and  C_29
REMARK    4  A    between atoms: C_28  and  C_31
REMARK                            x       y       z     vdW  Elec       q    Type
REMARK                         _______ _______ _______ _____ _____    ______ ____
ROOT
ATOM      2  O   UNL     1      -8.721 -11.843  38.416  0.00  0.00    -0.273 OA
ATOM      3  O   UNL     1     -13.887 -11.026  37.520  0.00  0.00    -0.270 OA
ATOM      6  N   UNL     1     -11.680 -10.450  37.915  0.00  0.00    -0.286 N 
ATOM      9  N   UNL     1     -10.121 -12.734  36.861  0.00  0.00    -0.283 N 
ATOM     10  C   UNL     1      -9.590  -9.131  39.573  0.00  0.00    +0.077 C 
ATOM     11  C   UNL     1      -9.546  -9.172  38.037  0.00  0.00    +0.054 C 
ATOM     12  C   UNL     1     -10.318 -10.340  37.410  0.00  0.00    +0.164 C 
ATOM     13  C   UNL     1     -10.863  -9.768  40.145  0.00  0.00    +0.041 C 
ATOM     14  C   UNL     1     -12.012  -9.726  39.146  0.00  0.00    +0.111 C 
ATOM     21  C   UNL     1      -9.666 -11.692  37.642  0.00  0.00    +0.238 C 
ATOM     22  C   UNL     1     -12.695 -11.087  37.208  0.00  0.00    +0.249 C 
ATOM     23  C   UNL     1     -12.338 -11.919  36.028  0.00  0.00    +0.059 A 
ATOM     24  C   UNL     1     -11.201 -12.739  35.952  0.00  0.00    +0.046 A 
ATOM     26  C   UNL     1     -13.318 -12.005  35.020  0.00  0.00    +0.026 A 
ATOM     27  C   UNL     1     -11.105 -13.674  34.906  0.00  0.00    +0.025 A 
ATOM     28  C   UNL     1     -13.182 -12.905  33.964  0.00  0.00    +0.018 A 
ATOM     30  C   UNL     1     -12.082 -13.750  33.914  0.00  0.00    +0.013 A 
ATOM     36  H   UNL     1      -9.540 -13.569  36.867  0.00  0.00    +0.155 HD
ENDROOT
BRANCH  28  31
ATOM      5  O   UNL     1     -14.001 -13.936  32.002  0.00  0.00    -0.463 OA
ATOM     31  C   UNL     1     -14.196 -12.976  32.940  0.00  0.00    +0.135 A 
ATOM     32  C   UNL     1     -15.346 -12.272  32.693  0.00  0.00    +0.050 A 
ATOM     33  C   UNL     1     -15.901 -12.836  31.520  0.00  0.00    +0.042 A 
ATOM     34  C   UNL     1     -15.047 -13.843  31.139  0.00  0.00    +0.196 A 
ENDBRANCH  28  31
BRANCH  10   7
ATOM      1  O   UNL     1      -7.154  -7.841  40.492  0.00  0.00    -0.276 OA
ATOM      7  N   UNL     1      -9.436  -7.769  40.036  0.00  0.00    -0.312 N 
ATOM     18  C   UNL     1      -8.226  -7.242  40.456  0.00  0.00    +0.216 C 
ATOM     35  H   UNL     1     -10.252  -7.165  39.995  0.00  0.00    +0.149 HD
BRANCH  18  15
ATOM      4  O   UNL     1     -10.731  -1.733  39.339  0.00  0.00    -0.276 OA
ATOM      8  N   UNL     1      -9.795  -3.306  40.769  0.00  0.00    -0.302 N 
ATOM     15  C   UNL     1      -8.341  -5.804  40.859  0.00  0.00    +0.078 C 
ATOM     16  C   UNL     1      -8.347  -4.924  39.606  0.00  0.00    +0.032 C 
ATOM     17  C   UNL     1      -9.613  -5.588  41.682  0.00  0.00    +0.032 C 
ATOM     19  C   UNL     1      -8.582  -3.459  39.964  0.00  0.00    +0.108 C 
ATOM     20  C   UNL     1      -9.823  -4.108  41.998  0.00  0.00    +0.108 C 
ATOM     25  C   UNL     1     -10.793  -2.420  40.360  0.00  0.00    +0.212 C 
ATOM     29  C   UNL     1     -12.011  -2.323  41.242  0.00  0.00    +0.109 C 
ENDBRANCH  18  15
ENDBRANCH  10   7
TORSDOF 3
ENDMDL
MODEL 10
REMARK VINA RESULT:      -6.9     11.902     16.289
REMARK  Name = 7050376
REMARK  4 active torsions:
REMARK  status: ('A' for Active; 'I' for Inactive)
REMARK    1  A    between atoms: N_7  and  C_10
REMARK    2  A    between atoms: C_15  and  C_18
REMARK    3  A    between atoms: C_25  and  C_29
REMARK    4  A    between atoms: C_28  and  C_31
REMARK                            x       y       z     vdW  Elec       q    Type
REMARK                         _______ _______ _______ _____ _____    ______ ____
ROOT
ATOM      2  O   UNL     1      -4.771 -12.320   2.633  0.00  0.00    -0.273 OA
ATOM      3  O   UNL     1      -3.664 -14.673   7.259  0.00  0.00    -0.270 OA
ATOM      6  N   UNL     1      -3.253 -13.887   5.121  0.00  0.00    -0.286 N 
ATOM      9  N   UNL     1      -5.169 -11.659   4.773  0.00  0.00    -0.283 N 
ATOM     10  C   UNL     1      -2.482 -14.341   2.284  0.00  0.00    +0.077 C 
ATOM     11  C   UNL     1      -2.089 -13.081   3.072  0.00  0.00    +0.054 C 
ATOM     12  C   UNL     1      -3.024 -12.748   4.242  0.00  0.00    +0.164 C 
ATOM     13  C   UNL     1      -3.236 -15.364   3.141  0.00  0.00    +0.041 C 
ATOM     14  C   UNL     1      -2.900 -15.218   4.620  0.00  0.00    +0.111 C 
ATOM     21  C   UNL     1      -4.396 -12.263   3.805  0.00  0.00    +0.238 C 
ATOM     22  C   UNL     1      -3.651 -13.745   6.447  0.00  0.00    +0.249 C 
ATOM     23  C   UNL     1      -4.123 -12.415   6.919  0.00  0.00    +0.059 A 
ATOM     24  C   UNL     1      -4.904 -11.534   6.153  0.00  0.00    +0.046 A 
ATOM     26  C   UNL     1      -3.909 -12.138   8.283  0.00  0.00    +0.026 A 
ATOM     27  C   UNL     1      -5.509 -10.435   6.788  0.00  0.00    +0.025 A 
ATOM     28  C   UNL     1      -4.477 -11.016   8.884  0.00  0.00    +0.018 A 
ATOM     30  C   UNL     1      -5.290 -10.172   8.140  0.00  0.00    +0.013 A 
ATOM     36  H   UNL     1      -5.981 -11.151   4.428  0.00  0.00    +0.155 HD
ENDROOT
BRANCH  28  31
ATOM      5  O   UNL     1      -5.360 -10.524  11.019  0.00  0.00    -0.463 OA
ATOM     31  C   UNL     1      -4.245 -10.749  10.282  0.00  0.00    +0.135 A 
ATOM     32  C   UNL     1      -3.117 -10.668  11.057  0.00  0.00    +0.050 A 
ATOM     33  C   UNL     1      -3.568 -10.372  12.367  0.00  0.00    +0.042 A 
ATOM     34  C   UNL     1      -4.938 -10.294  12.291  0.00  0.00    +0.196 A 
ENDBRANCH  28  31
BRANCH  10   7
ATOM      1  O   UNL     1      -1.077 -13.447  -0.098  0.00  0.00    -0.276 OA
ATOM      7  N   UNL     1      -1.307 -14.932   1.681  0.00  0.00    -0.312 N 
ATOM     18  C   UNL     1      -0.705 -14.430   0.538  0.00  0.00    +0.216 C 
ATOM     35  H   UNL     1      -0.881 -15.721   2.159  0.00  0.00    +0.149 HD
BRANCH  18  15
ATOM      4  O   UNL     1       5.427 -14.589   0.044  0.00  0.00    -0.276 OA
ATOM      8  N   UNL     1       3.365 -15.625   0.310  0.00  0.00    -0.302 N 
ATOM     15  C   UNL     1       0.507 -15.214   0.142  0.00  0.00    +0.078 C 
ATOM     16  C   UNL     1       1.495 -14.293  -0.581  0.00  0.00    +0.032 C 
ATOM     17  C   UNL     1       1.155 -15.842   1.378  0.00  0.00    +0.032 C 
ATOM     19  C   UNL     1       2.797 -15.023  -0.897  0.00  0.00    +0.108 C 
ATOM     20  C   UNL     1       2.466 -16.541   1.022  0.00  0.00    +0.108 C 
ATOM     25  C   UNL     1       4.680 -15.337   0.678  0.00  0.00    +0.212 C 
ATOM     29  C   UNL     1       5.189 -15.995   1.935  0.00  0.00    +0.109 C 
ENDBRANCH  18  15
ENDBRANCH  10   7
TORSDOF 3
ENDMDL
