MODEL 1
REMARK VINA RESULT:      -7.3      0.000      0.000
REMARK  Name = 45784203
REMARK  4 active torsions:
REMARK  status: ('A' for Active; 'I' for Inactive)
REMARK    1  A    between atoms: N_3  and  C_6
REMARK    2  A    between atoms: C_7  and  C_15
REMARK    3  A    between atoms: C_16  and  C_19
REMARK    4  A    between atoms: C_22  and  C_24
REMARK                            x       y       z     vdW  Elec       q    Type
REMARK                         _______ _______ _______ _____ _____    ______ ____
ROOT
ATOM      3  N   UNL     1      12.103   8.820  19.879  0.00  0.00    -0.299 NA
ATOM      7  C   UNL     1      13.954   7.578  19.155  0.00  0.00    +0.090 C 
ATOM      8  C   UNL     1      13.547   8.958  19.684  0.00  0.00    +0.097 C 
ATOM      9  C   UNL     1      11.929   7.504  20.495  0.00  0.00    +0.085 C 
ATOM     10  C   UNL     1      12.867   6.623  19.680  0.00  0.00    +0.029 C 
ENDROOT
BRANCH   7  15
ATOM      1  O   UNL     1      15.990   8.016  20.421  0.00  0.00    -0.439 OA
ATOM      5  N   UNL     1      16.079   6.175  19.104  0.00  0.00    -0.213 NA
ATOM     15  C   UNL     1      15.369   7.196  19.529  0.00  0.00    +0.201 A 
ATOM     17  C   UNL     1      17.273   6.322  19.767  0.00  0.00    +0.110 A 
ATOM     18  C   UNL     1      17.223   7.448  20.574  0.00  0.00    +0.155 A 
ATOM     20  C   UNL     1      18.447   5.556  19.745  0.00  0.00    +0.035 A 
ATOM     21  C   UNL     1      18.262   7.891  21.382  0.00  0.00    +0.049 A 
ATOM     22  C   UNL     1      19.519   5.970  20.548  0.00  0.00    -0.048 A 
ATOM     23  C   UNL     1      19.427   7.115  21.349  0.00  0.00    +0.007 A 
ATOM     24  C   UNL     1      20.783   5.175  20.547  0.00  0.00    +0.044 C 
ENDBRANCH   7  15
BRANCH   3   6
ATOM      2  O   UNL     1      13.097  13.590  23.630  0.00  0.00    -0.276 OA
ATOM      4  N   UNL     1      11.812  11.824  22.839  0.00  0.00    -0.302 N 
ATOM      6  C   UNL     1      11.544   9.895  20.697  0.00  0.00    +0.060 C 
ATOM     11  C   UNL     1      11.505   9.469  22.171  0.00  0.00    +0.038 C 
ATOM     12  C   UNL     1      12.377  11.172  20.529  0.00  0.00    +0.038 C 
ATOM     13  C   UNL     1      11.012  10.612  23.058  0.00  0.00    +0.109 C 
ATOM     14  C   UNL     1      11.866  12.280  21.448  0.00  0.00    +0.109 C 
ATOM     16  C   UNL     1      12.460  12.554  23.835  0.00  0.00    +0.212 C 
ATOM     19  C   UNL     1      12.360  12.017  25.240  0.00  0.00    +0.109 C 
ENDBRANCH   3   6
TORSDOF 2
ENDMDL
MODEL 2
REMARK VINA RESULT:      -7.1     27.790     30.931
REMARK  Name = 45784203
REMARK  4 active torsions:
REMARK  status: ('A' for Active; 'I' for Inactive)
REMARK    1  A    between atoms: N_3  and  C_6
REMARK    2  A    between atoms: C_7  and  C_15
REMARK    3  A    between atoms: C_16  and  C_19
REMARK    4  A    between atoms: C_22  and  C_24
REMARK                            x       y       z     vdW  Elec       q    Type
REMARK                         _______ _______ _______ _____ _____    ______ ____
ROOT
ATOM      3  N   UNL     1     -17.448   2.965  26.007  0.00  0.00    -0.299 NA
ATOM      7  C   UNL     1     -16.990   4.152  24.038  0.00  0.00    +0.090 C 
ATOM      8  C   UNL     1     -16.895   4.247  25.566  0.00  0.00    +0.097 C 
ATOM      9  C   UNL     1     -16.866   1.973  25.102  0.00  0.00    +0.085 C 
ATOM     10  C   UNL     1     -16.989   2.642  23.740  0.00  0.00    +0.029 C 
ENDROOT
BRANCH   7  15
ATOM      1  O   UNL     1     -16.025   6.295  23.392  0.00  0.00    -0.439 OA
ATOM      5  N   UNL     1     -14.875   4.485  22.659  0.00  0.00    -0.213 NA
ATOM     15  C   UNL     1     -15.911   4.940  23.330  0.00  0.00    +0.201 A 
ATOM     17  C   UNL     1     -14.243   5.630  22.240  0.00  0.00    +0.110 A 
ATOM     18  C   UNL     1     -14.944   6.741  22.686  0.00  0.00    +0.155 A 
ATOM     20  C   UNL     1     -13.080   5.824  21.482  0.00  0.00    +0.035 A 
ATOM     21  C   UNL     1     -14.582   8.059  22.439  0.00  0.00    +0.049 A 
ATOM     22  C   UNL     1     -12.680   7.141  21.212  0.00  0.00    -0.048 A 
ATOM     23  C   UNL     1     -13.418   8.235  21.682  0.00  0.00    +0.007 A 
ATOM     24  C   UNL     1     -11.445   7.380  20.407  0.00  0.00    +0.044 C 
ENDBRANCH   7  15
BRANCH   3   6
ATOM      2  O   UNL     1     -13.233   2.458  30.456  0.00  0.00    -0.276 OA
ATOM      4  N   UNL     1     -15.271   1.923  29.477  0.00  0.00    -0.302 N 
ATOM      6  C   UNL     1     -17.150   2.682  27.409  0.00  0.00    +0.060 C 
ATOM     11  C   UNL     1     -16.665   1.234  27.562  0.00  0.00    +0.038 C 
ATOM     12  C   UNL     1     -16.090   3.660  27.931  0.00  0.00    +0.038 C 
ATOM     13  C   UNL     1     -16.258   0.942  29.006  0.00  0.00    +0.109 C 
ATOM     14  C   UNL     1     -15.696   3.321  29.367  0.00  0.00    +0.109 C 
ATOM     16  C   UNL     1     -14.030   1.616  30.034  0.00  0.00    +0.212 C 
ATOM     19  C   UNL     1     -13.666   0.156  30.110  0.00  0.00    +0.109 C 
ENDBRANCH   3   6
TORSDOF 2
ENDMDL
MODEL 3
REMARK VINA RESULT:      -6.9     26.916     29.669
REMARK  Name = 45784203
REMARK  4 active torsions:
REMARK  status: ('A' for Active; 'I' for Inactive)
REMARK    1  A    between atoms: N_3  and  C_6
REMARK    2  A    between atoms: C_7  and  C_15
REMARK    3  A    between atoms: C_16  and  C_19
REMARK    4  A    between atoms: C_22  and  C_24
REMARK                            x       y       z     vdW  Elec       q    Type
REMARK                         _______ _______ _______ _____ _____    ______ ____
ROOT
ATOM      3  N   UNL     1      -4.031 -10.865  15.968  0.00  0.00    -0.299 NA
ATOM      7  C   UNL     1      -5.662 -10.083  17.460  0.00  0.00    +0.090 C 
ATOM      8  C   UNL     1      -5.200  -9.985  16.000  0.00  0.00    +0.097 C 
ATOM      9  C   UNL     1      -4.426 -12.046  16.738  0.00  0.00    +0.085 C 
ATOM     10  C   UNL     1      -5.129 -11.442  17.947  0.00  0.00    +0.029 C 
ENDROOT
BRANCH   7  15
ATOM      1  O   UNL     1      -7.693  -8.836  16.951  0.00  0.00    -0.439 OA
ATOM      5  N   UNL     1      -7.997 -10.610  18.327  0.00  0.00    -0.213 NA
ATOM     15  C   UNL     1      -7.152  -9.891  17.622  0.00  0.00    +0.201 A 
ATOM     17  C   UNL     1      -9.201  -9.987  18.110  0.00  0.00    +0.110 A 
ATOM     18  C   UNL     1      -9.020  -8.899  17.268  0.00  0.00    +0.155 A 
ATOM     20  C   UNL     1     -10.491 -10.269  18.582  0.00  0.00    +0.035 A 
ATOM     21  C   UNL     1     -10.031  -8.047  16.844  0.00  0.00    +0.049 A 
ATOM     22  C   UNL     1     -11.540  -9.432  18.176  0.00  0.00    -0.048 A 
ATOM     23  C   UNL     1     -11.313  -8.343  17.324  0.00  0.00    +0.007 A 
ATOM     24  C   UNL     1     -12.925  -9.707  18.661  0.00  0.00    +0.044 C 
ENDBRANCH   7  15
BRANCH   3   6
ATOM      2  O   UNL     1      -1.455  -9.051  10.688  0.00  0.00    -0.276 OA
ATOM      4  N   UNL     1      -2.901 -10.384  11.924  0.00  0.00    -0.302 N 
ATOM      6  C   UNL     1      -3.622 -11.201  14.606  0.00  0.00    +0.060 C 
ATOM     11  C   UNL     1      -4.677 -10.712  13.604  0.00  0.00    +0.038 C 
ATOM     12  C   UNL     1      -2.257 -10.574  14.296  0.00  0.00    +0.038 C 
ATOM     13  C   UNL     1      -4.227 -10.969  12.166  0.00  0.00    +0.109 C 
ATOM     14  C   UNL     1      -1.855 -10.834  12.845  0.00  0.00    +0.109 C 
ATOM     16  C   UNL     1      -2.585  -9.501  10.892  0.00  0.00    +0.212 C 
ATOM     19  C   UNL     1      -3.717  -9.084   9.989  0.00  0.00    +0.109 C 
ENDBRANCH   3   6
TORSDOF 2
ENDMDL
MODEL 4
REMARK VINA RESULT:      -6.9      2.764      4.797
REMARK  Name = 45784203
REMARK  4 active torsions:
REMARK  status: ('A' for Active; 'I' for Inactive)
REMARK    1  A    between atoms: N_3  and  C_6
REMARK    2  A    between atoms: C_7  and  C_15
REMARK    3  A    between atoms: C_16  and  C_19
REMARK    4  A    between atoms: C_22  and  C_24
REMARK                            x       y       z     vdW  Elec       q    Type
REMARK                         _______ _______ _______ _____ _____    ______ ____
ROOT
ATOM      3  N   UNL     1      16.630   7.267  20.337  0.00  0.00    -0.299 NA
ATOM      7  C   UNL     1      18.838   6.530  20.058  0.00  0.00    +0.090 C 
ATOM      8  C   UNL     1      17.882   7.146  21.087  0.00  0.00    +0.097 C 
ATOM      9  C   UNL     1      16.510   6.011  19.597  0.00  0.00    +0.085 C 
ATOM     10  C   UNL     1      17.921   5.795  19.064  0.00  0.00    +0.029 C 
ENDROOT
BRANCH   7  15
ATOM      1  O   UNL     1      20.445   6.140  21.849  0.00  0.00    -0.439 OA
ATOM      5  N   UNL     1      20.390   4.521  20.264  0.00  0.00    -0.213 NA
ATOM     15  C   UNL     1      19.908   5.668  20.689  0.00  0.00    +0.201 A 
ATOM     17  C   UNL     1      21.325   4.198  21.217  0.00  0.00    +0.110 A 
ATOM     18  C   UNL     1      21.362   5.186  22.189  0.00  0.00    +0.155 A 
ATOM     20  C   UNL     1      22.183   3.096  21.339  0.00  0.00    +0.035 A 
ATOM     21  C   UNL     1      22.197   5.176  23.299  0.00  0.00    +0.049 A 
ATOM     22  C   UNL     1      23.042   3.049  22.446  0.00  0.00    -0.048 A 
ATOM     23  C   UNL     1      23.047   4.069  23.406  0.00  0.00    +0.007 A 
ATOM     24  C   UNL     1      23.968   1.888  22.605  0.00  0.00    +0.044 C 
ENDBRANCH   7  15
BRANCH   3   6
ATOM      2  O   UNL     1      10.655   8.631  20.837  0.00  0.00    -0.276 OA
ATOM      4  N   UNL     1      12.839   8.622  21.626  0.00  0.00    -0.302 N 
ATOM      6  C   UNL     1      15.481   7.513  21.205  0.00  0.00    +0.060 C 
ATOM     11  C   UNL     1      15.260   9.023  21.371  0.00  0.00    +0.038 C 
ATOM     12  C   UNL     1      14.227   6.849  20.621  0.00  0.00    +0.038 C 
ATOM     13  C   UNL     1      14.007   9.305  22.199  0.00  0.00    +0.109 C 
ATOM     14  C   UNL     1      12.995   7.174  21.464  0.00  0.00    +0.109 C 
ATOM     16  C   UNL     1      11.634   9.233  21.283  0.00  0.00    +0.212 C 
ATOM     19  C   UNL     1      11.554  10.726  21.477  0.00  0.00    +0.109 C 
ENDBRANCH   3   6
TORSDOF 2
ENDMDL
MODEL 5
REMARK VINA RESULT:      -6.7      1.658      2.120
REMARK  Name = 45784203
REMARK  4 active torsions:
REMARK  status: ('A' for Active; 'I' for Inactive)
REMARK    1  A    between atoms: N_3  and  C_6
REMARK    2  A    between atoms: C_7  and  C_15
REMARK    3  A    between atoms: C_16  and  C_19
REMARK    4  A    between atoms: C_22  and  C_24
REMARK                            x       y       z     vdW  Elec       q    Type
REMARK                         _______ _______ _______ _____ _____    ______ ____
ROOT
ATOM      3  N   UNL     1      14.287   9.085  20.445  0.00  0.00    -0.299 NA
ATOM      7  C   UNL     1      15.843   7.448  19.817  0.00  0.00    +0.090 C 
ATOM      8  C   UNL     1      15.721   8.930  20.193  0.00  0.00    +0.097 C 
ATOM      9  C   UNL     1      13.908   7.899  21.214  0.00  0.00    +0.085 C 
ATOM     10  C   UNL     1      14.629   6.775  20.481  0.00  0.00    +0.029 C 
ENDROOT
BRANCH   7  15
ATOM      1  O   UNL     1      17.695   7.249  21.388  0.00  0.00    -0.439 OA
ATOM      5  N   UNL     1      17.917   6.003  19.509  0.00  0.00    -0.213 NA
ATOM     15  C   UNL     1      17.182   6.853  20.191  0.00  0.00    +0.201 A 
ATOM     17  C   UNL     1      19.011   5.812  20.317  0.00  0.00    +0.110 A 
ATOM     18  C   UNL     1      18.880   6.574  21.469  0.00  0.00    +0.155 A 
ATOM     20  C   UNL     1      20.156   5.019  20.156  0.00  0.00    +0.035 A 
ATOM     21  C   UNL     1      19.809   6.618  22.500  0.00  0.00    +0.049 A 
ATOM     22  C   UNL     1      21.118   5.036  21.177  0.00  0.00    -0.048 A 
ATOM     23  C   UNL     1      20.946   5.820  22.325  0.00  0.00    +0.007 A 
ATOM     24  C   UNL     1      22.349   4.202  21.036  0.00  0.00    +0.044 C 
ENDBRANCH   7  15
BRANCH   3   6
ATOM      2  O   UNL     1      12.941  11.894  25.747  0.00  0.00    -0.276 OA
ATOM      4  N   UNL     1      12.857  11.711  23.433  0.00  0.00    -0.302 N 
ATOM      6  C   UNL     1      13.974  10.327  21.148  0.00  0.00    +0.060 C 
ATOM     11  C   UNL     1      12.458  10.450  21.350  0.00  0.00    +0.038 C 
ATOM     12  C   UNL     1      14.700  10.365  22.499  0.00  0.00    +0.038 C 
ATOM     13  C   UNL     1      12.114  11.697  22.166  0.00  0.00    +0.109 C 
ATOM     14  C   UNL     1      14.312  11.612  23.291  0.00  0.00    +0.109 C 
ATOM     16  C   UNL     1      12.291  11.848  24.700  0.00  0.00    +0.212 C 
ATOM     19  C   UNL     1      10.788  11.940  24.761  0.00  0.00    +0.109 C 
ENDBRANCH   3   6
TORSDOF 2
ENDMDL
MODEL 6
REMARK VINA RESULT:      -6.7     27.081     30.763
REMARK  Name = 45784203
REMARK  4 active torsions:
REMARK  status: ('A' for Active; 'I' for Inactive)
REMARK    1  A    between atoms: N_3  and  C_6
REMARK    2  A    between atoms: C_7  and  C_15
REMARK    3  A    between atoms: C_16  and  C_19
REMARK    4  A    between atoms: C_22  and  C_24
REMARK                            x       y       z     vdW  Elec       q    Type
REMARK                         _______ _______ _______ _____ _____    ______ ____
ROOT
ATOM      3  N   UNL     1     -13.961   8.796  32.625  0.00  0.00    -0.299 NA
ATOM      7  C   UNL     1     -14.805   6.658  33.087  0.00  0.00    +0.090 C 
ATOM      8  C   UNL     1     -14.698   7.710  31.976  0.00  0.00    +0.097 C 
ATOM      9  C   UNL     1     -12.896   8.132  33.378  0.00  0.00    +0.085 C 
ATOM     10  C   UNL     1     -13.619   6.956  34.022  0.00  0.00    +0.029 C 
ENDROOT
BRANCH   7  15
ATOM      1  O   UNL     1     -14.916   5.118  31.202  0.00  0.00    -0.439 OA
ATOM      5  N   UNL     1     -14.848   4.116  33.233  0.00  0.00    -0.213 NA
ATOM     15  C   UNL     1     -14.855   5.243  32.556  0.00  0.00    +0.201 A 
ATOM     17  C   UNL     1     -14.908   3.158  32.252  0.00  0.00    +0.110 A 
ATOM     18  C   UNL     1     -14.951   3.766  31.006  0.00  0.00    +0.155 A 
ATOM     20  C   UNL     1     -14.933   1.758  32.322  0.00  0.00    +0.035 A 
ATOM     21  C   UNL     1     -15.016   3.090  29.795  0.00  0.00    +0.049 A 
ATOM     22  C   UNL     1     -14.998   1.038  31.120  0.00  0.00    -0.048 A 
ATOM     23  C   UNL     1     -15.039   1.693  29.882  0.00  0.00    +0.007 A 
ATOM     24  C   UNL     1     -15.025  -0.455  31.162  0.00  0.00    +0.044 C 
ENDBRANCH   7  15
BRANCH   3   6
ATOM      2  O   UNL     1     -13.030  10.366  26.753  0.00  0.00    -0.276 OA
ATOM      4  N   UNL     1     -12.490  10.422  29.012  0.00  0.00    -0.302 N 
ATOM      6  C   UNL     1     -13.440   9.769  31.667  0.00  0.00    +0.060 C 
ATOM     11  C   UNL     1     -12.049   9.339  31.184  0.00  0.00    +0.038 C 
ATOM     12  C   UNL     1     -14.402   9.906  30.480  0.00  0.00    +0.038 C 
ATOM     13  C   UNL     1     -11.524  10.292  30.110  0.00  0.00    +0.109 C 
ATOM     14  C   UNL     1     -13.831  10.847  29.421  0.00  0.00    +0.109 C 
ATOM     16  C   UNL     1     -12.210  10.215  27.661  0.00  0.00    +0.212 C 
ATOM     19  C   UNL     1     -10.808   9.776  27.322  0.00  0.00    +0.109 C 
ENDBRANCH   3   6
TORSDOF 2
ENDMDL
MODEL 7
REMARK VINA RESULT:      -6.6     26.771     28.913
REMARK  Name = 45784203
REMARK  4 active torsions:
REMARK  status: ('A' for Active; 'I' for Inactive)
REMARK    1  A    between atoms: N_3  and  C_6
REMARK    2  A    between atoms: C_7  and  C_15
REMARK    3  A    between atoms: C_16  and  C_19
REMARK    4  A    between atoms: C_22  and  C_24
REMARK                            x       y       z     vdW  Elec       q    Type
REMARK                         _______ _______ _______ _____ _____    ______ ____
ROOT
ATOM      3  N   UNL     1      -3.383 -11.490  16.410  0.00  0.00    -0.299 NA
ATOM      7  C   UNL     1      -2.950 -11.970  14.157  0.00  0.00    +0.090 C 
ATOM      8  C   UNL     1      -4.092 -11.792  15.166  0.00  0.00    +0.097 C 
ATOM      9  C   UNL     1      -2.331 -10.548  16.026  0.00  0.00    +0.085 C 
ATOM     10  C   UNL     1      -1.782 -11.158  14.743  0.00  0.00    +0.029 C 
ENDROOT
BRANCH   7  15
ATOM      1  O   UNL     1      -3.242 -10.267  12.439  0.00  0.00    -0.439 OA
ATOM      5  N   UNL     1      -3.772 -12.369  11.780  0.00  0.00    -0.213 NA
ATOM     15  C   UNL     1      -3.343 -11.589  12.748  0.00  0.00    +0.201 A 
ATOM     17  C   UNL     1      -3.973 -11.498  10.737  0.00  0.00    +0.110 A 
ATOM     18  C   UNL     1      -3.650 -10.209  11.136  0.00  0.00    +0.155 A 
ATOM     20  C   UNL     1      -4.424 -11.708   9.427  0.00  0.00    +0.035 A 
ATOM     21  C   UNL     1      -3.739  -9.083  10.327  0.00  0.00    +0.049 A 
ATOM     22  C   UNL     1      -4.527 -10.596   8.579  0.00  0.00    -0.048 A 
ATOM     23  C   UNL     1      -4.191  -9.310   9.022  0.00  0.00    +0.007 A 
ATOM     24  C   UNL     1      -5.004 -10.787   7.176  0.00  0.00    +0.044 C 
ENDBRANCH   7  15
BRANCH   3   6
ATOM      2  O   UNL     1      -8.166 -12.351  20.177  0.00  0.00    -0.276 OA
ATOM      4  N   UNL     1      -6.771 -11.011  18.892  0.00  0.00    -0.302 N 
ATOM      6  C   UNL     1      -4.268 -10.946  17.439  0.00  0.00    +0.060 C 
ATOM     11  C   UNL     1      -5.578 -10.462  16.804  0.00  0.00    +0.038 C 
ATOM     12  C   UNL     1      -4.550 -12.011  18.507  0.00  0.00    +0.038 C 
ATOM     13  C   UNL     1      -6.557  -9.976  17.872  0.00  0.00    +0.109 C 
ATOM     14  C   UNL     1      -5.549 -11.494  19.541  0.00  0.00    +0.109 C 
ATOM     16  C   UNL     1      -8.011 -11.508  19.292  0.00  0.00    +0.212 C 
ATOM     19  C   UNL     1      -9.219 -10.962  18.574  0.00  0.00    +0.109 C 
ENDBRANCH   3   6
TORSDOF 2
ENDMDL
MODEL 8
REMARK VINA RESULT:      -6.6      1.980      3.509
REMARK  Name = 45784203
REMARK  4 active torsions:
REMARK  status: ('A' for Active; 'I' for Inactive)
REMARK    1  A    between atoms: N_3  and  C_6
REMARK    2  A    between atoms: C_7  and  C_15
REMARK    3  A    between atoms: C_16  and  C_19
REMARK    4  A    between atoms: C_22  and  C_24
REMARK                            x       y       z     vdW  Elec       q    Type
REMARK                         _______ _______ _______ _____ _____    ______ ____
ROOT
ATOM      3  N   UNL     1      10.918  11.578  22.320  0.00  0.00    -0.299 NA
ATOM      7  C   UNL     1      11.685   9.665  21.203  0.00  0.00    +0.090 C 
ATOM      8  C   UNL     1      11.925  11.174  21.338  0.00  0.00    +0.097 C 
ATOM      9  C   UNL     1      10.956  10.538  23.349  0.00  0.00    +0.085 C 
ATOM     10  C   UNL     1      11.025   9.255  22.531  0.00  0.00    +0.029 C 
ENDROOT
BRANCH   7  15
ATOM      1  O   UNL     1      14.009   9.101  21.670  0.00  0.00    -0.439 OA
ATOM      5  N   UNL     1      13.133   8.057  19.860  0.00  0.00    -0.213 NA
ATOM     15  C   UNL     1      12.939   8.897  20.853  0.00  0.00    +0.201 A 
ATOM     17  C   UNL     1      14.438   7.665  20.027  0.00  0.00    +0.110 A 
ATOM     18  C   UNL     1      14.979   8.302  21.135  0.00  0.00    +0.155 A 
ATOM     20  C   UNL     1      15.243   6.782  19.294  0.00  0.00    +0.035 A 
ATOM     21  C   UNL     1      16.281   8.134  21.589  0.00  0.00    +0.049 A 
ATOM     22  C   UNL     1      16.564   6.585  19.722  0.00  0.00    -0.048 A 
ATOM     23  C   UNL     1      17.071   7.248  20.846  0.00  0.00    +0.007 A 
ATOM     24  C   UNL     1      17.447   5.649  18.962  0.00  0.00    +0.044 C 
ENDBRANCH   7  15
BRANCH   3   6
ATOM      2  O   UNL     1      13.459  15.018  26.738  0.00  0.00    -0.276 OA
ATOM      4  N   UNL     1      11.867  14.624  25.093  0.00  0.00    -0.302 N 
ATOM      6  C   UNL     1      11.172  12.909  22.866  0.00  0.00    +0.060 C 
ATOM     11  C   UNL     1      10.168  13.221  23.984  0.00  0.00    +0.038 C 
ATOM     12  C   UNL     1      12.609  12.996  23.396  0.00  0.00    +0.038 C 
ATOM     13  C   UNL     1      10.473  14.570  24.634  0.00  0.00    +0.109 C 
ATOM     14  C   UNL     1      12.865  14.349  24.056  0.00  0.00    +0.109 C 
ATOM     16  C   UNL     1      12.279  14.945  26.386  0.00  0.00    +0.212 C 
ATOM     19  C   UNL     1      11.192  15.210  27.395  0.00  0.00    +0.109 C 
ENDBRANCH   3   6
TORSDOF 2
ENDMDL
MODEL 9
REMARK VINA RESULT:      -6.6     27.648     29.146
REMARK  Name = 45784203
REMARK  4 active torsions:
REMARK  status: ('A' for Active; 'I' for Inactive)
REMARK    1  A    between atoms: N_3  and  C_6
REMARK    2  A    between atoms: C_7  and  C_15
REMARK    3  A    between atoms: C_16  and  C_19
REMARK    4  A    between atoms: C_22  and  C_24
REMARK                            x       y       z     vdW  Elec       q    Type
REMARK                         _______ _______ _______ _____ _____    ______ ____
ROOT
ATOM      3  N   UNL     1      -2.989 -10.496  10.749  0.00  0.00    -0.299 NA
ATOM      7  C   UNL     1      -2.643 -11.011  13.010  0.00  0.00    +0.090 C 
ATOM      8  C   UNL     1      -3.163  -9.909  12.079  0.00  0.00    +0.097 C 
ATOM      9  C   UNL     1      -3.439 -11.882  10.887  0.00  0.00    +0.085 C 
ATOM     10  C   UNL     1      -2.811 -12.312  12.206  0.00  0.00    +0.029 C 
ENDROOT
BRANCH   7  15
ATOM      1  O   UNL     1      -4.493 -10.323  14.440  0.00  0.00    -0.439 OA
ATOM      5  N   UNL     1      -2.919 -11.581  15.477  0.00  0.00    -0.213 NA
ATOM     15  C   UNL     1      -3.318 -11.008  14.363  0.00  0.00    +0.201 A 
ATOM     17  C   UNL     1      -3.907 -11.255  16.372  0.00  0.00    +0.110 A 
ATOM     18  C   UNL     1      -4.873 -10.484  15.742  0.00  0.00    +0.155 A 
ATOM     20  C   UNL     1      -4.068 -11.563  17.730  0.00  0.00    +0.035 A 
ATOM     21  C   UNL     1      -6.012  -9.981  16.357  0.00  0.00    +0.049 A 
ATOM     22  C   UNL     1      -5.206 -11.074  18.387  0.00  0.00    -0.048 A 
ATOM     23  C   UNL     1      -6.158 -10.299  17.713  0.00  0.00    +0.007 A 
ATOM     24  C   UNL     1      -5.407 -11.387  19.834  0.00  0.00    +0.044 C 
ENDBRANCH   7  15
BRANCH   3   6
ATOM      2  O   UNL     1      -8.332  -8.129   8.835  0.00  0.00    -0.276 OA
ATOM      4  N   UNL     1      -6.232  -9.048   8.457  0.00  0.00    -0.302 N 
ATOM      6  C   UNL     1      -3.728  -9.771   9.718  0.00  0.00    +0.060 C 
ATOM     11  C   UNL     1      -4.493 -10.759   8.826  0.00  0.00    +0.038 C 
ATOM     12  C   UNL     1      -4.695  -8.772  10.365  0.00  0.00    +0.038 C 
ATOM     13  C   UNL     1      -5.348 -10.019   7.798  0.00  0.00    +0.109 C 
ATOM     14  C   UNL     1      -5.545  -8.072   9.307  0.00  0.00    +0.109 C 
ATOM     16  C   UNL     1      -7.615  -8.977   8.298  0.00  0.00    +0.212 C 
ATOM     19  C   UNL     1      -8.247 -10.018   7.410  0.00  0.00    +0.109 C 
ENDBRANCH   3   6
TORSDOF 2
ENDMDL
MODEL 10
REMARK VINA RESULT:      -6.4      2.789      8.465
REMARK  Name = 45784203
REMARK  4 active torsions:
REMARK  status: ('A' for Active; 'I' for Inactive)
REMARK    1  A    between atoms: N_3  and  C_6
REMARK    2  A    between atoms: C_7  and  C_15
REMARK    3  A    between atoms: C_16  and  C_19
REMARK    4  A    between atoms: C_22  and  C_24
REMARK                            x       y       z     vdW  Elec       q    Type
REMARK                         _______ _______ _______ _____ _____    ______ ____
ROOT
ATOM      3  N   UNL     1      17.790   6.031  20.528  0.00  0.00    -0.299 NA
ATOM      7  C   UNL     1      15.505   6.484  20.789  0.00  0.00    +0.090 C 
ATOM      8  C   UNL     1      16.872   6.709  21.446  0.00  0.00    +0.097 C 
ATOM      9  C   UNL     1      17.332   6.407  19.190  0.00  0.00    +0.085 C 
ATOM     10  C   UNL     1      15.819   6.266  19.298  0.00  0.00    +0.029 C 
ENDROOT
BRANCH   7  15
ATOM      1  O   UNL     1      13.342   7.221  21.637  0.00  0.00    -0.439 OA
ATOM      5  N   UNL     1      14.660   8.886  20.847  0.00  0.00    -0.213 NA
ATOM     15  C   UNL     1      14.523   7.598  21.074  0.00  0.00    +0.201 A 
ATOM     17  C   UNL     1      13.475   9.414  21.297  0.00  0.00    +0.110 A 
ATOM     18  C   UNL     1      12.665   8.398  21.781  0.00  0.00    +0.155 A 
ATOM     20  C   UNL     1      13.001  10.733  21.333  0.00  0.00    +0.035 A 
ATOM     21  C   UNL     1      11.394   8.582  22.312  0.00  0.00    +0.049 A 
ATOM     22  C   UNL     1      11.723  10.960  21.862  0.00  0.00    -0.048 A 
ATOM     23  C   UNL     1      10.936   9.904  22.341  0.00  0.00    +0.007 A 
ATOM     24  C   UNL     1      11.190  12.355  21.916  0.00  0.00    +0.044 C 
ENDBRANCH   7  15
BRANCH   3   6
ATOM      2  O   UNL     1      23.380   4.359  22.471  0.00  0.00    -0.276 OA
ATOM      4  N   UNL     1      21.719   5.937  22.084  0.00  0.00    -0.302 N 
ATOM      6  C   UNL     1      19.185   6.398  20.762  0.00  0.00    +0.060 C 
ATOM     11  C   UNL     1      19.396   6.752  22.240  0.00  0.00    +0.038 C 
ATOM     12  C   UNL     1      20.110   5.246  20.349  0.00  0.00    +0.038 C 
ATOM     13  C   UNL     1      20.868   7.048  22.528  0.00  0.00    +0.109 C 
ATOM     14  C   UNL     1      21.566   5.572  20.673  0.00  0.00    +0.109 C 
ATOM     16  C   UNL     1      22.650   5.266  22.877  0.00  0.00    +0.212 C 
ATOM     19  C   UNL     1      22.745   5.698  24.318  0.00  0.00    +0.109 C 
ENDBRANCH   3   6
TORSDOF 2
ENDMDL
