MODEL 1
REMARK VINA RESULT:      -7.8      0.000      0.000
REMARK  Name = 75536106
REMARK  9 active torsions:
REMARK  status: ('A' for Active; 'I' for Inactive)
REMARK    1  A    between atoms: O_1  and  C_8
REMARK    2  A    between atoms: O_2  and  C_10
REMARK    3  A    between atoms: O_3  and  C_21
REMARK    4  A    between atoms: O_3  and  C_27
REMARK    5  A    between atoms: N_4  and  C_6
REMARK    6  A    between atoms: N_4  and  C_12
REMARK    7  A    between atoms: N_5  and  C_24
REMARK    8  A    between atoms: C_7  and  C_11
REMARK    9  A    between atoms: C_12  and  C_15
REMARK                            x       y       z     vdW  Elec       q    Type
REMARK                         _______ _______ _______ _____ _____    ______ ____
ROOT
ATOM      6  C   UNL     1      13.126   7.750  20.745  0.00  0.00    +0.092 C 
ATOM      7  C   UNL     1      12.311   8.980  20.239  0.00  0.00    +0.041 C 
ATOM      8  C   UNL     1      12.078   6.783  21.320  0.00  0.00    +0.160 C 
ATOM      9  C   UNL     1      10.837   8.669  20.561  0.00  0.00    +0.043 C 
ATOM     10  C   UNL     1      10.921   7.691  21.725  0.00  0.00    +0.145 C 
ENDROOT
BRANCH   7  11
ATOM     11  C   UNL     1      12.544   9.318  18.782  0.00  0.00    -0.042 A 
ATOM     13  C   UNL     1      13.560  10.207  18.427  0.00  0.00    +0.007 A 
ATOM     14  C   UNL     1      11.744   8.742  17.795  0.00  0.00    +0.007 A 
ATOM     17  C   UNL     1      13.775  10.518  17.085  0.00  0.00    +0.046 A 
ATOM     18  C   UNL     1      11.960   9.055  16.453  0.00  0.00    +0.046 A 
ATOM     21  C   UNL     1      12.976   9.942  16.097  0.00  0.00    +0.120 A 
BRANCH  21   3
ATOM      3  O   UNL     1      13.186  10.247  14.788  0.00  0.00    -0.495 OA
ATOM     27  C   UNL     1      13.650  11.565  14.496  0.00  0.00    +0.277 C 
ENDBRANCH  21   3
ENDBRANCH   7  11
BRANCH   8   1
ATOM      1  O   UNL     1      11.679   5.887  20.284  0.00  0.00    -0.388 OA
ATOM     29  H   UNL     1      11.701   4.987  20.651  0.00  0.00    +0.210 HD
ENDBRANCH   8   1
BRANCH  10   2
ATOM      2  O   UNL     1       9.709   6.986  21.895  0.00  0.00    -0.389 OA
ATOM     30  H   UNL     1       9.902   6.041  21.778  0.00  0.00    +0.210 HD
ENDBRANCH  10   2
BRANCH   6   4
ATOM      4  N   UNL     1      14.046   8.172  21.803  0.00  0.00    -0.306 NA
ATOM     28  H   UNL     1      14.571   7.363  22.135  0.00  0.00    +0.123 HD
BRANCH   4  12
ATOM     12  C   UNL     1      14.989   9.164  21.306  0.00  0.00    +0.118 C 
BRANCH  12  15
ATOM      5  N   UNL     1      18.562   8.415  21.764  0.00  0.00    -0.349 N 
ATOM     15  C   UNL     1      16.402   8.645  21.308  0.00  0.00    -0.008 A 
ATOM     16  C   UNL     1      16.899   7.536  20.566  0.00  0.00    +0.004 A 
ATOM     19  C   UNL     1      17.448   9.164  22.035  0.00  0.00    +0.091 A 
ATOM     20  C   UNL     1      18.256   7.413  20.870  0.00  0.00    +0.049 A 
ATOM     22  C   UNL     1      16.322   6.622  19.662  0.00  0.00    +0.010 A 
ATOM     23  C   UNL     1      19.068   6.419  20.313  0.00  0.00    +0.026 A 
ATOM     24  C   UNL     1      19.867   8.655  22.343  0.00  0.00    +0.149 C 
ATOM     25  C   UNL     1      17.122   5.622  19.097  0.00  0.00    +0.001 A 
ATOM     26  C   UNL     1      18.474   5.524  19.419  0.00  0.00    +0.002 A 
ENDBRANCH  12  15
ENDBRANCH   4  12
ENDBRANCH   6   4
TORSDOF 7
ENDMDL
MODEL 2
REMARK VINA RESULT:      -7.7      1.211      2.343
REMARK  Name = 75536106
REMARK  9 active torsions:
REMARK  status: ('A' for Active; 'I' for Inactive)
REMARK    1  A    between atoms: O_1  and  C_8
REMARK    2  A    between atoms: O_2  and  C_10
REMARK    3  A    between atoms: O_3  and  C_21
REMARK    4  A    between atoms: O_3  and  C_27
REMARK    5  A    between atoms: N_4  and  C_6
REMARK    6  A    between atoms: N_4  and  C_12
REMARK    7  A    between atoms: N_5  and  C_24
REMARK    8  A    between atoms: C_7  and  C_11
REMARK    9  A    between atoms: C_12  and  C_15
REMARK                            x       y       z     vdW  Elec       q    Type
REMARK                         _______ _______ _______ _____ _____    ______ ____
ROOT
ATOM      6  C   UNL     1      13.258   7.107  20.934  0.00  0.00    +0.092 C 
ATOM      7  C   UNL     1      12.793   8.490  20.383  0.00  0.00    +0.041 C 
ATOM      8  C   UNL     1      11.976   6.422  21.432  0.00  0.00    +0.160 C 
ATOM      9  C   UNL     1      11.269   8.541  20.605  0.00  0.00    +0.043 C 
ATOM     10  C   UNL     1      11.043   7.582  21.765  0.00  0.00    +0.145 C 
ENDROOT
BRANCH   7  11
ATOM     11  C   UNL     1      13.196   8.749  18.947  0.00  0.00    -0.042 A 
ATOM     13  C   UNL     1      13.011  10.014  18.389  0.00  0.00    +0.007 A 
ATOM     14  C   UNL     1      13.751   7.723  18.182  0.00  0.00    +0.007 A 
ATOM     17  C   UNL     1      13.383  10.253  17.066  0.00  0.00    +0.046 A 
ATOM     18  C   UNL     1      14.121   7.962  16.859  0.00  0.00    +0.046 A 
ATOM     21  C   UNL     1      13.938   9.228  16.300  0.00  0.00    +0.120 A 
BRANCH  21   3
ATOM      3  O   UNL     1      14.299   9.461  15.010  0.00  0.00    -0.495 OA
ATOM     27  C   UNL     1      15.269  10.483  14.782  0.00  0.00    +0.277 C 
ENDBRANCH  21   3
ENDBRANCH   7  11
BRANCH   8   1
ATOM      1  O   UNL     1      11.444   5.636  20.367  0.00  0.00    -0.388 OA
ATOM     29  H   UNL     1      12.125   4.990  20.112  0.00  0.00    +0.210 HD
ENDBRANCH   8   1
BRANCH  10   2
ATOM      2  O   UNL     1       9.689   7.186  21.850  0.00  0.00    -0.389 OA
ATOM     30  H   UNL     1       9.585   6.384  21.311  0.00  0.00    +0.210 HD
ENDBRANCH  10   2
BRANCH   6   4
ATOM      4  N   UNL     1      14.180   7.310  22.054  0.00  0.00    -0.306 NA
ATOM     28  H   UNL     1      14.820   6.516  22.111  0.00  0.00    +0.123 HD
BRANCH   4  12
ATOM     12  C   UNL     1      14.963   8.523  21.869  0.00  0.00    +0.118 C 
BRANCH  12  15
ATOM      5  N   UNL     1      18.244   7.135  20.952  0.00  0.00    -0.349 N 
ATOM     15  C   UNL     1      16.401   8.220  21.547  0.00  0.00    -0.008 A 
ATOM     16  C   UNL     1      17.492   9.132  21.601  0.00  0.00    +0.004 A 
ATOM     19  C   UNL     1      16.895   7.000  21.145  0.00  0.00    +0.091 A 
ATOM     20  C   UNL     1      18.637   8.427  21.223  0.00  0.00    +0.049 A 
ATOM     22  C   UNL     1      17.617  10.495  21.936  0.00  0.00    +0.010 A 
ATOM     23  C   UNL     1      19.903   9.018  21.164  0.00  0.00    +0.026 A 
ATOM     24  C   UNL     1      19.118   6.063  20.524  0.00  0.00    +0.149 C 
ATOM     25  C   UNL     1      18.878  11.100  21.881  0.00  0.00    +0.001 A 
ATOM     26  C   UNL     1      20.002  10.371  21.501  0.00  0.00    +0.002 A 
ENDBRANCH  12  15
ENDBRANCH   4  12
ENDBRANCH   6   4
TORSDOF 7
ENDMDL
MODEL 3
REMARK VINA RESULT:      -7.3      3.177      5.278
REMARK  Name = 75536106
REMARK  9 active torsions:
REMARK  status: ('A' for Active; 'I' for Inactive)
REMARK    1  A    between atoms: O_1  and  C_8
REMARK    2  A    between atoms: O_2  and  C_10
REMARK    3  A    between atoms: O_3  and  C_21
REMARK    4  A    between atoms: O_3  and  C_27
REMARK    5  A    between atoms: N_4  and  C_6
REMARK    6  A    between atoms: N_4  and  C_12
REMARK    7  A    between atoms: N_5  and  C_24
REMARK    8  A    between atoms: C_7  and  C_11
REMARK    9  A    between atoms: C_12  and  C_15
REMARK                            x       y       z     vdW  Elec       q    Type
REMARK                         _______ _______ _______ _____ _____    ______ ____
ROOT
ATOM      6  C   UNL     1      13.337   8.120  21.323  0.00  0.00    +0.092 C 
ATOM      7  C   UNL     1      12.545   9.085  20.386  0.00  0.00    +0.041 C 
ATOM      8  C   UNL     1      12.284   7.150  21.882  0.00  0.00    +0.160 C 
ATOM      9  C   UNL     1      11.074   8.634  20.465  0.00  0.00    +0.043 C 
ATOM     10  C   UNL     1      10.982   7.942  21.818  0.00  0.00    +0.145 C 
ENDROOT
BRANCH   7  11
ATOM     11  C   UNL     1      13.076   9.145  18.970  0.00  0.00    -0.042 A 
ATOM     13  C   UNL     1      13.098  10.360  18.285  0.00  0.00    +0.007 A 
ATOM     14  C   UNL     1      13.542   7.985  18.350  0.00  0.00    +0.007 A 
ATOM     17  C   UNL     1      13.587  10.415  16.980  0.00  0.00    +0.046 A 
ATOM     18  C   UNL     1      14.030   8.041  17.045  0.00  0.00    +0.046 A 
ATOM     21  C   UNL     1      14.054   9.256  16.360  0.00  0.00    +0.120 A 
BRANCH  21   3
ATOM      3  O   UNL     1      14.530   9.310  15.086  0.00  0.00    -0.495 OA
ATOM     27  C   UNL     1      15.364  10.419  14.752  0.00  0.00    +0.277 C 
ENDBRANCH  21   3
ENDBRANCH   7  11
BRANCH   8   1
ATOM      1  O   UNL     1      12.225   6.010  21.026  0.00  0.00    -0.388 OA
ATOM     29  H   UNL     1      12.881   5.369  21.348  0.00  0.00    +0.210 HD
ENDBRANCH   8   1
BRANCH  10   2
ATOM      2  O   UNL     1       9.838   7.116  21.898  0.00  0.00    -0.389 OA
ATOM     30  H   UNL     1       9.996   6.466  22.602  0.00  0.00    +0.210 HD
ENDBRANCH  10   2
BRANCH   6   4
ATOM      4  N   UNL     1      13.941   8.884  22.417  0.00  0.00    -0.306 NA
ATOM     28  H   UNL     1      14.829   8.454  22.677  0.00  0.00    +0.123 HD
BRANCH   4  12
ATOM     12  C   UNL     1      14.192  10.260  22.013  0.00  0.00    +0.118 C 
BRANCH  12  15
ATOM      5  N   UNL     1      13.428  12.441  24.876  0.00  0.00    -0.349 N 
ATOM     15  C   UNL     1      13.664  11.245  23.020  0.00  0.00    -0.008 A 
ATOM     16  C   UNL     1      12.541  12.105  22.857  0.00  0.00    +0.004 A 
ATOM     19  C   UNL     1      14.188  11.475  24.272  0.00  0.00    +0.091 A 
ATOM     20  C   UNL     1      12.415  12.844  24.035  0.00  0.00    +0.049 A 
ATOM     22  C   UNL     1      11.618  12.326  21.817  0.00  0.00    +0.010 A 
ATOM     23  C   UNL     1      11.408  13.797  24.225  0.00  0.00    +0.026 A 
ATOM     24  C   UNL     1      13.669  12.953  26.208  0.00  0.00    +0.149 C 
ATOM     25  C   UNL     1      10.605  13.276  21.993  0.00  0.00    +0.001 A 
ATOM     26  C   UNL     1      10.503  13.999  23.179  0.00  0.00    +0.002 A 
ENDBRANCH  12  15
ENDBRANCH   4  12
ENDBRANCH   6   4
TORSDOF 7
ENDMDL
MODEL 4
REMARK VINA RESULT:      -7.0     26.037     28.993
REMARK  Name = 75536106
REMARK  9 active torsions:
REMARK  status: ('A' for Active; 'I' for Inactive)
REMARK    1  A    between atoms: O_1  and  C_8
REMARK    2  A    between atoms: O_2  and  C_10
REMARK    3  A    between atoms: O_3  and  C_21
REMARK    4  A    between atoms: O_3  and  C_27
REMARK    5  A    between atoms: N_4  and  C_6
REMARK    6  A    between atoms: N_4  and  C_12
REMARK    7  A    between atoms: N_5  and  C_24
REMARK    8  A    between atoms: C_7  and  C_11
REMARK    9  A    between atoms: C_12  and  C_15
REMARK                            x       y       z     vdW  Elec       q    Type
REMARK                         _______ _______ _______ _____ _____    ______ ____
ROOT
ATOM      6  C   UNL     1     -14.820   6.676  23.100  0.00  0.00    +0.092 C 
ATOM      7  C   UNL     1     -15.004   6.472  21.564  0.00  0.00    +0.041 C 
ATOM      8  C   UNL     1     -14.967   5.273  23.711  0.00  0.00    +0.160 C 
ATOM      9  C   UNL     1     -15.264   4.966  21.367  0.00  0.00    +0.043 C 
ATOM     10  C   UNL     1     -15.835   4.522  22.706  0.00  0.00    +0.145 C 
ENDROOT
BRANCH   7  11
ATOM     11  C   UNL     1     -13.853   6.993  20.730  0.00  0.00    -0.042 A 
ATOM     13  C   UNL     1     -12.539   6.800  21.158  0.00  0.00    +0.007 A 
ATOM     14  C   UNL     1     -14.106   7.666  19.534  0.00  0.00    +0.007 A 
ATOM     17  C   UNL     1     -11.479   7.280  20.390  0.00  0.00    +0.046 A 
ATOM     18  C   UNL     1     -13.045   8.146  18.767  0.00  0.00    +0.046 A 
ATOM     21  C   UNL     1     -11.731   7.953  19.194  0.00  0.00    +0.120 A 
BRANCH  21   3
ATOM      3  O   UNL     1     -10.696   8.421  18.446  0.00  0.00    -0.495 OA
ATOM     27  C   UNL     1     -10.693   8.084  17.059  0.00  0.00    +0.277 C 
ENDBRANCH  21   3
ENDBRANCH   7  11
BRANCH   8   1
ATOM      1  O   UNL     1     -13.670   4.684  23.798  0.00  0.00    -0.388 OA
ATOM     29  H   UNL     1     -13.786   3.719  23.788  0.00  0.00    +0.210 HD
ENDBRANCH   8   1
BRANCH  10   2
ATOM      2  O   UNL     1     -15.758   3.119  22.861  0.00  0.00    -0.389 OA
ATOM     30  H   UNL     1     -14.974   2.928  23.402  0.00  0.00    +0.210 HD
ENDBRANCH  10   2
BRANCH   6   4
ATOM      4  N   UNL     1     -15.877   7.553  23.609  0.00  0.00    -0.306 NA
ATOM     28  H   UNL     1     -16.247   7.165  24.476  0.00  0.00    +0.123 HD
BRANCH   4  12
ATOM     12  C   UNL     1     -15.359   8.886  23.881  0.00  0.00    +0.118 C 
BRANCH  12  15
ATOM      5  N   UNL     1     -16.030  10.912  20.884  0.00  0.00    -0.349 N 
ATOM     15  C   UNL     1     -15.349   9.747  22.647  0.00  0.00    -0.008 A 
ATOM     16  C   UNL     1     -14.203  10.301  22.009  0.00  0.00    +0.004 A 
ATOM     19  C   UNL     1     -16.457  10.141  21.932  0.00  0.00    +0.091 A 
ATOM     20  C   UNL     1     -14.658  11.027  20.906  0.00  0.00    +0.049 A 
ATOM     22  C   UNL     1     -12.819  10.253  22.264  0.00  0.00    +0.010 A 
ATOM     23  C   UNL     1     -13.794  11.710  20.043  0.00  0.00    +0.026 A 
ATOM     24  C   UNL     1     -16.908  11.513  19.903  0.00  0.00    +0.149 C 
ATOM     25  C   UNL     1     -11.943  10.933  21.410  0.00  0.00    +0.001 A 
ATOM     26  C   UNL     1     -12.425  11.649  20.317  0.00  0.00    +0.002 A 
ENDBRANCH  12  15
ENDBRANCH   4  12
ENDBRANCH   6   4
TORSDOF 7
ENDMDL
MODEL 5
REMARK VINA RESULT:      -6.9     13.584     17.507
REMARK  Name = 75536106
REMARK  9 active torsions:
REMARK  status: ('A' for Active; 'I' for Inactive)
REMARK    1  A    between atoms: O_1  and  C_8
REMARK    2  A    between atoms: O_2  and  C_10
REMARK    3  A    between atoms: O_3  and  C_21
REMARK    4  A    between atoms: O_3  and  C_27
REMARK    5  A    between atoms: N_4  and  C_6
REMARK    6  A    between atoms: N_4  and  C_12
REMARK    7  A    between atoms: N_5  and  C_24
REMARK    8  A    between atoms: C_7  and  C_11
REMARK    9  A    between atoms: C_12  and  C_15
REMARK                            x       y       z     vdW  Elec       q    Type
REMARK                         _______ _______ _______ _____ _____    ______ ____
ROOT
ATOM      6  C   UNL     1      10.415   6.626   6.157  0.00  0.00    +0.092 C 
ATOM      7  C   UNL     1      10.065   5.412   5.241  0.00  0.00    +0.041 C 
ATOM      8  C   UNL     1      10.640   6.023   7.553  0.00  0.00    +0.160 C 
ATOM      9  C   UNL     1      10.090   4.173   6.157  0.00  0.00    +0.043 C 
ATOM     10  C   UNL     1       9.810   4.743   7.541  0.00  0.00    +0.145 C 
ENDROOT
BRANCH   7  11
ATOM     11  C   UNL     1      10.961   5.276   4.029  0.00  0.00    -0.042 A 
ATOM     13  C   UNL     1      11.901   6.266   3.742  0.00  0.00    +0.007 A 
ATOM     14  C   UNL     1      10.846   4.161   3.198  0.00  0.00    +0.007 A 
ATOM     17  C   UNL     1      12.726   6.141   2.625  0.00  0.00    +0.046 A 
ATOM     18  C   UNL     1      11.672   4.036   2.080  0.00  0.00    +0.046 A 
ATOM     21  C   UNL     1      12.612   5.026   1.794  0.00  0.00    +0.120 A 
BRANCH  21   3
ATOM      3  O   UNL     1      13.417   4.905   0.704  0.00  0.00    -0.495 OA
ATOM     27  C   UNL     1      13.494   3.616   0.094  0.00  0.00    +0.277 C 
ENDBRANCH  21   3
ENDBRANCH   7  11
BRANCH   8   1
ATOM      1  O   UNL     1      12.028   5.724   7.695  0.00  0.00    -0.388 OA
ATOM     29  H   UNL     1      12.508   6.570   7.720  0.00  0.00    +0.210 HD
ENDBRANCH   8   1
BRANCH  10   2
ATOM      2  O   UNL     1      10.190   3.838   8.557  0.00  0.00    -0.389 OA
ATOM     30  H   UNL     1      11.133   3.640   8.435  0.00  0.00    +0.210 HD
ENDBRANCH  10   2
BRANCH   6   4
ATOM      4  N   UNL     1       9.284   7.555   6.194  0.00  0.00    -0.306 NA
ATOM     28  H   UNL     1       9.615   8.496   5.979  0.00  0.00    +0.123 HD
BRANCH   4  12
ATOM     12  C   UNL     1       8.275   7.184   5.212  0.00  0.00    +0.118 C 
BRANCH  12  15
ATOM      5  N   UNL     1       7.248  10.205   3.379  0.00  0.00    -0.349 N 
ATOM     15  C   UNL     1       7.996   8.301   4.243  0.00  0.00    -0.008 A 
ATOM     16  C   UNL     1       8.428   8.376   2.889  0.00  0.00    +0.004 A 
ATOM     19  C   UNL     1       7.274   9.440   4.515  0.00  0.00    +0.091 A 
ATOM     20  C   UNL     1       7.946   9.580   2.370  0.00  0.00    +0.049 A 
ATOM     22  C   UNL     1       9.185   7.533   2.052  0.00  0.00    +0.010 A 
ATOM     23  C   UNL     1       8.184   9.983   1.052  0.00  0.00    +0.026 A 
ATOM     24  C   UNL     1       6.580  11.484   3.272  0.00  0.00    +0.149 C 
ATOM     25  C   UNL     1       9.431   7.924   0.731  0.00  0.00    +0.001 A 
ATOM     26  C   UNL     1       8.937   9.130   0.240  0.00  0.00    +0.002 A 
ENDBRANCH  12  15
ENDBRANCH   4  12
ENDBRANCH   6   4
TORSDOF 7
ENDMDL
MODEL 6
REMARK VINA RESULT:      -6.8     12.944     16.050
REMARK  Name = 75536106
REMARK  9 active torsions:
REMARK  status: ('A' for Active; 'I' for Inactive)
REMARK    1  A    between atoms: O_1  and  C_8
REMARK    2  A    between atoms: O_2  and  C_10
REMARK    3  A    between atoms: O_3  and  C_21
REMARK    4  A    between atoms: O_3  and  C_27
REMARK    5  A    between atoms: N_4  and  C_6
REMARK    6  A    between atoms: N_4  and  C_12
REMARK    7  A    between atoms: N_5  and  C_24
REMARK    8  A    between atoms: C_7  and  C_11
REMARK    9  A    between atoms: C_12  and  C_15
REMARK                            x       y       z     vdW  Elec       q    Type
REMARK                         _______ _______ _______ _____ _____    ______ ____
ROOT
ATOM      6  C   UNL     1      10.157   6.961   7.183  0.00  0.00    +0.092 C 
ATOM      7  C   UNL     1       9.636   6.063   6.018  0.00  0.00    +0.041 C 
ATOM      8  C   UNL     1      10.607   5.978   8.276  0.00  0.00    +0.160 C 
ATOM      9  C   UNL     1       9.796   4.610   6.503  0.00  0.00    +0.043 C 
ATOM     10  C   UNL     1       9.766   4.731   8.020  0.00  0.00    +0.145 C 
ENDROOT
BRANCH   7  11
ATOM     11  C   UNL     1      10.309   6.326   4.688  0.00  0.00    -0.042 A 
ATOM     13  C   UNL     1      11.652   6.700   4.648  0.00  0.00    +0.007 A 
ATOM     14  C   UNL     1       9.586   6.195   3.502  0.00  0.00    +0.007 A 
ATOM     17  C   UNL     1      12.273   6.942   3.423  0.00  0.00    +0.046 A 
ATOM     18  C   UNL     1      10.207   6.437   2.276  0.00  0.00    +0.046 A 
ATOM     21  C   UNL     1      11.551   6.810   2.237  0.00  0.00    +0.120 A 
BRANCH  21   3
ATOM      3  O   UNL     1      12.156   7.048   1.042  0.00  0.00    -0.495 OA
ATOM     27  C   UNL     1      12.186   5.971   0.105  0.00  0.00    +0.277 C 
ENDBRANCH  21   3
ENDBRANCH   7  11
BRANCH   8   1
ATOM      1  O   UNL     1      11.994   5.700   8.086  0.00  0.00    -0.388 OA
ATOM     29  H   UNL     1      12.491   6.483   8.377  0.00  0.00    +0.210 HD
ENDBRANCH   8   1
BRANCH  10   2
ATOM      2  O   UNL     1      10.298   3.579   8.640  0.00  0.00    -0.389 OA
ATOM     30  H   UNL     1      10.110   3.646   9.591  0.00  0.00    +0.210 HD
ENDBRANCH  10   2
BRANCH   6   4
ATOM      4  N   UNL     1       9.065   7.797   7.685  0.00  0.00    -0.306 NA
ATOM     28  H   UNL     1       8.875   7.553   8.657  0.00  0.00    +0.123 HD
BRANCH   4  12
ATOM     12  C   UNL     1       9.419   9.207   7.621  0.00  0.00    +0.118 C 
BRANCH  12  15
ATOM      5  N   UNL     1      11.096  10.361   4.556  0.00  0.00    -0.349 N 
ATOM     15  C   UNL     1       9.857   9.614   6.240  0.00  0.00    -0.008 A 
ATOM     16  C   UNL     1       9.078   9.549   5.050  0.00  0.00    +0.004 A 
ATOM     19  C   UNL     1      11.093  10.117   5.904  0.00  0.00    +0.091 A 
ATOM     20  C   UNL     1       9.879  10.024   4.009  0.00  0.00    +0.049 A 
ATOM     22  C   UNL     1       7.765   9.132   4.759  0.00  0.00    +0.010 A 
ATOM     23  C   UNL     1       9.429  10.101   2.686  0.00  0.00    +0.026 A 
ATOM     24  C   UNL     1      12.226  10.897   3.828  0.00  0.00    +0.149 C 
ATOM     25  C   UNL     1       7.302   9.204   3.440  0.00  0.00    +0.001 A 
ATOM     26  C   UNL     1       8.123   9.682   2.421  0.00  0.00    +0.002 A 
ENDBRANCH  12  15
ENDBRANCH   4  12
ENDBRANCH   6   4
TORSDOF 7
ENDMDL
MODEL 7
REMARK VINA RESULT:      -6.8     25.541     27.843
REMARK  Name = 75536106
REMARK  9 active torsions:
REMARK  status: ('A' for Active; 'I' for Inactive)
REMARK    1  A    between atoms: O_1  and  C_8
REMARK    2  A    between atoms: O_2  and  C_10
REMARK    3  A    between atoms: O_3  and  C_21
REMARK    4  A    between atoms: O_3  and  C_27
REMARK    5  A    between atoms: N_4  and  C_6
REMARK    6  A    between atoms: N_4  and  C_12
REMARK    7  A    between atoms: N_5  and  C_24
REMARK    8  A    between atoms: C_7  and  C_11
REMARK    9  A    between atoms: C_12  and  C_15
REMARK                            x       y       z     vdW  Elec       q    Type
REMARK                         _______ _______ _______ _____ _____    ______ ____
ROOT
ATOM      6  C   UNL     1     -12.009   9.469  17.259  0.00  0.00    +0.092 C 
ATOM      7  C   UNL     1     -11.254   8.492  18.213  0.00  0.00    +0.041 C 
ATOM      8  C   UNL     1     -11.756   8.925  15.844  0.00  0.00    +0.160 C 
ATOM      9  C   UNL     1     -10.590   7.443  17.300  0.00  0.00    +0.043 C 
ATOM     10  C   UNL     1     -10.437   8.168  15.970  0.00  0.00    +0.145 C 
ENDROOT
BRANCH   7  11
ATOM     11  C   UNL     1     -12.127   7.880  19.287  0.00  0.00    -0.042 A 
ATOM     13  C   UNL     1     -13.508   8.077  19.259  0.00  0.00    +0.007 A 
ATOM     14  C   UNL     1     -11.551   7.120  20.306  0.00  0.00    +0.007 A 
ATOM     17  C   UNL     1     -14.313   7.514  20.249  0.00  0.00    +0.046 A 
ATOM     18  C   UNL     1     -12.356   6.557  21.296  0.00  0.00    +0.046 A 
ATOM     21  C   UNL     1     -13.737   6.753  21.267  0.00  0.00    +0.120 A 
BRANCH  21   3
ATOM      3  O   UNL     1     -14.523   6.205  22.233  0.00  0.00    -0.495 OA
ATOM     27  C   UNL     1     -14.028   5.035  22.884  0.00  0.00    +0.277 C 
ENDBRANCH  21   3
ENDBRANCH   7  11
BRANCH   8   1
ATOM      1  O   UNL     1     -12.819   8.034  15.509  0.00  0.00    -0.388 OA
ATOM     29  H   UNL     1     -13.655   8.505  15.665  0.00  0.00    +0.210 HD
ENDBRANCH   8   1
BRANCH  10   2
ATOM      2  O   UNL     1     -10.226   7.261  14.908  0.00  0.00    -0.389 OA
ATOM     30  H   UNL     1     -11.080   6.844  14.706  0.00  0.00    +0.210 HD
ENDBRANCH  10   2
BRANCH   6   4
ATOM      4  N   UNL     1     -11.442  10.813  17.384  0.00  0.00    -0.306 NA
ATOM     28  H   UNL     1     -12.156  11.503  17.148  0.00  0.00    +0.123 HD
BRANCH   4  12
ATOM     12  C   UNL     1     -10.989  11.061  18.745  0.00  0.00    +0.118 C 
BRANCH  12  15
ATOM      5  N   UNL     1     -13.497  13.360  20.147  0.00  0.00    -0.349 N 
ATOM     15  C   UNL     1     -12.009  11.826  19.545  0.00  0.00    -0.008 A 
ATOM     16  C   UNL     1     -12.487  11.497  20.845  0.00  0.00    +0.004 A 
ATOM     19  C   UNL     1     -12.649  12.976  19.143  0.00  0.00    +0.091 A 
ATOM     20  C   UNL     1     -13.419  12.475  21.200  0.00  0.00    +0.049 A 
ATOM     22  C   UNL     1     -12.215  10.458  21.757  0.00  0.00    +0.010 A 
ATOM     23  C   UNL     1     -14.095  12.465  22.424  0.00  0.00    +0.026 A 
ATOM     24  C   UNL     1     -14.347  14.530  20.095  0.00  0.00    +0.149 C 
ATOM     25  C   UNL     1     -12.884  10.436  22.986  0.00  0.00    +0.001 A 
ATOM     26  C   UNL     1     -13.809  11.425  23.313  0.00  0.00    +0.002 A 
ENDBRANCH  12  15
ENDBRANCH   4  12
ENDBRANCH   6   4
TORSDOF 7
ENDMDL
MODEL 8
REMARK VINA RESULT:      -6.6     13.062     16.122
REMARK  Name = 75536106
REMARK  9 active torsions:
REMARK  status: ('A' for Active; 'I' for Inactive)
REMARK    1  A    between atoms: O_1  and  C_8
REMARK    2  A    between atoms: O_2  and  C_10
REMARK    3  A    between atoms: O_3  and  C_21
REMARK    4  A    between atoms: O_3  and  C_27
REMARK    5  A    between atoms: N_4  and  C_6
REMARK    6  A    between atoms: N_4  and  C_12
REMARK    7  A    between atoms: N_5  and  C_24
REMARK    8  A    between atoms: C_7  and  C_11
REMARK    9  A    between atoms: C_12  and  C_15
REMARK                            x       y       z     vdW  Elec       q    Type
REMARK                         _______ _______ _______ _____ _____    ______ ____
ROOT
ATOM      6  C   UNL     1      10.094   7.022   7.089  0.00  0.00    +0.092 C 
ATOM      7  C   UNL     1       9.542   6.150   5.919  0.00  0.00    +0.041 C 
ATOM      8  C   UNL     1      10.579   6.016   8.145  0.00  0.00    +0.160 C 
ATOM      9  C   UNL     1       9.720   4.686   6.365  0.00  0.00    +0.043 C 
ATOM     10  C   UNL     1       9.735   4.772   7.885  0.00  0.00    +0.145 C 
ENDROOT
BRANCH   7  11
ATOM     11  C   UNL     1      10.176   6.446   4.576  0.00  0.00    -0.042 A 
ATOM     13  C   UNL     1       9.370   6.709   3.468  0.00  0.00    +0.007 A 
ATOM     14  C   UNL     1      11.565   6.454   4.447  0.00  0.00    +0.007 A 
ATOM     17  C   UNL     1       9.953   6.982   2.231  0.00  0.00    +0.046 A 
ATOM     18  C   UNL     1      12.148   6.726   3.209  0.00  0.00    +0.046 A 
ATOM     21  C   UNL     1      11.342   6.991   2.101  0.00  0.00    +0.120 A 
BRANCH  21   3
ATOM      3  O   UNL     1      11.911   7.256   0.894  0.00  0.00    -0.495 OA
ATOM     27  C   UNL     1      12.993   6.418   0.489  0.00  0.00    +0.277 C 
ENDBRANCH  21   3
ENDBRANCH   7  11
BRANCH   8   1
ATOM      1  O   UNL     1      11.960   5.748   7.909  0.00  0.00    -0.388 OA
ATOM     29  H   UNL     1      12.104   5.781   6.948  0.00  0.00    +0.210 HD
ENDBRANCH   8   1
BRANCH  10   2
ATOM      2  O   UNL     1      10.288   3.608   8.463  0.00  0.00    -0.389 OA
ATOM     30  H   UNL     1      10.095   2.866   7.866  0.00  0.00    +0.210 HD
ENDBRANCH  10   2
BRANCH   6   4
ATOM      4  N   UNL     1       9.014   7.842   7.641  0.00  0.00    -0.306 NA
ATOM     28  H   UNL     1       8.925   7.652   8.640  0.00  0.00    +0.123 HD
BRANCH   4  12
ATOM     12  C   UNL     1       9.295   9.260   7.463  0.00  0.00    +0.118 C 
BRANCH  12  15
ATOM      5  N   UNL     1       8.444  10.193   4.007  0.00  0.00    -0.349 N 
ATOM     15  C   UNL     1       9.230   9.666   6.015  0.00  0.00    -0.008 A 
ATOM     16  C   UNL     1      10.335   9.969   5.169  0.00  0.00    +0.004 A 
ATOM     19  C   UNL     1       8.081   9.814   5.272  0.00  0.00    +0.091 A 
ATOM     20  C   UNL     1       9.814  10.295   3.915  0.00  0.00    +0.049 A 
ATOM     22  C   UNL     1      11.731   9.995   5.351  0.00  0.00    +0.010 A 
ATOM     23  C   UNL     1      10.623  10.649   2.830  0.00  0.00    +0.026 A 
ATOM     24  C   UNL     1       7.508  10.446   2.932  0.00  0.00    +0.149 C 
ATOM     25  C   UNL     1      12.553  10.346   4.274  0.00  0.00    +0.001 A 
ATOM     26  C   UNL     1      12.006  10.668   3.034  0.00  0.00    +0.002 A 
ENDBRANCH  12  15
ENDBRANCH   4  12
ENDBRANCH   6   4
TORSDOF 7
ENDMDL
MODEL 9
REMARK VINA RESULT:      -6.6     26.010     28.272
REMARK  Name = 75536106
REMARK  9 active torsions:
REMARK  status: ('A' for Active; 'I' for Inactive)
REMARK    1  A    between atoms: O_1  and  C_8
REMARK    2  A    between atoms: O_2  and  C_10
REMARK    3  A    between atoms: O_3  and  C_21
REMARK    4  A    between atoms: O_3  and  C_27
REMARK    5  A    between atoms: N_4  and  C_6
REMARK    6  A    between atoms: N_4  and  C_12
REMARK    7  A    between atoms: N_5  and  C_24
REMARK    8  A    between atoms: C_7  and  C_11
REMARK    9  A    between atoms: C_12  and  C_15
REMARK                            x       y       z     vdW  Elec       q    Type
REMARK                         _______ _______ _______ _____ _____    ______ ____
ROOT
ATOM      6  C   UNL     1      -3.677 -11.129  15.711  0.00  0.00    +0.092 C 
ATOM      7  C   UNL     1      -4.933 -10.297  15.305  0.00  0.00    +0.041 C 
ATOM      8  C   UNL     1      -3.910 -11.516  17.180  0.00  0.00    +0.160 C 
ATOM      9  C   UNL     1      -5.819 -10.231  16.564  0.00  0.00    +0.043 C 
ATOM     10  C   UNL     1      -4.832 -10.422  17.708  0.00  0.00    +0.145 C 
ENDROOT
BRANCH   7  11
ATOM     11  C   UNL     1      -5.662 -10.830  14.090  0.00  0.00    -0.042 A 
ATOM     13  C   UNL     1      -6.157  -9.947  13.131  0.00  0.00    +0.007 A 
ATOM     14  C   UNL     1      -5.839 -12.205  13.932  0.00  0.00    +0.007 A 
ATOM     17  C   UNL     1      -6.828 -10.438  12.011  0.00  0.00    +0.046 A 
ATOM     18  C   UNL     1      -6.511 -12.696  12.812  0.00  0.00    +0.046 A 
ATOM     21  C   UNL     1      -7.005 -11.813  11.852  0.00  0.00    +0.120 A 
BRANCH  21   3
ATOM      3  O   UNL     1      -7.661 -12.292  10.760  0.00  0.00    -0.495 OA
ATOM     27  C   UNL     1      -7.768 -11.421   9.634  0.00  0.00    +0.277 C 
ENDBRANCH  21   3
ENDBRANCH   7  11
BRANCH   8   1
ATOM      1  O   UNL     1      -4.561 -12.785  17.212  0.00  0.00    -0.388 OA
ATOM     29  H   UNL     1      -4.255 -13.250  18.009  0.00  0.00    +0.210 HD
ENDBRANCH   8   1
BRANCH  10   2
ATOM      2  O   UNL     1      -5.492 -10.794  18.901  0.00  0.00    -0.389 OA
ATOM     30  H   UNL     1      -6.211 -11.401  18.660  0.00  0.00    +0.210 HD
ENDBRANCH  10   2
BRANCH   6   4
ATOM      4  N   UNL     1      -2.479 -10.295  15.599  0.00  0.00    -0.306 NA
ATOM     28  H   UNL     1      -2.121 -10.095  16.534  0.00  0.00    +0.123 HD
BRANCH   4  12
ATOM     12  C   UNL     1      -1.440 -10.978  14.842  0.00  0.00    +0.118 C 
BRANCH  12  15
ATOM      5  N   UNL     1      -2.674 -13.462  12.425  0.00  0.00    -0.349 N 
ATOM     15  C   UNL     1      -2.009 -11.766  13.693  0.00  0.00    -0.008 A 
ATOM     16  C   UNL     1      -2.548 -11.236  12.486  0.00  0.00    +0.004 A 
ATOM     19  C   UNL     1      -2.101 -13.137  13.625  0.00  0.00    +0.091 A 
ATOM     20  C   UNL     1      -2.958 -12.321  11.709  0.00  0.00    +0.049 A 
ATOM     22  C   UNL     1      -2.727  -9.934  11.980  0.00  0.00    +0.010 A 
ATOM     23  C   UNL     1      -3.540 -12.168  10.446  0.00  0.00    +0.026 A 
ATOM     24  C   UNL     1      -2.938 -14.816  11.988  0.00  0.00    +0.149 C 
ATOM     25  C   UNL     1      -3.308  -9.766  10.718  0.00  0.00    +0.001 A 
ATOM     26  C   UNL     1      -3.707 -10.867   9.964  0.00  0.00    +0.002 A 
ENDBRANCH  12  15
ENDBRANCH   4  12
ENDBRANCH   6   4
TORSDOF 7
ENDMDL
MODEL 10
REMARK VINA RESULT:      -6.5     26.845     30.046
REMARK  Name = 75536106
REMARK  9 active torsions:
REMARK  status: ('A' for Active; 'I' for Inactive)
REMARK    1  A    between atoms: O_1  and  C_8
REMARK    2  A    between atoms: O_2  and  C_10
REMARK    3  A    between atoms: O_3  and  C_21
REMARK    4  A    between atoms: O_3  and  C_27
REMARK    5  A    between atoms: N_4  and  C_6
REMARK    6  A    between atoms: N_4  and  C_12
REMARK    7  A    between atoms: N_5  and  C_24
REMARK    8  A    between atoms: C_7  and  C_11
REMARK    9  A    between atoms: C_12  and  C_15
REMARK                            x       y       z     vdW  Elec       q    Type
REMARK                         _______ _______ _______ _____ _____    ______ ____
ROOT
ATOM      6  C   UNL     1      -5.150 -10.909  15.580  0.00  0.00    +0.092 C 
ATOM      7  C   UNL     1      -5.141 -10.588  17.107  0.00  0.00    +0.041 C 
ATOM      8  C   UNL     1      -3.716 -11.356  15.254  0.00  0.00    +0.160 C 
ATOM      9  C   UNL     1      -3.699 -10.850  17.582  0.00  0.00    +0.043 C 
ATOM     10  C   UNL     1      -2.866 -10.672  16.320  0.00  0.00    +0.145 C 
ENDROOT
BRANCH   7  11
ATOM     11  C   UNL     1      -6.179 -11.348  17.904  0.00  0.00    -0.042 A 
ATOM     13  C   UNL     1      -6.499 -12.661  17.558  0.00  0.00    +0.007 A 
ATOM     14  C   UNL     1      -6.816 -10.735  18.983  0.00  0.00    +0.007 A 
ATOM     17  C   UNL     1      -7.456 -13.361  18.292  0.00  0.00    +0.046 A 
ATOM     18  C   UNL     1      -7.773 -11.436  19.717  0.00  0.00    +0.046 A 
ATOM     21  C   UNL     1      -8.093 -12.750  19.372  0.00  0.00    +0.120 A 
BRANCH  21   3
ATOM      3  O   UNL     1      -9.027 -13.433  20.087  0.00  0.00    -0.495 OA
ATOM     27  C   UNL     1     -10.206 -12.721  20.462  0.00  0.00    +0.277 C 
ENDBRANCH  21   3
ENDBRANCH   7  11
BRANCH   8   1
ATOM      1  O   UNL     1      -3.648 -12.775  15.386  0.00  0.00    -0.388 OA
ATOM     29  H   UNL     1      -2.985 -12.973  16.069  0.00  0.00    +0.210 HD
ENDBRANCH   8   1
BRANCH  10   2
ATOM      2  O   UNL     1      -1.589 -11.261  16.458  0.00  0.00    -0.389 OA
ATOM     30  H   UNL     1      -1.718 -12.217  16.572  0.00  0.00    +0.210 HD
ENDBRANCH  10   2
BRANCH   6   4
ATOM      4  N   UNL     1      -5.477  -9.696  14.826  0.00  0.00    -0.306 NA
ATOM     28  H   UNL     1      -4.674  -9.428  14.256  0.00  0.00    +0.123 HD
BRANCH   4  12
ATOM     12  C   UNL     1      -6.615  -9.922  13.947  0.00  0.00    +0.118 C 
BRANCH  12  15
ATOM      5  N   UNL     1      -9.272 -12.090  15.278  0.00  0.00    -0.349 N 
ATOM     15  C   UNL     1      -7.756 -10.588  14.666  0.00  0.00    -0.008 A 
ATOM     16  C   UNL     1      -8.533 -10.033  15.722  0.00  0.00    +0.004 A 
ATOM     19  C   UNL     1      -8.235 -11.854  14.416  0.00  0.00    +0.091 A 
ATOM     20  C   UNL     1      -9.477 -10.995  16.087  0.00  0.00    +0.049 A 
ATOM     22  C   UNL     1      -8.524  -8.800  16.403  0.00  0.00    +0.010 A 
ATOM     23  C   UNL     1     -10.415 -10.785  17.104  0.00  0.00    +0.026 A 
ATOM     24  C   UNL     1     -10.034 -13.320  15.320  0.00  0.00    +0.149 C 
ATOM     25  C   UNL     1      -9.457  -8.576  17.422  0.00  0.00    +0.001 A 
ATOM     26  C   UNL     1     -10.387  -9.554  17.765  0.00  0.00    +0.002 A 
ENDBRANCH  12  15
ENDBRANCH   4  12
ENDBRANCH   6   4
TORSDOF 7
ENDMDL
