REMARK  Name = 28963185
REMARK  10 active torsions:
REMARK  status: ('A' for Active; 'I' for Inactive)
REMARK    1  A    between atoms: S_1  and  N_6
REMARK    2  A    between atoms: S_1  and  C_24
REMARK    3  A    between atoms: O_2  and  C_11
REMARK    4  A    between atoms: N_6  and  C_15
REMARK    5  A    between atoms: N_7  and  C_23
REMARK    6  A    between atoms: C_8  and  C_18
REMARK    7  A    between atoms: C_10  and  C_20
REMARK    8  A    between atoms: C_13  and  C_19
REMARK    9  A    between atoms: C_19  and  C_21
REMARK   10  A    between atoms: C_19  and  C_22
REMARK                            x       y       z     vdW  Elec       q    Type
REMARK                         _______ _______ _______ _____ _____    ______ ____
ROOT
ATOM      8  C   UNL     1       1.123  -0.632  -1.529  0.00  0.00    -0.027 C 
ATOM      9  C   UNL     1       1.261  -0.419   0.016  0.00  0.00    +0.028 C 
ATOM     10  C   UNL     1       2.740  -0.671   0.486  0.00  0.00    +0.011 C 
ATOM     11  C   UNL     1       0.169  -1.209   0.793  0.00  0.00    +0.122 C 
ATOM     12  C   UNL     1      -0.313  -0.268  -1.974  0.00  0.00    +0.007 C 
ATOM     13  C   UNL     1      -1.259  -0.921   0.272  0.00  0.00    +0.029 C 
ATOM     14  C   UNL     1       2.097   0.323  -2.259  0.00  0.00    +0.008 C 
ATOM     15  C   UNL     1       3.713   0.241  -0.310  0.00  0.00    +0.079 C 
ATOM     16  C   UNL     1      -1.382  -1.069  -1.244  0.00  0.00    +0.007 C 
ATOM     17  C   UNL     1       3.545   0.143  -1.825  0.00  0.00    +0.021 C 
ATOM     18  C   UNL     1       1.423  -2.091  -1.956  0.00  0.00    +0.011 C 
ATOM     20  C   UNL     1       2.950  -0.452   1.993  0.00  0.00    +0.009 C 
ENDROOT
BRANCH  11   2
ATOM      2  O   UNL     1       0.186  -0.820   2.168  0.00  0.00    -0.391 OA
ATOM     31  H   UNL     1       0.013   0.136   2.214  0.00  0.00    +0.210 HD
ENDBRANCH  11   2
BRANCH  15   6
ATOM      6  N   UNL     1       5.127  -0.112  -0.009  0.00  0.00    -0.191 NA
ATOM     30  H   UNL     1       5.520  -0.946  -0.459  0.00  0.00    +0.148 HD
BRANCH   6   1
ATOM      1  S   UNL     1       6.135   1.068   0.685  0.00  0.00    +0.027 S 
ATOM      4  O   UNL     1       7.314   0.445   1.255  0.00  0.00    -0.158 OA
ATOM      5  O   UNL     1       5.308   1.956   1.480  0.00  0.00    -0.158 OA
ATOM     24  C   UNL     1       6.638   1.968  -0.764  0.00  0.00    +0.214 C 
ENDBRANCH   6   1
ENDBRANCH  15   6
BRANCH  13  19
ATOM     19  C   UNL     1      -2.305  -1.806   0.960  0.00  0.00    +0.077 C 
ATOM     21  C   UNL     1      -1.990  -3.278   0.716  0.00  0.00    +0.017 C 
BRANCH  19  22
ATOM      3  O   UNL     1      -4.443  -2.261  -0.082  0.00  0.00    -0.276 OA
ATOM      7  N   UNL     1      -4.019  -0.115   0.687  0.00  0.00    -0.312 N 
ATOM     22  C   UNL     1      -3.701  -1.446   0.460  0.00  0.00    +0.216 C 
ATOM     32  H   UNL     1      -3.352   0.484   1.160  0.00  0.00    +0.149 HD
BRANCH   7  23
ATOM     23  C   UNL     1      -5.287   0.463   0.299  0.00  0.00    +0.073 C 
ATOM     25  C   UNL     1      -5.710   1.567   1.274  0.00  0.00    +0.022 C 
ATOM     26  C   UNL     1      -5.238   0.983  -1.141  0.00  0.00    +0.022 C 
ATOM     27  C   UNL     1      -4.860   2.830   1.133  0.00  0.00    +0.002 C 
ATOM     28  C   UNL     1      -4.388   2.247  -1.278  0.00  0.00    +0.002 C 
ATOM     29  C   UNL     1      -4.835   3.334  -0.307  0.00  0.00    +0.000 C 
ENDBRANCH   7  23
ENDBRANCH  19  22
ENDBRANCH  13  19
TORSDOF 6
