MODEL 1
REMARK VINA RESULT:      -7.2      0.000      0.000
REMARK  Name = 25389544
REMARK  11 active torsions:
REMARK  status: ('A' for Active; 'I' for Inactive)
REMARK    1  A    between atoms: O_1  and  C_17
REMARK    2  A    between atoms: O_1  and  C_22
REMARK    3  A    between atoms: O_3  and  C_25
REMARK    4  A    between atoms: O_3  and  C_33
REMARK    5  A    between atoms: O_4  and  C_28
REMARK    6  A    between atoms: O_4  and  C_34
REMARK    7  A    between atoms: N_6  and  C_20
REMARK    8  A    between atoms: N_8  and  C_27
REMARK    9  A    between atoms: C_10  and  C_16
REMARK   10  A    between atoms: C_11  and  C_17
REMARK   11  A    between atoms: C_19  and  C_21
REMARK                            x       y       z     vdW  Elec       q    Type
REMARK                         _______ _______ _______ _____ _____    ______ ____
ROOT
ATOM      5  N   UNL     1      12.187   9.052  19.683  0.00  0.00    -0.296 NA
ATOM      9  C   UNL     1      13.004   7.469  21.582  0.00  0.00    +0.002 C 
ATOM     10  C   UNL     1      13.951   8.693  21.449  0.00  0.00    +0.055 C 
ATOM     11  C   UNL     1      12.250   7.653  19.185  0.00  0.00    +0.095 C 
ATOM     12  C   UNL     1      12.926   6.735  20.227  0.00  0.00    +0.026 C 
ATOM     13  C   UNL     1      11.595   8.026  21.878  0.00  0.00    +0.019 C 
ATOM     14  C   UNL     1      13.520   9.478  20.177  0.00  0.00    +0.094 C 
ATOM     15  C   UNL     1      11.238   9.087  20.821  0.00  0.00    +0.085 C 
ENDROOT
BRANCH  10  16
ATOM      6  N   UNL     1      16.354   9.417  21.825  0.00  0.00    -0.270 N 
ATOM      7  N   UNL     1      17.631   8.999  21.807  0.00  0.00    -0.171 NA
ATOM     16  C   UNL     1      15.453   8.448  21.495  0.00  0.00    +0.044 A 
ATOM     18  C   UNL     1      16.191   7.319  21.241  0.00  0.00    +0.053 A 
ATOM     19  C   UNL     1      17.526   7.717  21.449  0.00  0.00    +0.093 A 
ATOM     20  C   UNL     1      16.066  10.788  22.175  0.00  0.00    +0.172 C 
BRANCH  19  21
ATOM     21  C   UNL     1      18.700   6.895  21.311  0.00  0.00    +0.006 A 
ATOM     23  C   UNL     1      19.758   7.032  22.210  0.00  0.00    +0.059 A 
ATOM     24  C   UNL     1      18.780   5.961  20.278  0.00  0.00    +0.014 A 
ATOM     25  C   UNL     1      20.896   6.237  22.076  0.00  0.00    +0.162 A 
ATOM     26  C   UNL     1      19.918   5.166  20.143  0.00  0.00    +0.050 A 
ATOM     28  C   UNL     1      20.976   5.303  21.042  0.00  0.00    +0.162 A 
BRANCH  25   3
ATOM      3  O   UNL     1      21.922   6.380  22.960  0.00  0.00    -0.491 OA
ATOM     33  C   UNL     1      22.925   7.342  22.637  0.00  0.00    +0.277 C 
ENDBRANCH  25   3
BRANCH  28   4
ATOM      4  O   UNL     1      22.082   4.521  20.900  0.00  0.00    -0.491 OA
ATOM     34  C   UNL     1      22.055   3.240  21.526  0.00  0.00    +0.277 C 
ENDBRANCH  28   4
ENDBRANCH  19  21
ENDBRANCH  10  16
BRANCH  11  17
ATOM     17  C   UNL     1      12.922   7.551  17.814  0.00  0.00    +0.252 C 
BRANCH  17   1
ATOM      1  O   UNL     1      12.076   8.155  16.856  0.00  0.00    -0.449 OA
BRANCH   1  22
ATOM      2  O   UNL     1      12.051   9.677  15.148  0.00  0.00    -0.226 OA
ATOM      8  N   UNL     1      13.831   9.552  16.664  0.00  0.00    -0.251 N 
ATOM     22  C   UNL     1      12.612   9.191  16.123  0.00  0.00    +0.405 C 
ATOM     36  H   UNL     1      14.133   9.027  17.482  0.00  0.00    +0.158 HD
BRANCH   8  27
ATOM     27  C   UNL     1      14.714  10.564  16.223  0.00  0.00    +0.036 A 
ATOM     29  C   UNL     1      15.335  10.453  14.979  0.00  0.00    +0.023 A 
ATOM     30  C   UNL     1      14.966  11.672  17.032  0.00  0.00    +0.023 A 
ATOM     31  C   UNL     1      16.207  11.451  14.544  0.00  0.00    +0.002 A 
ATOM     32  C   UNL     1      15.838  12.670  16.597  0.00  0.00    +0.002 A 
ATOM     35  C   UNL     1      16.459  12.559  15.353  0.00  0.00    +0.000 A 
ENDBRANCH   8  27
ENDBRANCH   1  22
ENDBRANCH  17   1
ENDBRANCH  11  17
TORSDOF 8
ENDMDL
MODEL 2
REMARK VINA RESULT:      -7.1     27.040     30.408
REMARK  Name = 25389544
REMARK  11 active torsions:
REMARK  status: ('A' for Active; 'I' for Inactive)
REMARK    1  A    between atoms: O_1  and  C_17
REMARK    2  A    between atoms: O_1  and  C_22
REMARK    3  A    between atoms: O_3  and  C_25
REMARK    4  A    between atoms: O_3  and  C_33
REMARK    5  A    between atoms: O_4  and  C_28
REMARK    6  A    between atoms: O_4  and  C_34
REMARK    7  A    between atoms: N_6  and  C_20
REMARK    8  A    between atoms: N_8  and  C_27
REMARK    9  A    between atoms: C_10  and  C_16
REMARK   10  A    between atoms: C_11  and  C_17
REMARK   11  A    between atoms: C_19  and  C_21
REMARK                            x       y       z     vdW  Elec       q    Type
REMARK                         _______ _______ _______ _____ _____    ______ ____
ROOT
ATOM      5  N   UNL     1      -6.602 -10.791  18.223  0.00  0.00    -0.296 NA
ATOM      9  C   UNL     1      -4.421 -12.094  17.656  0.00  0.00    +0.002 C 
ATOM     10  C   UNL     1      -4.433 -10.716  16.940  0.00  0.00    +0.055 C 
ATOM     11  C   UNL     1      -6.936 -12.171  17.786  0.00  0.00    +0.095 C 
ATOM     12  C   UNL     1      -5.679 -12.890  17.250  0.00  0.00    +0.026 C 
ATOM     13  C   UNL     1      -4.533 -11.810  19.170  0.00  0.00    +0.019 C 
ATOM     14  C   UNL     1      -5.839 -10.090  17.160  0.00  0.00    +0.094 C 
ATOM     15  C   UNL     1      -5.740 -10.890  19.425  0.00  0.00    +0.085 C 
ENDROOT
BRANCH  10  16
ATOM      6  N   UNL     1      -2.691 -10.601  15.098  0.00  0.00    -0.270 N 
ATOM      7  N   UNL     1      -2.518 -10.557  13.766  0.00  0.00    -0.171 NA
ATOM     16  C   UNL     1      -3.997 -10.659  15.482  0.00  0.00    +0.044 A 
ATOM     18  C   UNL     1      -4.731 -10.652  14.322  0.00  0.00    +0.053 A 
ATOM     19  C   UNL     1      -3.768 -10.588  13.297  0.00  0.00    +0.093 A 
ATOM     20  C   UNL     1      -1.532 -10.582  15.960  0.00  0.00    +0.172 C 
BRANCH  19  21
ATOM     21  C   UNL     1      -4.020 -10.555  11.880  0.00  0.00    +0.006 A 
ATOM     23  C   UNL     1      -4.701  -9.475  11.317  0.00  0.00    +0.059 A 
ATOM     24  C   UNL     1      -3.581 -11.602  11.070  0.00  0.00    +0.014 A 
ATOM     25  C   UNL     1      -4.946  -9.444   9.944  0.00  0.00    +0.162 A 
ATOM     26  C   UNL     1      -3.826 -11.571   9.697  0.00  0.00    +0.050 A 
ATOM     28  C   UNL     1      -4.509 -10.492   9.134  0.00  0.00    +0.162 A 
BRANCH  25   3
ATOM      3  O   UNL     1      -5.613  -8.386   9.406  0.00  0.00    -0.491 OA
ATOM     33  C   UNL     1      -7.038  -8.425   9.456  0.00  0.00    +0.277 C 
ENDBRANCH  25   3
BRANCH  28   4
ATOM      4  O   UNL     1      -4.742 -10.474   7.792  0.00  0.00    -0.491 OA
ATOM     34  C   UNL     1      -4.849 -11.736   7.136  0.00  0.00    +0.277 C 
ENDBRANCH  28   4
ENDBRANCH  19  21
ENDBRANCH  10  16
BRANCH  11  17
ATOM     17  C   UNL     1      -8.085 -12.202  16.775  0.00  0.00    +0.252 C 
BRANCH  17   1
ATOM      1  O   UNL     1      -9.145 -11.415  17.281  0.00  0.00    -0.449 OA
BRANCH   1  22
ATOM      2  O   UNL     1      -9.264 -10.284  15.296  0.00  0.00    -0.226 OA
ATOM      8  N   UNL     1     -10.491  -9.613  17.174  0.00  0.00    -0.251 N 
ATOM     22  C   UNL     1      -9.611 -10.408  16.464  0.00  0.00    +0.405 C 
ATOM     36  H   UNL     1     -10.655  -9.878  18.143  0.00  0.00    +0.158 HD
BRANCH   8  27
ATOM     27  C   UNL     1     -11.195  -8.474  16.720  0.00  0.00    +0.036 A 
ATOM     29  C   UNL     1     -12.538  -8.583  16.360  0.00  0.00    +0.023 A 
ATOM     30  C   UNL     1     -10.546  -7.243  16.630  0.00  0.00    +0.023 A 
ATOM     31  C   UNL     1     -13.233  -7.460  15.911  0.00  0.00    +0.002 A 
ATOM     32  C   UNL     1     -11.240  -6.120  16.181  0.00  0.00    +0.002 A 
ATOM     35  C   UNL     1     -12.584  -6.228  15.821  0.00  0.00    +0.000 A 
ENDBRANCH   8  27
ENDBRANCH   1  22
ENDBRANCH  17   1
ENDBRANCH  11  17
TORSDOF 8
ENDMDL
MODEL 3
REMARK VINA RESULT:      -7.0     27.919     30.718
REMARK  Name = 25389544
REMARK  11 active torsions:
REMARK  status: ('A' for Active; 'I' for Inactive)
REMARK    1  A    between atoms: O_1  and  C_17
REMARK    2  A    between atoms: O_1  and  C_22
REMARK    3  A    between atoms: O_3  and  C_25
REMARK    4  A    between atoms: O_3  and  C_33
REMARK    5  A    between atoms: O_4  and  C_28
REMARK    6  A    between atoms: O_4  and  C_34
REMARK    7  A    between atoms: N_6  and  C_20
REMARK    8  A    between atoms: N_8  and  C_27
REMARK    9  A    between atoms: C_10  and  C_16
REMARK   10  A    between atoms: C_11  and  C_17
REMARK   11  A    between atoms: C_19  and  C_21
REMARK                            x       y       z     vdW  Elec       q    Type
REMARK                         _______ _______ _______ _____ _____    ______ ____
ROOT
ATOM      5  N   UNL     1      -3.926  -9.023  10.277  0.00  0.00    -0.296 NA
ATOM      9  C   UNL     1      -5.847 -10.765  10.036  0.00  0.00    +0.002 C 
ATOM     10  C   UNL     1      -6.341  -9.515  10.813  0.00  0.00    +0.055 C 
ATOM     11  C   UNL     1      -3.449 -10.366  10.700  0.00  0.00    +0.095 C 
ATOM     12  C   UNL     1      -4.624 -11.366  10.762  0.00  0.00    +0.026 C 
ATOM     13  C   UNL     1      -5.357 -10.268   8.658  0.00  0.00    +0.019 C 
ATOM     14  C   UNL     1      -5.099  -8.620  11.092  0.00  0.00    +0.094 C 
ATOM     15  C   UNL     1      -4.355  -9.118   8.861  0.00  0.00    +0.085 C 
ENDROOT
BRANCH  10  16
ATOM      6  N   UNL     1      -8.549  -9.780  12.036  0.00  0.00    -0.270 N 
ATOM      7  N   UNL     1      -9.107  -9.978  13.242  0.00  0.00    -0.171 NA
ATOM     16  C   UNL     1      -7.187  -9.731  12.060  0.00  0.00    +0.044 A 
ATOM     18  C   UNL     1      -6.829  -9.909  13.374  0.00  0.00    +0.053 A 
ATOM     19  C   UNL     1      -8.052 -10.056  14.055  0.00  0.00    +0.093 A 
ATOM     20  C   UNL     1      -9.402  -9.641  10.878  0.00  0.00    +0.172 C 
BRANCH  19  21
ATOM     21  C   UNL     1      -8.230 -10.268  15.469  0.00  0.00    +0.006 A 
ATOM     23  C   UNL     1      -8.273 -11.566  15.980  0.00  0.00    +0.059 A 
ATOM     24  C   UNL     1      -8.358  -9.176  16.326  0.00  0.00    +0.014 A 
ATOM     25  C   UNL     1      -8.446 -11.771  17.349  0.00  0.00    +0.162 A 
ATOM     26  C   UNL     1      -8.531  -9.381  17.695  0.00  0.00    +0.050 A 
ATOM     28  C   UNL     1      -8.575 -10.679  18.206  0.00  0.00    +0.162 A 
BRANCH  25   3
ATOM      3  O   UNL     1      -8.487 -13.042  17.836  0.00  0.00    -0.491 OA
ATOM     33  C   UNL     1      -7.940 -14.070  17.012  0.00  0.00    +0.277 C 
ENDBRANCH  25   3
BRANCH  28   4
ATOM      4  O   UNL     1      -8.745 -10.866  19.545  0.00  0.00    -0.491 OA
ATOM     34  C   UNL     1     -10.060 -10.677  20.063  0.00  0.00    +0.277 C 
ENDBRANCH  28   4
ENDBRANCH  19  21
ENDBRANCH  10  16
BRANCH  11  17
ATOM     17  C   UNL     1      -2.670 -10.321  12.016  0.00  0.00    +0.252 C 
BRANCH  17   1
ATOM      1  O   UNL     1      -3.180 -11.324  12.872  0.00  0.00    -0.449 OA
BRANCH   1  22
ATOM      2  O   UNL     1      -2.094 -10.555  14.732  0.00  0.00    -0.226 OA
ATOM      8  N   UNL     1      -4.198 -11.572  14.864  0.00  0.00    -0.251 N 
ATOM     22  C   UNL     1      -3.068 -11.098  14.226  0.00  0.00    +0.405 C 
ATOM     36  H   UNL     1      -4.907 -11.995  14.269  0.00  0.00    +0.158 HD
BRANCH   8  27
ATOM     27  C   UNL     1      -4.494 -11.543  16.246  0.00  0.00    +0.036 A 
ATOM     29  C   UNL     1      -4.516 -12.730  16.979  0.00  0.00    +0.023 A 
ATOM     30  C   UNL     1      -4.766 -10.329  16.876  0.00  0.00    +0.023 A 
ATOM     31  C   UNL     1      -4.809 -12.702  18.343  0.00  0.00    +0.002 A 
ATOM     32  C   UNL     1      -5.059 -10.300  18.240  0.00  0.00    +0.002 A 
ATOM     35  C   UNL     1      -5.081 -11.487  18.973  0.00  0.00    +0.000 A 
ENDBRANCH   8  27
ENDBRANCH   1  22
ENDBRANCH  17   1
ENDBRANCH  11  17
TORSDOF 8
ENDMDL
MODEL 4
REMARK VINA RESULT:      -6.9      4.094      7.385
REMARK  Name = 25389544
REMARK  11 active torsions:
REMARK  status: ('A' for Active; 'I' for Inactive)
REMARK    1  A    between atoms: O_1  and  C_17
REMARK    2  A    between atoms: O_1  and  C_22
REMARK    3  A    between atoms: O_3  and  C_25
REMARK    4  A    between atoms: O_3  and  C_33
REMARK    5  A    between atoms: O_4  and  C_28
REMARK    6  A    between atoms: O_4  and  C_34
REMARK    7  A    between atoms: N_6  and  C_20
REMARK    8  A    between atoms: N_8  and  C_27
REMARK    9  A    between atoms: C_10  and  C_16
REMARK   10  A    between atoms: C_11  and  C_17
REMARK   11  A    between atoms: C_19  and  C_21
REMARK                            x       y       z     vdW  Elec       q    Type
REMARK                         _______ _______ _______ _____ _____    ______ ____
ROOT
ATOM      5  N   UNL     1      10.531  11.928  23.253  0.00  0.00    -0.296 NA
ATOM      9  C   UNL     1      13.116  12.120  23.497  0.00  0.00    +0.002 C 
ATOM     10  C   UNL     1      12.618  12.973  22.298  0.00  0.00    +0.055 C 
ATOM     11  C   UNL     1      11.132  10.573  23.362  0.00  0.00    +0.095 C 
ATOM     12  C   UNL     1      12.672  10.655  23.299  0.00  0.00    +0.026 C 
ATOM     13  C   UNL     1      12.389  12.649  24.752  0.00  0.00    +0.019 C 
ATOM     14  C   UNL     1      11.110  12.650  22.093  0.00  0.00    +0.094 C 
ATOM     15  C   UNL     1      10.873  12.678  24.484  0.00  0.00    +0.085 C 
ENDROOT
BRANCH  10  16
ATOM      6  N   UNL     1      14.547  13.622  20.781  0.00  0.00    -0.270 N 
ATOM      7  N   UNL     1      15.087  13.428  19.567  0.00  0.00    -0.171 NA
ATOM     16  C   UNL     1      13.404  12.911  20.995  0.00  0.00    +0.044 A 
ATOM     18  C   UNL     1      13.180  12.203  19.840  0.00  0.00    +0.053 A 
ATOM     19  C   UNL     1      14.249  12.561  18.996  0.00  0.00    +0.093 A 
ATOM     20  C   UNL     1      15.193  14.525  21.706  0.00  0.00    +0.172 C 
BRANCH  19  21
ATOM     21  C   UNL     1      14.481  12.090  17.655  0.00  0.00    +0.006 A 
ATOM     23  C   UNL     1      13.736  11.024  17.150  0.00  0.00    +0.059 A 
ATOM     24  C   UNL     1      15.451  12.701  16.860  0.00  0.00    +0.014 A 
ATOM     25  C   UNL     1      13.962  10.568  15.852  0.00  0.00    +0.162 A 
ATOM     26  C   UNL     1      15.677  12.244  15.562  0.00  0.00    +0.050 A 
ATOM     28  C   UNL     1      14.933  11.178  15.057  0.00  0.00    +0.162 A 
BRANCH  25   3
ATOM      3  O   UNL     1      13.228   9.526  15.370  0.00  0.00    -0.491 OA
ATOM     33  C   UNL     1      12.052   9.172  16.095  0.00  0.00    +0.277 C 
ENDBRANCH  25   3
BRANCH  28   4
ATOM      4  O   UNL     1      15.164  10.741  13.788  0.00  0.00    -0.491 OA
ATOM     34  C   UNL     1      15.767  11.665  12.885  0.00  0.00    +0.277 C 
ENDBRANCH  28   4
ENDBRANCH  19  21
ENDBRANCH  10  16
BRANCH  11  17
ATOM     17  C   UNL     1      10.570   9.600  22.324  0.00  0.00    +0.252 C 
BRANCH  17   1
ATOM      1  O   UNL     1      10.963   8.289  22.682  0.00  0.00    -0.449 OA
BRANCH   1  22
ATOM      2  O   UNL     1      11.059   6.587  21.157  0.00  0.00    -0.226 OA
ATOM      8  N   UNL     1      12.855   8.053  21.483  0.00  0.00    -0.251 N 
ATOM     22  C   UNL     1      11.590   7.544  21.707  0.00  0.00    +0.405 C 
ATOM     36  H   UNL     1      13.120   8.861  22.043  0.00  0.00    +0.158 HD
BRANCH   8  27
ATOM     27  C   UNL     1      13.830   7.591  20.571  0.00  0.00    +0.036 A 
ATOM     29  C   UNL     1      14.923   6.857  21.032  0.00  0.00    +0.023 A 
ATOM     30  C   UNL     1      13.701   7.870  19.211  0.00  0.00    +0.023 A 
ATOM     31  C   UNL     1      15.887   6.402  20.132  0.00  0.00    +0.002 A 
ATOM     32  C   UNL     1      14.665   7.414  18.310  0.00  0.00    +0.002 A 
ATOM     35  C   UNL     1      15.758   6.681  18.772  0.00  0.00    +0.000 A 
ENDBRANCH   8  27
ENDBRANCH   1  22
ENDBRANCH  17   1
ENDBRANCH  11  17
TORSDOF 8
ENDMDL
MODEL 5
REMARK VINA RESULT:      -6.8     13.251     17.702
REMARK  Name = 25389544
REMARK  11 active torsions:
REMARK  status: ('A' for Active; 'I' for Inactive)
REMARK    1  A    between atoms: O_1  and  C_17
REMARK    2  A    between atoms: O_1  and  C_22
REMARK    3  A    between atoms: O_3  and  C_25
REMARK    4  A    between atoms: O_3  and  C_33
REMARK    5  A    between atoms: O_4  and  C_28
REMARK    6  A    between atoms: O_4  and  C_34
REMARK    7  A    between atoms: N_6  and  C_20
REMARK    8  A    between atoms: N_8  and  C_27
REMARK    9  A    between atoms: C_10  and  C_16
REMARK   10  A    between atoms: C_11  and  C_17
REMARK   11  A    between atoms: C_19  and  C_21
REMARK                            x       y       z     vdW  Elec       q    Type
REMARK                         _______ _______ _______ _____ _____    ______ ____
ROOT
ATOM      5  N   UNL     1      12.631   9.142   6.949  0.00  0.00    -0.296 NA
ATOM      9  C   UNL     1      10.480   8.912   5.500  0.00  0.00    +0.002 C 
ATOM     10  C   UNL     1      10.994   7.513   5.935  0.00  0.00    +0.055 C 
ATOM     11  C   UNL     1      12.772   9.938   5.703  0.00  0.00    +0.095 C 
ATOM     12  C   UNL     1      11.600   9.652   4.739  0.00  0.00    +0.026 C 
ATOM     13  C   UNL     1      10.208   9.709   6.794  0.00  0.00    +0.019 C 
ATOM     14  C   UNL     1      12.377   7.717   6.617  0.00  0.00    +0.094 C 
ATOM     15  C   UNL     1      11.458   9.661   7.691  0.00  0.00    +0.085 C 
ENDROOT
BRANCH  10  16
ATOM      6  N   UNL     1      10.476   5.170   5.108  0.00  0.00    -0.270 N 
ATOM      7  N   UNL     1      10.607   4.331   4.067  0.00  0.00    -0.171 NA
ATOM     16  C   UNL     1      11.022   6.401   4.896  0.00  0.00    +0.044 A 
ATOM     18  C   UNL     1      11.548   6.365   3.628  0.00  0.00    +0.053 A 
ATOM     19  C   UNL     1      11.262   5.066   3.166  0.00  0.00    +0.093 A 
ATOM     20  C   UNL     1       9.803   4.714   6.302  0.00  0.00    +0.172 C 
BRANCH  19  21
ATOM     21  C   UNL     1      11.605   4.515   1.880  0.00  0.00    +0.006 A 
ATOM     23  C   UNL     1      10.719   4.636   0.809  0.00  0.00    +0.059 A 
ATOM     24  C   UNL     1      12.825   3.862   1.705  0.00  0.00    +0.014 A 
ATOM     25  C   UNL     1      11.052   4.102  -0.435  0.00  0.00    +0.162 A 
ATOM     26  C   UNL     1      13.158   3.327   0.460  0.00  0.00    +0.050 A 
ATOM     28  C   UNL     1      12.271   3.448  -0.610  0.00  0.00    +0.162 A 
BRANCH  25   3
ATOM      3  O   UNL     1      10.178   4.226  -1.473  0.00  0.00    -0.491 OA
ATOM     33  C   UNL     1      10.012   5.529  -2.029  0.00  0.00    +0.277 C 
ENDBRANCH  25   3
BRANCH  28   4
ATOM      4  O   UNL     1      12.607   2.921  -1.820  0.00  0.00    -0.491 OA
ATOM     34  C   UNL     1      13.353   3.754  -2.705  0.00  0.00    +0.277 C 
ENDBRANCH  28   4
ENDBRANCH  19  21
ENDBRANCH  10  16
BRANCH  11  17
ATOM     17  C   UNL     1      14.130   9.731   5.027  0.00  0.00    +0.252 C 
BRANCH  17   1
ATOM      1  O   UNL     1      15.142   9.880   6.003  0.00  0.00    -0.449 OA
BRANCH   1  22
ATOM      2  O   UNL     1      15.820   7.730   6.392  0.00  0.00    -0.226 OA
ATOM      8  N   UNL     1      17.323   9.397   5.727  0.00  0.00    -0.251 N 
ATOM     22  C   UNL     1      16.088   8.882   6.071  0.00  0.00    +0.405 C 
ATOM     36  H   UNL     1      17.347  10.386   5.488  0.00  0.00    +0.158 HD
BRANCH   8  27
ATOM     27  C   UNL     1      18.562   8.720   5.665  0.00  0.00    +0.036 A 
ATOM     29  C   UNL     1      18.925   8.034   4.506  0.00  0.00    +0.023 A 
ATOM     30  C   UNL     1      19.421   8.735   6.764  0.00  0.00    +0.023 A 
ATOM     31  C   UNL     1      20.147   7.365   4.445  0.00  0.00    +0.002 A 
ATOM     32  C   UNL     1      20.643   8.066   6.704  0.00  0.00    +0.002 A 
ATOM     35  C   UNL     1      21.006   7.380   5.545  0.00  0.00    +0.000 A 
ENDBRANCH   8  27
ENDBRANCH   1  22
ENDBRANCH  17   1
ENDBRANCH  11  17
TORSDOF 8
ENDMDL
MODEL 6
REMARK VINA RESULT:      -6.8     28.397     31.282
REMARK  Name = 25389544
REMARK  11 active torsions:
REMARK  status: ('A' for Active; 'I' for Inactive)
REMARK    1  A    between atoms: O_1  and  C_17
REMARK    2  A    between atoms: O_1  and  C_22
REMARK    3  A    between atoms: O_3  and  C_25
REMARK    4  A    between atoms: O_3  and  C_33
REMARK    5  A    between atoms: O_4  and  C_28
REMARK    6  A    between atoms: O_4  and  C_34
REMARK    7  A    between atoms: N_6  and  C_20
REMARK    8  A    between atoms: N_8  and  C_27
REMARK    9  A    between atoms: C_10  and  C_16
REMARK   10  A    between atoms: C_11  and  C_17
REMARK   11  A    between atoms: C_19  and  C_21
REMARK                            x       y       z     vdW  Elec       q    Type
REMARK                         _______ _______ _______ _____ _____    ______ ____
ROOT
ATOM      5  N   UNL     1      -5.406 -12.516  17.020  0.00  0.00    -0.296 NA
ATOM      9  C   UNL     1      -5.889 -10.683  18.805  0.00  0.00    +0.002 C 
ATOM     10  C   UNL     1      -7.203 -11.399  18.392  0.00  0.00    +0.055 C 
ATOM     11  C   UNL     1      -4.771 -11.235  16.615  0.00  0.00    +0.095 C 
ATOM     12  C   UNL     1      -5.216 -10.089  17.549  0.00  0.00    +0.026 C 
ATOM     13  C   UNL     1      -4.942 -11.772  19.354  0.00  0.00    +0.019 C 
ATOM     14  C   UNL     1      -6.869 -12.329  17.190  0.00  0.00    +0.094 C 
ATOM     15  C   UNL     1      -4.834 -12.914  18.328  0.00  0.00    +0.085 C 
ENDROOT
BRANCH  10  16
ATOM      6  N   UNL     1      -9.559 -10.608  18.908  0.00  0.00    -0.270 N 
ATOM      7  N   UNL     1     -10.536  -9.775  18.514  0.00  0.00    -0.171 NA
ATOM     16  C   UNL     1      -8.438 -10.546  18.135  0.00  0.00    +0.044 A 
ATOM     18  C   UNL     1      -8.700  -9.608  17.167  0.00  0.00    +0.053 A 
ATOM     19  C   UNL     1     -10.006  -9.166  17.451  0.00  0.00    +0.093 A 
ATOM     20  C   UNL     1      -9.774 -11.455  20.058  0.00  0.00    +0.172 C 
BRANCH  19  21
ATOM     21  C   UNL     1     -10.757  -8.176  16.723  0.00  0.00    +0.006 A 
ATOM     23  C   UNL     1     -12.150  -8.240  16.689  0.00  0.00    +0.059 A 
ATOM     24  C   UNL     1     -10.090  -7.150  16.053  0.00  0.00    +0.014 A 
ATOM     25  C   UNL     1     -12.876  -7.281  15.983  0.00  0.00    +0.162 A 
ATOM     26  C   UNL     1     -10.816  -6.190  15.347  0.00  0.00    +0.050 A 
ATOM     28  C   UNL     1     -12.209  -6.256  15.312  0.00  0.00    +0.162 A 
BRANCH  25   3
ATOM      3  O   UNL     1     -14.236  -7.355  15.957  0.00  0.00    -0.491 OA
ATOM     33  C   UNL     1     -14.811  -8.422  15.205  0.00  0.00    +0.277 C 
ENDBRANCH  25   3
BRANCH  28   4
ATOM      4  O   UNL     1     -12.907  -5.314  14.619  0.00  0.00    -0.491 OA
ATOM     34  C   UNL     1     -12.306  -4.809  13.428  0.00  0.00    +0.277 C 
ENDBRANCH  28   4
ENDBRANCH  19  21
ENDBRANCH  10  16
BRANCH  11  17
ATOM     17  C   UNL     1      -5.020 -10.899  15.143  0.00  0.00    +0.252 C 
BRANCH  17   1
ATOM      1  O   UNL     1      -3.774 -10.633  14.530  0.00  0.00    -0.449 OA
BRANCH   1  22
ATOM      2  O   UNL     1      -2.988 -11.883  12.782  0.00  0.00    -0.226 OA
ATOM      8  N   UNL     1      -4.415 -10.057  12.450  0.00  0.00    -0.251 N 
ATOM     22  C   UNL     1      -3.663 -10.947  13.193  0.00  0.00    +0.405 C 
ATOM     36  H   UNL     1      -4.912  -9.340  12.975  0.00  0.00    +0.158 HD
BRANCH   8  27
ATOM     27  C   UNL     1      -4.581 -10.017  11.047  0.00  0.00    +0.036 A 
ATOM     29  C   UNL     1      -4.010  -8.981  10.307  0.00  0.00    +0.023 A 
ATOM     30  C   UNL     1      -5.316 -11.010  10.402  0.00  0.00    +0.023 A 
ATOM     31  C   UNL     1      -4.174  -8.940   8.922  0.00  0.00    +0.002 A 
ATOM     32  C   UNL     1      -5.481 -10.971   9.018  0.00  0.00    +0.002 A 
ATOM     35  C   UNL     1      -4.910  -9.935   8.278  0.00  0.00    +0.000 A 
ENDBRANCH   8  27
ENDBRANCH   1  22
ENDBRANCH  17   1
ENDBRANCH  11  17
TORSDOF 8
ENDMDL
MODEL 7
REMARK VINA RESULT:      -6.7     23.913     28.127
REMARK  Name = 25389544
REMARK  11 active torsions:
REMARK  status: ('A' for Active; 'I' for Inactive)
REMARK    1  A    between atoms: O_1  and  C_17
REMARK    2  A    between atoms: O_1  and  C_22
REMARK    3  A    between atoms: O_3  and  C_25
REMARK    4  A    between atoms: O_3  and  C_33
REMARK    5  A    between atoms: O_4  and  C_28
REMARK    6  A    between atoms: O_4  and  C_34
REMARK    7  A    between atoms: N_6  and  C_20
REMARK    8  A    between atoms: N_8  and  C_27
REMARK    9  A    between atoms: C_10  and  C_16
REMARK   10  A    between atoms: C_11  and  C_17
REMARK   11  A    between atoms: C_19  and  C_21
REMARK                            x       y       z     vdW  Elec       q    Type
REMARK                         _______ _______ _______ _____ _____    ______ ____
ROOT
ATOM      5  N   UNL     1       2.246   4.761  -6.780  0.00  0.00    -0.296 NA
ATOM      9  C   UNL     1       2.526   6.466  -4.831  0.00  0.00    +0.002 C 
ATOM     10  C   UNL     1       3.797   6.446  -5.723  0.00  0.00    +0.055 C 
ATOM     11  C   UNL     1       1.895   4.116  -5.488  0.00  0.00    +0.095 C 
ATOM     12  C   UNL     1       2.251   5.041  -4.304  0.00  0.00    +0.026 C 
ATOM     13  C   UNL     1       1.344   6.845  -5.749  0.00  0.00    +0.019 C 
ATOM     14  C   UNL     1       3.639   5.273  -6.732  0.00  0.00    +0.094 C 
ATOM     15  C   UNL     1       1.335   5.914  -6.975  0.00  0.00    +0.085 C 
ENDROOT
BRANCH  10  16
ATOM      6  N   UNL     1       5.787   7.573  -4.622  0.00  0.00    -0.270 N 
ATOM      7  N   UNL     1       6.978   7.350  -4.041  0.00  0.00    -0.171 NA
ATOM     16  C   UNL     1       5.157   6.438  -5.037  0.00  0.00    +0.044 A 
ATOM     18  C   UNL     1       5.993   5.400  -4.705  0.00  0.00    +0.053 A 
ATOM     19  C   UNL     1       7.098   6.022  -4.094  0.00  0.00    +0.093 A 
ATOM     20  C   UNL     1       5.307   8.929  -4.751  0.00  0.00    +0.172 C 
BRANCH  19  21
ATOM     21  C   UNL     1       8.267   5.370  -3.563  0.00  0.00    +0.006 A 
ATOM     23  C   UNL     1       8.860   5.845  -2.393  0.00  0.00    +0.059 A 
ATOM     24  C   UNL     1       8.805   4.262  -4.217  0.00  0.00    +0.014 A 
ATOM     25  C   UNL     1       9.993   5.213  -1.879  0.00  0.00    +0.162 A 
ATOM     26  C   UNL     1       9.938   3.630  -3.703  0.00  0.00    +0.050 A 
ATOM     28  C   UNL     1      10.531   4.106  -2.534  0.00  0.00    +0.162 A 
BRANCH  25   3
ATOM      3  O   UNL     1      10.564   5.687  -0.736  0.00  0.00    -0.491 OA
ATOM     33  C   UNL     1       9.997   5.254   0.499  0.00  0.00    +0.277 C 
ENDBRANCH  25   3
BRANCH  28   4
ATOM      4  O   UNL     1      11.638   3.481  -2.043  0.00  0.00    -0.491 OA
ATOM     34  C   UNL     1      11.866   2.139  -2.468  0.00  0.00    +0.277 C 
ENDBRANCH  28   4
ENDBRANCH  19  21
ENDBRANCH  10  16
BRANCH  11  17
ATOM     17  C   UNL     1       2.526   2.730  -5.337  0.00  0.00    +0.252 C 
BRANCH  17   1
ATOM      1  O   UNL     1       1.962   1.875  -6.312  0.00  0.00    -0.449 OA
BRANCH   1  22
ATOM      2  O   UNL     1       0.396   1.125  -4.823  0.00  0.00    -0.226 OA
ATOM      8  N   UNL     1       0.141   0.835  -7.132  0.00  0.00    -0.251 N 
ATOM     22  C   UNL     1       0.777   1.255  -5.979  0.00  0.00    +0.405 C 
ATOM     36  H   UNL     1       0.618   1.036  -8.008  0.00  0.00    +0.158 HD
BRANCH   8  27
ATOM     27  C   UNL     1      -1.094   0.157  -7.246  0.00  0.00    +0.036 A 
ATOM     29  C   UNL     1      -1.260  -1.095  -6.653  0.00  0.00    +0.023 A 
ATOM     30  C   UNL     1      -2.146   0.738  -7.954  0.00  0.00    +0.023 A 
ATOM     31  C   UNL     1      -2.478  -1.764  -6.767  0.00  0.00    +0.002 A 
ATOM     32  C   UNL     1      -3.365   0.069  -8.068  0.00  0.00    +0.002 A 
ATOM     35  C   UNL     1      -3.530  -1.183  -7.475  0.00  0.00    +0.000 A 
ENDBRANCH   8  27
ENDBRANCH   1  22
ENDBRANCH  17   1
ENDBRANCH  11  17
TORSDOF 8
ENDMDL
MODEL 8
REMARK VINA RESULT:      -6.5     22.014     25.072
REMARK  Name = 25389544
REMARK  11 active torsions:
REMARK  status: ('A' for Active; 'I' for Inactive)
REMARK    1  A    between atoms: O_1  and  C_17
REMARK    2  A    between atoms: O_1  and  C_22
REMARK    3  A    between atoms: O_3  and  C_25
REMARK    4  A    between atoms: O_3  and  C_33
REMARK    5  A    between atoms: O_4  and  C_28
REMARK    6  A    between atoms: O_4  and  C_34
REMARK    7  A    between atoms: N_6  and  C_20
REMARK    8  A    between atoms: N_8  and  C_27
REMARK    9  A    between atoms: C_10  and  C_16
REMARK   10  A    between atoms: C_11  and  C_17
REMARK   11  A    between atoms: C_19  and  C_21
REMARK                            x       y       z     vdW  Elec       q    Type
REMARK                         _______ _______ _______ _____ _____    ______ ____
ROOT
ATOM      5  N   UNL     1       7.483 -10.051  32.990  0.00  0.00    -0.296 NA
ATOM      9  C   UNL     1       6.848  -7.655  32.191  0.00  0.00    +0.002 C 
ATOM     10  C   UNL     1       8.130  -7.615  33.067  0.00  0.00    +0.055 C 
ATOM     11  C   UNL     1       6.047  -9.787  33.269  0.00  0.00    +0.095 C 
ATOM     12  C   UNL     1       5.703  -8.307  32.994  0.00  0.00    +0.026 C 
ATOM     13  C   UNL     1       7.153  -8.588  30.998  0.00  0.00    +0.019 C 
ATOM     14  C   UNL     1       8.328  -9.036  33.668  0.00  0.00    +0.094 C 
ATOM     15  C   UNL     1       7.692  -9.928  31.528  0.00  0.00    +0.085 C 
ENDROOT
BRANCH  10  16
ATOM      6  N   UNL     1       9.370  -5.767  34.287  0.00  0.00    -0.270 N 
ATOM      7  N   UNL     1       9.271  -4.857  35.270  0.00  0.00    -0.171 NA
ATOM     16  C   UNL     1       8.247  -6.522  34.120  0.00  0.00    +0.044 A 
ATOM     18  C   UNL     1       7.351  -6.076  35.061  0.00  0.00    +0.053 A 
ATOM     19  C   UNL     1       8.036  -5.050  35.740  0.00  0.00    +0.093 A 
ATOM     20  C   UNL     1      10.598  -5.859  33.532  0.00  0.00    +0.172 C 
BRANCH  19  21
ATOM     21  C   UNL     1       7.532  -4.254  36.829  0.00  0.00    +0.006 A 
ATOM     23  C   UNL     1       8.359  -3.944  37.909  0.00  0.00    +0.059 A 
ATOM     24  C   UNL     1       6.217  -3.790  36.802  0.00  0.00    +0.014 A 
ATOM     25  C   UNL     1       7.871  -3.173  38.963  0.00  0.00    +0.162 A 
ATOM     26  C   UNL     1       5.728  -3.019  37.857  0.00  0.00    +0.050 A 
ATOM     28  C   UNL     1       6.555  -2.711  38.938  0.00  0.00    +0.162 A 
BRANCH  25   3
ATOM      3  O   UNL     1       8.687  -2.879  40.013  0.00  0.00    -0.491 OA
ATOM     33  C   UNL     1       8.958  -3.930  40.938  0.00  0.00    +0.277 C 
ENDBRANCH  25   3
BRANCH  28   4
ATOM      4  O   UNL     1       6.065  -1.958  39.962  0.00  0.00    -0.491 OA
ATOM     34  C   UNL     1       4.706  -2.176  40.334  0.00  0.00    +0.277 C 
ENDBRANCH  28   4
ENDBRANCH  19  21
ENDBRANCH  10  16
BRANCH  11  17
ATOM     17  C   UNL     1       5.638 -10.214  34.681  0.00  0.00    +0.252 C 
BRANCH  17   1
ATOM      1  O   UNL     1       4.524  -9.438  35.076  0.00  0.00    -0.449 OA
BRANCH   1  22
ATOM      2  O   UNL     1       3.869  -9.871  37.225  0.00  0.00    -0.226 OA
ATOM      8  N   UNL     1       5.037  -7.922  36.660  0.00  0.00    -0.251 N 
ATOM     22  C   UNL     1       4.425  -9.137  36.417  0.00  0.00    +0.405 C 
ATOM     36  H   UNL     1       5.448  -7.457  35.854  0.00  0.00    +0.158 HD
BRANCH   8  27
ATOM     27  C   UNL     1       5.164  -7.243  37.893  0.00  0.00    +0.036 A 
ATOM     29  C   UNL     1       4.076  -6.550  38.422  0.00  0.00    +0.023 A 
ATOM     30  C   UNL     1       6.378  -7.263  38.579  0.00  0.00    +0.023 A 
ATOM     31  C   UNL     1       4.201  -5.878  39.638  0.00  0.00    +0.002 A 
ATOM     32  C   UNL     1       6.504  -6.592  39.795  0.00  0.00    +0.002 A 
ATOM     35  C   UNL     1       5.415  -5.898  40.324  0.00  0.00    +0.000 A 
ENDBRANCH   8  27
ENDBRANCH   1  22
ENDBRANCH  17   1
ENDBRANCH  11  17
TORSDOF 8
ENDMDL
MODEL 9
REMARK VINA RESULT:      -6.5     28.110     31.028
REMARK  Name = 25389544
REMARK  11 active torsions:
REMARK  status: ('A' for Active; 'I' for Inactive)
REMARK    1  A    between atoms: O_1  and  C_17
REMARK    2  A    between atoms: O_1  and  C_22
REMARK    3  A    between atoms: O_3  and  C_25
REMARK    4  A    between atoms: O_3  and  C_33
REMARK    5  A    between atoms: O_4  and  C_28
REMARK    6  A    between atoms: O_4  and  C_34
REMARK    7  A    between atoms: N_6  and  C_20
REMARK    8  A    between atoms: N_8  and  C_27
REMARK    9  A    between atoms: C_10  and  C_16
REMARK   10  A    between atoms: C_11  and  C_17
REMARK   11  A    between atoms: C_19  and  C_21
REMARK                            x       y       z     vdW  Elec       q    Type
REMARK                         _______ _______ _______ _____ _____    ______ ____
ROOT
ATOM      5  N   UNL     1      -3.938  -9.073  10.522  0.00  0.00    -0.296 NA
ATOM      9  C   UNL     1      -5.855 -10.745   9.964  0.00  0.00    +0.002 C 
ATOM     10  C   UNL     1      -6.432  -9.442  10.582  0.00  0.00    +0.055 C 
ATOM     11  C   UNL     1      -3.620 -10.414  11.079  0.00  0.00    +0.095 C 
ATOM     12  C   UNL     1      -4.831 -11.362  10.939  0.00  0.00    +0.026 C 
ATOM     13  C   UNL     1      -5.079 -10.329   8.695  0.00  0.00    +0.019 C 
ATOM     14  C   UNL     1      -5.228  -8.587  11.071  0.00  0.00    +0.094 C 
ATOM     15  C   UNL     1      -4.082  -9.213   9.053  0.00  0.00    +0.085 C 
ENDROOT
BRANCH  10  16
ATOM      6  N   UNL     1      -8.843  -9.681  11.339  0.00  0.00    -0.270 N 
ATOM      7  N   UNL     1      -9.639  -9.781  12.417  0.00  0.00    -0.171 NA
ATOM     16  C   UNL     1      -7.518  -9.568  11.642  0.00  0.00    +0.044 A 
ATOM     18  C   UNL     1      -7.442  -9.595  13.012  0.00  0.00    +0.053 A 
ATOM     19  C   UNL     1      -8.778  -9.728  13.436  0.00  0.00    +0.093 A 
ATOM     20  C   UNL     1      -9.434  -9.699  10.022  0.00  0.00    +0.172 C 
BRANCH  19  21
ATOM     21  C   UNL     1      -9.246  -9.803  14.796  0.00  0.00    +0.006 A 
ATOM     23  C   UNL     1      -9.859  -8.698  15.386  0.00  0.00    +0.059 A 
ATOM     24  C   UNL     1      -9.087 -10.983  15.523  0.00  0.00    +0.014 A 
ATOM     25  C   UNL     1     -10.311  -8.772  16.704  0.00  0.00    +0.162 A 
ATOM     26  C   UNL     1      -9.539 -11.057  16.840  0.00  0.00    +0.050 A 
ATOM     28  C   UNL     1     -10.151  -9.951  17.431  0.00  0.00    +0.162 A 
BRANCH  25   3
ATOM      3  O   UNL     1     -10.908  -7.685  17.269  0.00  0.00    -0.491 OA
ATOM     33  C   UNL     1     -11.071  -6.533  16.444  0.00  0.00    +0.277 C 
ENDBRANCH  25   3
BRANCH  28   4
ATOM      4  O   UNL     1     -10.588 -10.035  18.718  0.00  0.00    -0.491 OA
ATOM     34  C   UNL     1      -9.756 -10.737  19.640  0.00  0.00    +0.277 C 
ENDBRANCH  28   4
ENDBRANCH  19  21
ENDBRANCH  10  16
BRANCH  11  17
ATOM     17  C   UNL     1      -3.115 -10.343  12.522  0.00  0.00    +0.252 C 
BRANCH  17   1
ATOM      1  O   UNL     1      -4.145 -10.797  13.378  0.00  0.00    -0.449 OA
BRANCH   1  22
ATOM      2  O   UNL     1      -2.747 -10.606  15.178  0.00  0.00    -0.226 OA
ATOM      8  N   UNL     1      -5.029 -11.065  15.431  0.00  0.00    -0.251 N 
ATOM     22  C   UNL     1      -3.869 -10.805  14.727  0.00  0.00    +0.405 C 
ATOM     36  H   UNL     1      -5.870 -11.204  14.875  0.00  0.00    +0.158 HD
BRANCH   8  27
ATOM     27  C   UNL     1      -5.194 -11.163  16.831  0.00  0.00    +0.036 A 
ATOM     29  C   UNL     1      -4.513 -12.148  17.546  0.00  0.00    +0.023 A 
ATOM     30  C   UNL     1      -6.040 -10.276  17.497  0.00  0.00    +0.023 A 
ATOM     31  C   UNL     1      -4.677 -12.246  18.928  0.00  0.00    +0.002 A 
ATOM     32  C   UNL     1      -6.204 -10.373  18.879  0.00  0.00    +0.002 A 
ATOM     35  C   UNL     1      -5.523 -11.359  19.595  0.00  0.00    +0.000 A 
ENDBRANCH   8  27
ENDBRANCH   1  22
ENDBRANCH  17   1
ENDBRANCH  11  17
TORSDOF 8
ENDMDL
MODEL 10
REMARK VINA RESULT:      -6.5     28.847     32.610
REMARK  Name = 25389544
REMARK  11 active torsions:
REMARK  status: ('A' for Active; 'I' for Inactive)
REMARK    1  A    between atoms: O_1  and  C_17
REMARK    2  A    between atoms: O_1  and  C_22
REMARK    3  A    between atoms: O_3  and  C_25
REMARK    4  A    between atoms: O_3  and  C_33
REMARK    5  A    between atoms: O_4  and  C_28
REMARK    6  A    between atoms: O_4  and  C_34
REMARK    7  A    between atoms: N_6  and  C_20
REMARK    8  A    between atoms: N_8  and  C_27
REMARK    9  A    between atoms: C_10  and  C_16
REMARK   10  A    between atoms: C_11  and  C_17
REMARK   11  A    between atoms: C_19  and  C_21
REMARK                            x       y       z     vdW  Elec       q    Type
REMARK                         _______ _______ _______ _____ _____    ______ ____
ROOT
ATOM      5  N   UNL     1     -13.096   9.418  33.659  0.00  0.00    -0.296 NA
ATOM      9  C   UNL     1     -15.517   8.609  33.146  0.00  0.00    +0.002 C 
ATOM     10  C   UNL     1     -14.688   7.467  33.794  0.00  0.00    +0.055 C 
ATOM     11  C   UNL     1     -13.454   9.749  32.256  0.00  0.00    +0.095 C 
ATOM     12  C   UNL     1     -14.800   9.098  31.870  0.00  0.00    +0.026 C 
ATOM     13  C   UNL     1     -15.513   9.785  34.147  0.00  0.00    +0.019 C 
ATOM     14  C   UNL     1     -13.214   7.955  33.884  0.00  0.00    +0.094 C 
ATOM     15  C   UNL     1     -14.062  10.103  34.550  0.00  0.00    +0.085 C 
ENDROOT
BRANCH  10  16
ATOM      6  N   UNL     1     -14.597   4.934  33.924  0.00  0.00    -0.270 N 
ATOM      7  N   UNL     1     -14.741   3.803  33.212  0.00  0.00    -0.171 NA
ATOM     16  C   UNL     1     -14.798   6.071  33.198  0.00  0.00    +0.044 A 
ATOM     18  C   UNL     1     -15.091   5.655  31.923  0.00  0.00    +0.053 A 
ATOM     19  C   UNL     1     -15.042   4.250  31.991  0.00  0.00    +0.093 A 
ATOM     20  C   UNL     1     -14.259   4.847  35.325  0.00  0.00    +0.172 C 
BRANCH  19  21
ATOM     21  C   UNL     1     -15.276   3.327  30.910  0.00  0.00    +0.006 A 
ATOM     23  C   UNL     1     -14.954   1.978  31.061  0.00  0.00    +0.059 A 
ATOM     24  C   UNL     1     -15.827   3.783  29.712  0.00  0.00    +0.014 A 
ATOM     25  C   UNL     1     -15.180   1.085  30.013  0.00  0.00    +0.162 A 
ATOM     26  C   UNL     1     -16.054   2.890  28.665  0.00  0.00    +0.050 A 
ATOM     28  C   UNL     1     -15.730   1.541  28.815  0.00  0.00    +0.162 A 
BRANCH  25   3
ATOM      3  O   UNL     1     -14.861  -0.229  30.172  0.00  0.00    -0.491 OA
ATOM     33  C   UNL     1     -13.624  -0.667  29.613  0.00  0.00    +0.277 C 
ENDBRANCH  25   3
BRANCH  28   4
ATOM      4  O   UNL     1     -15.955   0.679  27.785  0.00  0.00    -0.491 OA
ATOM     34  C   UNL     1     -16.797   1.138  26.729  0.00  0.00    +0.277 C 
ENDBRANCH  28   4
ENDBRANCH  19  21
ENDBRANCH  10  16
BRANCH  11  17
ATOM     17  C   UNL     1     -12.343   9.388  31.268  0.00  0.00    +0.252 C 
BRANCH  17   1
ATOM      1  O   UNL     1     -11.503  10.515  31.109  0.00  0.00    -0.449 OA
BRANCH   1  22
ATOM      2  O   UNL     1     -10.931  12.162  29.629  0.00  0.00    -0.226 OA
ATOM      8  N   UNL     1     -12.073  10.234  28.949  0.00  0.00    -0.251 N 
ATOM     22  C   UNL     1     -11.454  11.078  29.853  0.00  0.00    +0.405 C 
ATOM     36  H   UNL     1     -12.451   9.369  29.328  0.00  0.00    +0.158 HD
BRANCH   8  27
ATOM     27  C   UNL     1     -12.246  10.425  27.560  0.00  0.00    +0.036 A 
ATOM     29  C   UNL     1     -13.529  10.567  27.030  0.00  0.00    +0.023 A 
ATOM     30  C   UNL     1     -11.136  10.467  26.717  0.00  0.00    +0.023 A 
ATOM     31  C   UNL     1     -13.701  10.754  25.659  0.00  0.00    +0.002 A 
ATOM     32  C   UNL     1     -11.307  10.654  25.345  0.00  0.00    +0.002 A 
ATOM     35  C   UNL     1     -12.590  10.797  24.816  0.00  0.00    +0.000 A 
ENDBRANCH   8  27
ENDBRANCH   1  22
ENDBRANCH  17   1
ENDBRANCH  11  17
TORSDOF 8
ENDMDL
