MODEL 1
REMARK VINA RESULT:      -7.7      0.000      0.000
REMARK  Name = 45783736
REMARK  6 active torsions:
REMARK  status: ('A' for Active; 'I' for Inactive)
REMARK    1  A    between atoms: N_2  and  C_12
REMARK    2  A    between atoms: C_8  and  C_13
REMARK    3  A    between atoms: C_12  and  C_14
REMARK    4  A    between atoms: C_14  and  C_15
REMARK    5  A    between atoms: C_15  and  C_16
REMARK    6  A    between atoms: C_17  and  C_20
REMARK                            x       y       z     vdW  Elec       q    Type
REMARK                         _______ _______ _______ _____ _____    ______ ____
ROOT
ATOM      2  N   UNL     1      20.205   6.463  20.526  0.00  0.00    -0.291 NA
ATOM      8  C   UNL     1      18.916   6.747  21.189  0.00  0.00    +0.146 C 
ATOM      9  C   UNL     1      19.062   8.183  21.727  0.00  0.00    +0.030 C 
ATOM     10  C   UNL     1      21.209   7.278  21.209  0.00  0.00    +0.085 C 
ATOM     11  C   UNL     1      20.483   8.598  21.374  0.00  0.00    +0.017 C 
ENDROOT
BRANCH   8  13
ATOM      1  O   UNL     1      17.866   5.671  19.262  0.00  0.00    -0.336 OA
ATOM      3  N   UNL     1      16.586   7.219  20.255  0.00  0.00    -0.190 NA
ATOM      4  N   UNL     1      16.667   5.707  18.538  0.00  0.00    -0.056 NA
ATOM     13  C   UNL     1      17.735   6.591  20.254  0.00  0.00    +0.245 A 
ATOM     17  C   UNL     1      15.965   6.643  19.185  0.00  0.00    +0.207 A 
BRANCH  17  20
ATOM      5  N   UNL     1      12.286   7.264  19.229  0.00  0.00    -0.220 NA
ATOM      6  N   UNL     1      13.698   6.375  20.906  0.00  0.00    -0.342 N 
ATOM      7  N   UNL     1      13.186   7.927  17.095  0.00  0.00    -0.243 NA
ATOM     20  C   UNL     1      14.639   7.025  18.789  0.00  0.00    +0.080 A 
ATOM     24  C   UNL     1      13.532   6.905  19.602  0.00  0.00    +0.130 A 
ATOM     25  C   UNL     1      14.405   7.547  17.533  0.00  0.00    +0.127 A 
ATOM     26  C   UNL     1      12.186   7.761  17.981  0.00  0.00    +0.223 A 
ATOM     27  H   UNL     1      12.862   6.315  21.475  0.00  0.00    +0.144 HD
ATOM     28  H   UNL     1      14.408   5.670  21.054  0.00  0.00    +0.144 HD
ENDBRANCH  17  20
ENDBRANCH   8  13
BRANCH   2  12
ATOM     12  C   UNL     1      20.552   5.047  20.529  0.00  0.00    +0.085 C 
BRANCH  12  14
ATOM     14  C   UNL     1      21.957   4.848  21.094  0.00  0.00    +0.020 C 
BRANCH  14  15
ATOM     15  C   UNL     1      21.924   3.989  22.362  0.00  0.00    +0.036 C 
BRANCH  15  16
ATOM     16  C   UNL     1      22.923   2.861  22.297  0.00  0.00    -0.047 A 
ATOM     18  C   UNL     1      23.428   2.447  21.066  0.00  0.00    +0.003 A 
ATOM     19  C   UNL     1      23.339   2.232  23.470  0.00  0.00    +0.003 A 
ATOM     21  C   UNL     1      24.352   1.403  21.007  0.00  0.00    +0.000 A 
ATOM     22  C   UNL     1      24.262   1.188  23.411  0.00  0.00    +0.000 A 
ATOM     23  C   UNL     1      24.768   0.773  22.179  0.00  0.00    +0.000 A 
ENDBRANCH  15  16
ENDBRANCH  14  15
ENDBRANCH  12  14
ENDBRANCH   2  12
TORSDOF 6
ENDMDL
MODEL 2
REMARK VINA RESULT:      -7.2      4.706      6.951
REMARK  Name = 45783736
REMARK  6 active torsions:
REMARK  status: ('A' for Active; 'I' for Inactive)
REMARK    1  A    between atoms: N_2  and  C_12
REMARK    2  A    between atoms: C_8  and  C_13
REMARK    3  A    between atoms: C_12  and  C_14
REMARK    4  A    between atoms: C_14  and  C_15
REMARK    5  A    between atoms: C_15  and  C_16
REMARK    6  A    between atoms: C_17  and  C_20
REMARK                            x       y       z     vdW  Elec       q    Type
REMARK                         _______ _______ _______ _____ _____    ______ ____
ROOT
ATOM      2  N   UNL     1      13.904   7.584  20.417  0.00  0.00    -0.291 NA
ATOM      8  C   UNL     1      13.664   9.021  20.178  0.00  0.00    +0.146 C 
ATOM      9  C   UNL     1      13.193   9.101  18.715  0.00  0.00    +0.030 C 
ATOM     10  C   UNL     1      14.256   7.003  19.122  0.00  0.00    +0.085 C 
ATOM     11  C   UNL     1      13.258   7.671  18.197  0.00  0.00    +0.017 C 
ENDROOT
BRANCH   8  13
ATOM      1  O   UNL     1      11.597   8.833  21.467  0.00  0.00    -0.336 OA
ATOM      3  N   UNL     1      12.666  10.783  21.735  0.00  0.00    -0.190 NA
ATOM      4  N   UNL     1      10.822   9.582  22.363  0.00  0.00    -0.056 NA
ATOM     13  C   UNL     1      12.663   9.613  21.148  0.00  0.00    +0.245 A 
ATOM     17  C   UNL     1      11.518  10.718  22.469  0.00  0.00    +0.207 A 
BRANCH  17  20
ATOM      5  N   UNL     1      10.570  12.742  25.458  0.00  0.00    -0.220 NA
ATOM      6  N   UNL     1      11.266  10.486  25.308  0.00  0.00    -0.342 N 
ATOM      7  N   UNL     1      10.386  14.101  23.476  0.00  0.00    -0.243 NA
ATOM     20  C   UNL     1      11.096  11.807  23.304  0.00  0.00    +0.080 A 
ATOM     24  C   UNL     1      10.968  11.718  24.674  0.00  0.00    +0.130 A 
ATOM     25  C   UNL     1      10.788  13.034  22.753  0.00  0.00    +0.127 A 
ATOM     26  C   UNL     1      10.300  13.887  24.803  0.00  0.00    +0.223 A 
ATOM     27  H   UNL     1      11.171  10.466  26.316  0.00  0.00    +0.144 HD
ATOM     28  H   UNL     1      11.073   9.626  24.809  0.00  0.00    +0.144 HD
ENDBRANCH  17  20
ENDBRANCH   8  13
BRANCH   2  12
ATOM     12  C   UNL     1      14.924   7.331  21.427  0.00  0.00    +0.085 C 
BRANCH  12  14
ATOM     14  C   UNL     1      16.187   6.770  20.776  0.00  0.00    +0.020 C 
BRANCH  14  15
ATOM     15  C   UNL     1      17.412   7.617  21.130  0.00  0.00    +0.036 C 
BRANCH  15  16
ATOM     16  C   UNL     1      18.663   6.779  21.217  0.00  0.00    -0.047 A 
ATOM     18  C   UNL     1      18.940   5.836  20.228  0.00  0.00    +0.003 A 
ATOM     19  C   UNL     1      19.541   6.948  22.287  0.00  0.00    +0.003 A 
ATOM     21  C   UNL     1      20.098   5.062  20.309  0.00  0.00    +0.000 A 
ATOM     22  C   UNL     1      20.698   6.173  22.368  0.00  0.00    +0.000 A 
ATOM     23  C   UNL     1      20.976   5.229  21.378  0.00  0.00    +0.000 A 
ENDBRANCH  15  16
ENDBRANCH  14  15
ENDBRANCH  12  14
ENDBRANCH   2  12
TORSDOF 6
ENDMDL
MODEL 3
REMARK VINA RESULT:      -7.2      4.831      7.992
REMARK  Name = 45783736
REMARK  6 active torsions:
REMARK  status: ('A' for Active; 'I' for Inactive)
REMARK    1  A    between atoms: N_2  and  C_12
REMARK    2  A    between atoms: C_8  and  C_13
REMARK    3  A    between atoms: C_12  and  C_14
REMARK    4  A    between atoms: C_14  and  C_15
REMARK    5  A    between atoms: C_15  and  C_16
REMARK    6  A    between atoms: C_17  and  C_20
REMARK                            x       y       z     vdW  Elec       q    Type
REMARK                         _______ _______ _______ _____ _____    ______ ____
ROOT
ATOM      2  N   UNL     1      12.893   9.454  18.111  0.00  0.00    -0.291 NA
ATOM      8  C   UNL     1      13.591  10.089  19.247  0.00  0.00    +0.146 C 
ATOM      9  C   UNL     1      14.252  11.344  18.647  0.00  0.00    +0.030 C 
ATOM     10  C   UNL     1      13.636   9.830  16.908  0.00  0.00    +0.085 C 
ATOM     11  C   UNL     1      13.923  11.297  17.162  0.00  0.00    +0.017 C 
ENDROOT
BRANCH   8  13
ATOM      1  O   UNL     1      11.849   9.405  20.818  0.00  0.00    -0.336 OA
ATOM      3  N   UNL     1      12.507  11.534  21.052  0.00  0.00    -0.190 NA
ATOM      4  N   UNL     1      11.089   9.934  21.870  0.00  0.00    -0.056 NA
ATOM     13  C   UNL     1      12.657  10.412  20.395  0.00  0.00    +0.245 A 
ATOM     17  C   UNL     1      11.534  11.192  21.946  0.00  0.00    +0.207 A 
BRANCH  17  20
ATOM      5  N   UNL     1      10.431  12.743  25.156  0.00  0.00    -0.220 NA
ATOM      6  N   UNL     1      11.290  10.581  24.729  0.00  0.00    -0.342 N 
ATOM      7  N   UNL     1      10.154  14.328  23.361  0.00  0.00    -0.243 NA
ATOM     20  C   UNL     1      11.030  12.132  22.907  0.00  0.00    +0.080 A 
ATOM     24  C   UNL     1      10.905  11.859  24.253  0.00  0.00    +0.130 A 
ATOM     25  C   UNL     1      10.636  13.394  22.513  0.00  0.00    +0.127 A 
ATOM     26  C   UNL     1      10.080  13.941  24.649  0.00  0.00    +0.223 A 
ATOM     27  H   UNL     1      11.193  10.426  25.725  0.00  0.00    +0.144 HD
ATOM     28  H   UNL     1      11.162   9.781  24.123  0.00  0.00    +0.144 HD
ENDBRANCH  17  20
ENDBRANCH   8  13
BRANCH   2  12
ATOM     12  C   UNL     1      12.769   8.008  18.249  0.00  0.00    +0.085 C 
BRANCH  12  14
ATOM     14  C   UNL     1      14.151   7.361  18.308  0.00  0.00    +0.020 C 
BRANCH  14  15
ATOM     15  C   UNL     1      14.442   6.813  19.708  0.00  0.00    +0.036 C 
BRANCH  15  16
ATOM     16  C   UNL     1      15.915   6.565  19.915  0.00  0.00    -0.047 A 
ATOM     18  C   UNL     1      16.538   7.000  21.083  0.00  0.00    +0.003 A 
ATOM     19  C   UNL     1      16.654   5.902  18.935  0.00  0.00    +0.003 A 
ATOM     21  C   UNL     1      17.901   6.770  21.274  0.00  0.00    +0.000 A 
ATOM     22  C   UNL     1      18.017   5.673  19.125  0.00  0.00    +0.000 A 
ATOM     23  C   UNL     1      18.641   6.108  20.295  0.00  0.00    +0.000 A 
ENDBRANCH  15  16
ENDBRANCH  14  15
ENDBRANCH  12  14
ENDBRANCH   2  12
TORSDOF 6
ENDMDL
MODEL 4
REMARK VINA RESULT:      -7.0      5.745      9.205
REMARK  Name = 45783736
REMARK  6 active torsions:
REMARK  status: ('A' for Active; 'I' for Inactive)
REMARK    1  A    between atoms: N_2  and  C_12
REMARK    2  A    between atoms: C_8  and  C_13
REMARK    3  A    between atoms: C_12  and  C_14
REMARK    4  A    between atoms: C_14  and  C_15
REMARK    5  A    between atoms: C_15  and  C_16
REMARK    6  A    between atoms: C_17  and  C_20
REMARK                            x       y       z     vdW  Elec       q    Type
REMARK                         _______ _______ _______ _____ _____    ______ ____
ROOT
ATOM      2  N   UNL     1      11.923   7.928  20.199  0.00  0.00    -0.291 NA
ATOM      8  C   UNL     1      10.787   8.435  20.995  0.00  0.00    +0.146 C 
ATOM      9  C   UNL     1      10.534   7.346  22.053  0.00  0.00    +0.030 C 
ATOM     10  C   UNL     1      11.860   6.468  20.273  0.00  0.00    +0.085 C 
ATOM     11  C   UNL     1      11.532   6.242  21.735  0.00  0.00    +0.017 C 
ENDROOT
BRANCH   8  13
ATOM      1  O   UNL     1      11.636  10.718  20.793  0.00  0.00    -0.336 OA
ATOM      3  N   UNL     1      10.838  10.215  22.825  0.00  0.00    -0.190 NA
ATOM      4  N   UNL     1      11.796  11.872  21.570  0.00  0.00    -0.056 NA
ATOM     13  C   UNL     1      11.066   9.792  21.608  0.00  0.00    +0.245 A 
ATOM     17  C   UNL     1      11.303  11.496  22.754  0.00  0.00    +0.207 A 
BRANCH  17  20
ATOM      5  N   UNL     1      10.357  14.281  25.050  0.00  0.00    -0.220 NA
ATOM      6  N   UNL     1       9.508  13.716  22.916  0.00  0.00    -0.342 N 
ATOM      7  N   UNL     1      12.109  12.969  26.059  0.00  0.00    -0.243 NA
ATOM     20  C   UNL     1      11.257  12.378  23.886  0.00  0.00    +0.080 A 
ATOM     24  C   UNL     1      10.400  13.453  23.986  0.00  0.00    +0.130 A 
ATOM     25  C   UNL     1      12.098  12.181  24.962  0.00  0.00    +0.127 A 
ATOM     26  C   UNL     1      11.226  13.986  26.036  0.00  0.00    +0.223 A 
ATOM     27  H   UNL     1       8.887  14.507  23.034  0.00  0.00    +0.144 HD
ATOM     28  H   UNL     1       9.807  13.501  21.974  0.00  0.00    +0.144 HD
ENDBRANCH  17  20
ENDBRANCH   8  13
BRANCH   2  12
ATOM     12  C   UNL     1      11.921   8.409  18.823  0.00  0.00    +0.085 C 
BRANCH  12  14
ATOM     14  C   UNL     1      12.823   7.534  17.955  0.00  0.00    +0.020 C 
BRANCH  14  15
ATOM     15  C   UNL     1      14.201   8.175  17.772  0.00  0.00    +0.036 C 
BRANCH  15  16
ATOM     16  C   UNL     1      15.091   7.936  18.965  0.00  0.00    -0.047 A 
ATOM     18  C   UNL     1      15.522   9.011  19.740  0.00  0.00    +0.003 A 
ATOM     19  C   UNL     1      15.482   6.638  19.293  0.00  0.00    +0.003 A 
ATOM     21  C   UNL     1      16.346   8.788  20.845  0.00  0.00    +0.000 A 
ATOM     22  C   UNL     1      16.306   6.415  20.396  0.00  0.00    +0.000 A 
ATOM     23  C   UNL     1      16.738   7.491  21.172  0.00  0.00    +0.000 A 
ENDBRANCH  15  16
ENDBRANCH  14  15
ENDBRANCH  12  14
ENDBRANCH   2  12
TORSDOF 6
ENDMDL
MODEL 5
REMARK VINA RESULT:      -6.9      6.030      9.429
REMARK  Name = 45783736
REMARK  6 active torsions:
REMARK  status: ('A' for Active; 'I' for Inactive)
REMARK    1  A    between atoms: N_2  and  C_12
REMARK    2  A    between atoms: C_8  and  C_13
REMARK    3  A    between atoms: C_12  and  C_14
REMARK    4  A    between atoms: C_14  and  C_15
REMARK    5  A    between atoms: C_15  and  C_16
REMARK    6  A    between atoms: C_17  and  C_20
REMARK                            x       y       z     vdW  Elec       q    Type
REMARK                         _______ _______ _______ _____ _____    ______ ____
ROOT
ATOM      2  N   UNL     1      13.834   7.703  19.394  0.00  0.00    -0.291 NA
ATOM      8  C   UNL     1      13.645   7.250  20.786  0.00  0.00    +0.146 C 
ATOM      9  C   UNL     1      15.063   7.233  21.387  0.00  0.00    +0.030 C 
ATOM     10  C   UNL     1      15.182   7.290  19.003  0.00  0.00    +0.085 C 
ATOM     11  C   UNL     1      15.985   7.630  20.242  0.00  0.00    +0.017 C 
ENDROOT
BRANCH   8  13
ATOM      1  O   UNL     1      11.565   7.543  22.035  0.00  0.00    -0.336 OA
ATOM      3  N   UNL     1      12.791   9.408  21.851  0.00  0.00    -0.190 NA
ATOM      4  N   UNL     1      10.853   8.545  22.707  0.00  0.00    -0.056 NA
ATOM     13  C   UNL     1      12.693   8.136  21.562  0.00  0.00    +0.245 A 
ATOM     17  C   UNL     1      11.640   9.614  22.553  0.00  0.00    +0.207 A 
BRANCH  17  20
ATOM      5  N   UNL     1      11.043  13.284  22.871  0.00  0.00    -0.220 NA
ATOM      6  N   UNL     1      11.763  12.017  21.008  0.00  0.00    -0.342 N 
ATOM      7  N   UNL     1      10.574  12.208  24.977  0.00  0.00    -0.243 NA
ATOM     20  C   UNL     1      11.306  10.902  23.091  0.00  0.00    +0.080 A 
ATOM     24  C   UNL     1      11.357  12.073  22.365  0.00  0.00    +0.130 A 
ATOM     25  C   UNL     1      10.903  11.030  24.405  0.00  0.00    +0.127 A 
ATOM     26  C   UNL     1      10.665  13.279  24.164  0.00  0.00    +0.223 A 
ATOM     27  H   UNL     1      11.776  12.897  20.507  0.00  0.00    +0.144 HD
ATOM     28  H   UNL     1      12.446  11.322  20.737  0.00  0.00    +0.144 HD
ENDBRANCH  17  20
ENDBRANCH   8  13
BRANCH   2  12
ATOM     12  C   UNL     1      12.818   7.194  18.481  0.00  0.00    +0.085 C 
BRANCH  12  14
ATOM     14  C   UNL     1      12.413   8.275  17.481  0.00  0.00    +0.020 C 
BRANCH  14  15
ATOM     15  C   UNL     1      12.711   9.673  18.031  0.00  0.00    +0.036 C 
BRANCH  15  16
ATOM     16  C   UNL     1      13.762  10.381  17.213  0.00  0.00    -0.047 A 
ATOM     18  C   UNL     1      14.424  11.489  17.738  0.00  0.00    +0.003 A 
ATOM     19  C   UNL     1      14.069   9.928  15.930  0.00  0.00    +0.003 A 
ATOM     21  C   UNL     1      15.396  12.144  16.981  0.00  0.00    +0.000 A 
ATOM     22  C   UNL     1      15.040  10.583  15.173  0.00  0.00    +0.000 A 
ATOM     23  C   UNL     1      15.704  11.691  15.699  0.00  0.00    +0.000 A 
ENDBRANCH  15  16
ENDBRANCH  14  15
ENDBRANCH  12  14
ENDBRANCH   2  12
TORSDOF 6
ENDMDL
MODEL 6
REMARK VINA RESULT:      -6.9      2.876      9.014
REMARK  Name = 45783736
REMARK  6 active torsions:
REMARK  status: ('A' for Active; 'I' for Inactive)
REMARK    1  A    between atoms: N_2  and  C_12
REMARK    2  A    between atoms: C_8  and  C_13
REMARK    3  A    between atoms: C_12  and  C_14
REMARK    4  A    between atoms: C_14  and  C_15
REMARK    5  A    between atoms: C_15  and  C_16
REMARK    6  A    between atoms: C_17  and  C_20
REMARK                            x       y       z     vdW  Elec       q    Type
REMARK                         _______ _______ _______ _____ _____    ______ ____
ROOT
ATOM      2  N   UNL     1      14.553  10.068  20.354  0.00  0.00    -0.291 NA
ATOM      8  C   UNL     1      15.889  10.175  20.975  0.00  0.00    +0.146 C 
ATOM      9  C   UNL     1      15.638  10.869  22.326  0.00  0.00    +0.030 C 
ATOM     10  C   UNL     1      13.763  11.180  20.882  0.00  0.00    +0.085 C 
ATOM     11  C   UNL     1      14.146  11.169  22.349  0.00  0.00    +0.017 C 
ENDROOT
BRANCH   8  13
ATOM      1  O   UNL     1      15.752   7.751  21.260  0.00  0.00    -0.336 OA
ATOM      3  N   UNL     1      17.845   8.542  21.149  0.00  0.00    -0.190 NA
ATOM      4  N   UNL     1      16.596   6.639  21.384  0.00  0.00    -0.056 NA
ATOM     13  C   UNL     1      16.569   8.830  21.126  0.00  0.00    +0.245 A 
ATOM     17  C   UNL     1      17.812   7.188  21.309  0.00  0.00    +0.207 A 
BRANCH  17  20
ATOM      5  N   UNL     1      20.566   4.812  20.474  0.00  0.00    -0.220 NA
ATOM      6  N   UNL     1      18.641   5.404  19.233  0.00  0.00    -0.342 N 
ATOM      7  N   UNL     1      20.980   5.793  22.636  0.00  0.00    -0.243 NA
ATOM     20  C   UNL     1      19.016   6.409  21.388  0.00  0.00    +0.080 A 
ATOM     24  C   UNL     1      19.435   5.544  20.399  0.00  0.00    +0.130 A 
ATOM     25  C   UNL     1      19.835   6.495  22.494  0.00  0.00    +0.127 A 
ATOM     26  C   UNL     1      21.281   4.983  21.602  0.00  0.00    +0.223 A 
ATOM     27  H   UNL     1      18.990   4.769  18.527  0.00  0.00    +0.144 HD
ATOM     28  H   UNL     1      17.637   5.492  19.319  0.00  0.00    +0.144 HD
ENDBRANCH  17  20
ENDBRANCH   8  13
BRANCH   2  12
ATOM     12  C   UNL     1      14.595  10.068  18.897  0.00  0.00    +0.085 C 
BRANCH  12  14
ATOM     14  C   UNL     1      13.187  10.228  18.326  0.00  0.00    +0.020 C 
BRANCH  14  15
ATOM     15  C   UNL     1      12.558   8.866  18.021  0.00  0.00    +0.036 C 
BRANCH  15  16
ATOM     16  C   UNL     1      12.069   8.184  19.274  0.00  0.00    -0.047 A 
ATOM     18  C   UNL     1      11.082   8.784  20.054  0.00  0.00    +0.003 A 
ATOM     19  C   UNL     1      12.605   6.953  19.652  0.00  0.00    +0.003 A 
ATOM     21  C   UNL     1      10.630   8.153  21.213  0.00  0.00    +0.000 A 
ATOM     22  C   UNL     1      12.154   6.323  20.811  0.00  0.00    +0.000 A 
ATOM     23  C   UNL     1      11.166   6.923  21.592  0.00  0.00    +0.000 A 
ENDBRANCH  15  16
ENDBRANCH  14  15
ENDBRANCH  12  14
ENDBRANCH   2  12
TORSDOF 6
ENDMDL
MODEL 7
REMARK VINA RESULT:      -6.8      6.766      9.938
REMARK  Name = 45783736
REMARK  6 active torsions:
REMARK  status: ('A' for Active; 'I' for Inactive)
REMARK    1  A    between atoms: N_2  and  C_12
REMARK    2  A    between atoms: C_8  and  C_13
REMARK    3  A    between atoms: C_12  and  C_14
REMARK    4  A    between atoms: C_14  and  C_15
REMARK    5  A    between atoms: C_15  and  C_16
REMARK    6  A    between atoms: C_17  and  C_20
REMARK                            x       y       z     vdW  Elec       q    Type
REMARK                         _______ _______ _______ _____ _____    ______ ____
ROOT
ATOM      2  N   UNL     1      12.952   7.793  21.660  0.00  0.00    -0.291 NA
ATOM      8  C   UNL     1      12.025   8.872  21.263  0.00  0.00    +0.146 C 
ATOM      9  C   UNL     1      10.626   8.233  21.339  0.00  0.00    +0.030 C 
ATOM     10  C   UNL     1      12.302   6.534  21.292  0.00  0.00    +0.085 C 
ATOM     11  C   UNL     1      10.871   6.781  21.726  0.00  0.00    +0.017 C 
ENDROOT
BRANCH   8  13
ATOM      1  O   UNL     1      13.295  10.205  22.869  0.00  0.00    -0.336 OA
ATOM      3  N   UNL     1      11.319  11.095  22.302  0.00  0.00    -0.190 NA
ATOM      4  N   UNL     1      13.188  11.403  23.587  0.00  0.00    -0.056 NA
ATOM     13  C   UNL     1      12.154  10.101  22.138  0.00  0.00    +0.245 A 
ATOM     17  C   UNL     1      11.996  11.869  23.200  0.00  0.00    +0.207 A 
BRANCH  17  20
ATOM      5  N   UNL     1      10.365  14.411  25.390  0.00  0.00    -0.220 NA
ATOM      6  N   UNL     1      10.800  12.120  25.784  0.00  0.00    -0.342 N 
ATOM      7  N   UNL     1      11.003  15.438  23.305  0.00  0.00    -0.243 NA
ATOM     20  C   UNL     1      11.454  13.105  23.688  0.00  0.00    +0.080 A 
ATOM     24  C   UNL     1      10.874  13.249  24.931  0.00  0.00    +0.130 A 
ATOM     25  C   UNL     1      11.492  14.244  22.910  0.00  0.00    +0.127 A 
ATOM     26  C   UNL     1      10.461  15.450  24.539  0.00  0.00    +0.223 A 
ATOM     27  H   UNL     1      10.377  12.271  26.692  0.00  0.00    +0.144 HD
ATOM     28  H   UNL     1      10.681  11.205  25.367  0.00  0.00    +0.144 HD
ENDBRANCH  17  20
ENDBRANCH   8  13
BRANCH   2  12
ATOM     12  C   UNL     1      14.274   7.923  21.062  0.00  0.00    +0.085 C 
BRANCH  12  14
ATOM     14  C   UNL     1      14.538   6.764  20.102  0.00  0.00    +0.020 C 
BRANCH  14  15
ATOM     15  C   UNL     1      15.094   7.270  18.768  0.00  0.00    +0.036 C 
BRANCH  15  16
ATOM     16  C   UNL     1      14.047   8.009  17.973  0.00  0.00    -0.047 A 
ATOM     18  C   UNL     1      12.743   7.523  17.915  0.00  0.00    +0.003 A 
ATOM     19  C   UNL     1      14.386   9.180  17.295  0.00  0.00    +0.003 A 
ATOM     21  C   UNL     1      11.775   8.207  17.179  0.00  0.00    +0.000 A 
ATOM     22  C   UNL     1      13.419   9.864  16.559  0.00  0.00    +0.000 A 
ATOM     23  C   UNL     1      12.113   9.378  16.501  0.00  0.00    +0.000 A 
ENDBRANCH  15  16
ENDBRANCH  14  15
ENDBRANCH  12  14
ENDBRANCH   2  12
TORSDOF 6
ENDMDL
MODEL 8
REMARK VINA RESULT:      -6.8      4.136      5.732
REMARK  Name = 45783736
REMARK  6 active torsions:
REMARK  status: ('A' for Active; 'I' for Inactive)
REMARK    1  A    between atoms: N_2  and  C_12
REMARK    2  A    between atoms: C_8  and  C_13
REMARK    3  A    between atoms: C_12  and  C_14
REMARK    4  A    between atoms: C_14  and  C_15
REMARK    5  A    between atoms: C_15  and  C_16
REMARK    6  A    between atoms: C_17  and  C_20
REMARK                            x       y       z     vdW  Elec       q    Type
REMARK                         _______ _______ _______ _____ _____    ______ ____
ROOT
ATOM      2  N   UNL     1      17.578  10.909  20.474  0.00  0.00    -0.291 NA
ATOM      8  C   UNL     1      16.259  11.572  20.496  0.00  0.00    +0.146 C 
ATOM      9  C   UNL     1      16.338  12.638  19.388  0.00  0.00    +0.030 C 
ATOM     10  C   UNL     1      18.531  11.903  19.979  0.00  0.00    +0.085 C 
ATOM     11  C   UNL     1      17.757  12.542  18.844  0.00  0.00    +0.017 C 
ENDROOT
BRANCH   8  13
ATOM      1  O   UNL     1      14.876  10.212  19.009  0.00  0.00    -0.336 OA
ATOM      3  N   UNL     1      14.311  10.065  21.172  0.00  0.00    -0.190 NA
ATOM      4  N   UNL     1      13.791   9.327  19.069  0.00  0.00    -0.056 NA
ATOM     13  C   UNL     1      15.117  10.599  20.289  0.00  0.00    +0.245 A 
ATOM     17  C   UNL     1      13.515   9.293  20.376  0.00  0.00    +0.207 A 
BRANCH  17  20
ATOM      5  N   UNL     1      11.204   6.444  21.054  0.00  0.00    -0.220 NA
ATOM      6  N   UNL     1      13.030   6.596  19.559  0.00  0.00    -0.342 N 
ATOM      7  N   UNL     1      10.590   8.321  22.435  0.00  0.00    -0.243 NA
ATOM     20  C   UNL     1      12.453   8.495  20.920  0.00  0.00    +0.080 A 
ATOM     24  C   UNL     1      12.202   7.193  20.542  0.00  0.00    +0.130 A 
ATOM     25  C   UNL     1      11.608   9.013  21.880  0.00  0.00    +0.127 A 
ATOM     26  C   UNL     1      10.447   7.060  21.982  0.00  0.00    +0.223 A 
ATOM     27  H   UNL     1      12.820   5.635  19.319  0.00  0.00    +0.144 HD
ATOM     28  H   UNL     1      13.411   7.182  18.827  0.00  0.00    +0.144 HD
ENDBRANCH  17  20
ENDBRANCH   8  13
BRANCH   2  12
ATOM     12  C   UNL     1      17.972  10.370  21.769  0.00  0.00    +0.085 C 
BRANCH  12  14
ATOM     14  C   UNL     1      19.139   9.397  21.606  0.00  0.00    +0.020 C 
BRANCH  14  15
ATOM     15  C   UNL     1      18.755   7.992  22.079  0.00  0.00    +0.036 C 
BRANCH  15  16
ATOM     16  C   UNL     1      18.209   7.154  20.951  0.00  0.00    -0.047 A 
ATOM     18  C   UNL     1      18.980   6.127  20.409  0.00  0.00    +0.003 A 
ATOM     19  C   UNL     1      16.933   7.407  20.449  0.00  0.00    +0.003 A 
ATOM     21  C   UNL     1      18.475   5.351  19.365  0.00  0.00    +0.000 A 
ATOM     22  C   UNL     1      16.428   6.632  19.405  0.00  0.00    +0.000 A 
ATOM     23  C   UNL     1      17.200   5.604  18.863  0.00  0.00    +0.000 A 
ENDBRANCH  15  16
ENDBRANCH  14  15
ENDBRANCH  12  14
ENDBRANCH   2  12
TORSDOF 6
ENDMDL
MODEL 9
REMARK VINA RESULT:      -6.8      3.913      6.940
REMARK  Name = 45783736
REMARK  6 active torsions:
REMARK  status: ('A' for Active; 'I' for Inactive)
REMARK    1  A    between atoms: N_2  and  C_12
REMARK    2  A    between atoms: C_8  and  C_13
REMARK    3  A    between atoms: C_12  and  C_14
REMARK    4  A    between atoms: C_14  and  C_15
REMARK    5  A    between atoms: C_15  and  C_16
REMARK    6  A    between atoms: C_17  and  C_20
REMARK                            x       y       z     vdW  Elec       q    Type
REMARK                         _______ _______ _______ _____ _____    ______ ____
ROOT
ATOM      2  N   UNL     1      12.934   7.701  20.583  0.00  0.00    -0.291 NA
ATOM      8  C   UNL     1      12.259   8.200  19.368  0.00  0.00    +0.146 C 
ATOM      9  C   UNL     1      10.929   8.789  19.873  0.00  0.00    +0.030 C 
ATOM     10  C   UNL     1      11.874   7.355  21.531  0.00  0.00    +0.085 C 
ATOM     11  C   UNL     1      10.917   8.519  21.371  0.00  0.00    +0.017 C 
ENDROOT
BRANCH   8  13
ATOM      1  O   UNL     1      13.931   9.983  19.358  0.00  0.00    -0.336 OA
ATOM      3  N   UNL     1      13.139   9.461  17.328  0.00  0.00    -0.190 NA
ATOM      4  N   UNL     1      14.588  10.828  18.454  0.00  0.00    -0.056 NA
ATOM     13  C   UNL     1      13.096   9.211  18.613  0.00  0.00    +0.245 A 
ATOM     17  C   UNL     1      14.067  10.459  17.280  0.00  0.00    +0.207 A 
BRANCH  17  20
ATOM      5  N   UNL     1      14.658  12.978  14.591  0.00  0.00    -0.220 NA
ATOM      6  N   UNL     1      13.709  13.244  16.741  0.00  0.00    -0.342 N 
ATOM      7  N   UNL     1      15.417  10.816  13.846  0.00  0.00    -0.243 NA
ATOM     20  C   UNL     1      14.455  11.067  16.038  0.00  0.00    +0.080 A 
ATOM     24  C   UNL     1      14.293  12.408  15.758  0.00  0.00    +0.130 A 
ATOM     25  C   UNL     1      15.028  10.312  15.036  0.00  0.00    +0.127 A 
ATOM     26  C   UNL     1      15.206  12.137  13.693  0.00  0.00    +0.223 A 
ATOM     27  H   UNL     1      13.619  14.224  16.501  0.00  0.00    +0.144 HD
ATOM     28  H   UNL     1      13.004  12.853  17.353  0.00  0.00    +0.144 HD
ENDBRANCH  17  20
ENDBRANCH   8  13
BRANCH   2  12
ATOM     12  C   UNL     1      13.826   6.578  20.324  0.00  0.00    +0.085 C 
BRANCH  12  14
ATOM     14  C   UNL     1      15.177   6.808  21.001  0.00  0.00    +0.020 C 
BRANCH  14  15
ATOM     15  C   UNL     1      16.208   7.345  20.004  0.00  0.00    +0.036 C 
BRANCH  15  16
ATOM     16  C   UNL     1      17.619   7.111  20.481  0.00  0.00    -0.047 A 
ATOM     18  C   UNL     1      18.208   8.000  21.378  0.00  0.00    +0.003 A 
ATOM     19  C   UNL     1      18.334   6.004  20.023  0.00  0.00    +0.003 A 
ATOM     21  C   UNL     1      19.514   7.783  21.819  0.00  0.00    +0.000 A 
ATOM     22  C   UNL     1      19.640   5.787  20.464  0.00  0.00    +0.000 A 
ATOM     23  C   UNL     1      20.230   6.677  21.361  0.00  0.00    +0.000 A 
ENDBRANCH  15  16
ENDBRANCH  14  15
ENDBRANCH  12  14
ENDBRANCH   2  12
TORSDOF 6
ENDMDL
MODEL 10
REMARK VINA RESULT:      -6.7     27.346     31.285
REMARK  Name = 45783736
REMARK  6 active torsions:
REMARK  status: ('A' for Active; 'I' for Inactive)
REMARK    1  A    between atoms: N_2  and  C_12
REMARK    2  A    between atoms: C_8  and  C_13
REMARK    3  A    between atoms: C_12  and  C_14
REMARK    4  A    between atoms: C_14  and  C_15
REMARK    5  A    between atoms: C_15  and  C_16
REMARK    6  A    between atoms: C_17  and  C_20
REMARK                            x       y       z     vdW  Elec       q    Type
REMARK                         _______ _______ _______ _____ _____    ______ ____
ROOT
ATOM      2  N   UNL     1      -7.607 -10.721  17.637  0.00  0.00    -0.291 NA
ATOM      8  C   UNL     1      -6.286 -10.226  18.075  0.00  0.00    +0.146 C 
ATOM      9  C   UNL     1      -6.044 -10.910  19.433  0.00  0.00    +0.030 C 
ATOM     10  C   UNL     1      -8.356 -11.031  18.855  0.00  0.00    +0.085 C 
ATOM     11  C   UNL     1      -7.305 -11.718  19.703  0.00  0.00    +0.017 C 
ENDROOT
BRANCH   8  13
ATOM      1  O   UNL     1      -4.057 -11.085  17.558  0.00  0.00    -0.336 OA
ATOM      3  N   UNL     1      -5.173 -10.308  15.778  0.00  0.00    -0.190 NA
ATOM      4  N   UNL     1      -3.206 -11.259  16.459  0.00  0.00    -0.056 NA
ATOM     13  C   UNL     1      -5.192 -10.521  17.069  0.00  0.00    +0.245 A 
ATOM     17  C   UNL     1      -3.935 -10.777  15.447  0.00  0.00    +0.207 A 
BRANCH  17  20
ATOM      5  N   UNL     1      -1.757 -10.274  12.460  0.00  0.00    -0.220 NA
ATOM      6  N   UNL     1      -1.334  -9.822  14.743  0.00  0.00    -0.342 N 
ATOM      7  N   UNL     1      -3.868 -11.205  11.766  0.00  0.00    -0.243 NA
ATOM     20  C   UNL     1      -3.457 -10.752  14.094  0.00  0.00    +0.080 A 
ATOM     24  C   UNL     1      -2.206 -10.297  13.732  0.00  0.00    +0.130 A 
ATOM     25  C   UNL     1      -4.253 -11.199  13.060  0.00  0.00    +0.127 A 
ATOM     26  C   UNL     1      -2.626 -10.735  11.541  0.00  0.00    +0.223 A 
ATOM     27  H   UNL     1      -0.421  -9.507  14.437  0.00  0.00    +0.144 HD
ATOM     28  H   UNL     1      -1.735  -9.358  15.549  0.00  0.00    +0.144 HD
ENDBRANCH  17  20
ENDBRANCH   8  13
BRANCH   2  12
ATOM     12  C   UNL     1      -8.317  -9.779  16.780  0.00  0.00    +0.085 C 
BRANCH  12  14
ATOM     14  C   UNL     1      -9.633  -9.358  17.433  0.00  0.00    +0.020 C 
BRANCH  14  15
ATOM     15  C   UNL     1      -9.768  -7.833  17.463  0.00  0.00    +0.036 C 
BRANCH  15  16
ATOM     16  C   UNL     1     -10.950  -7.362  16.653  0.00  0.00    -0.047 A 
ATOM     18  C   UNL     1     -12.157  -8.057  16.713  0.00  0.00    +0.003 A 
ATOM     19  C   UNL     1     -10.835  -6.232  15.845  0.00  0.00    +0.003 A 
ATOM     21  C   UNL     1     -13.250  -7.621  15.963  0.00  0.00    +0.000 A 
ATOM     22  C   UNL     1     -11.927  -5.796  15.095  0.00  0.00    +0.000 A 
ATOM     23  C   UNL     1     -13.135  -6.491  15.154  0.00  0.00    +0.000 A 
ENDBRANCH  15  16
ENDBRANCH  14  15
ENDBRANCH  12  14
ENDBRANCH   2  12
TORSDOF 6
ENDMDL
