MODEL 1
REMARK VINA RESULT:      -6.7      0.000      0.000
REMARK  Name = 7675197
REMARK  5 active torsions:
REMARK  status: ('A' for Active; 'I' for Inactive)
REMARK    1  A    between atoms: O_4  and  C_26
REMARK    2  A    between atoms: O_4  and  C_28
REMARK    3  A    between atoms: N_7  and  C_14
REMARK    4  A    between atoms: C_14  and  C_16
REMARK    5  A    between atoms: C_15  and  C_17
REMARK                            x       y       z     vdW  Elec       q    Type
REMARK                         _______ _______ _______ _____ _____    ______ ____
ROOT
ATOM      1  O   UNL     1      -6.499 -10.604  14.946  0.00  0.00    -0.273 OA
ATOM      2  O   UNL     1      -4.697 -12.899  18.513  0.00  0.00    -0.252 OA
ATOM      3  O   UNL     1     -10.805 -10.021  20.028  0.00  0.00    -0.270 OA
ATOM      5  N   UNL     1      -6.442 -11.349  18.333  0.00  0.00    -0.271 N 
ATOM      6  N   UNL     1      -9.156 -10.806  18.570  0.00  0.00    -0.294 N 
ATOM      7  N   UNL     1      -5.302 -11.878  16.497  0.00  0.00    -0.220 N 
ATOM      8  C   UNL     1      -7.075 -10.556  17.301  0.00  0.00    +0.181 C 
ATOM      9  C   UNL     1      -8.558 -10.885  17.222  0.00  0.00    +0.140 C 
ATOM     10  C   UNL     1      -7.014 -11.358  19.668  0.00  0.00    +0.129 C 
ATOM     11  C   UNL     1      -8.511 -11.659  19.579  0.00  0.00    +0.127 C 
ATOM     12  C   UNL     1      -6.280 -10.995  16.085  0.00  0.00    +0.245 C 
ATOM     13  C   UNL     1      -5.387 -12.130  17.858  0.00  0.00    +0.312 C 
ATOM     15  C   UNL     1     -10.277 -10.050  18.918  0.00  0.00    +0.247 C 
ENDROOT
BRANCH  15  17
ATOM     17  C   UNL     1     -10.884  -9.200  17.887  0.00  0.00    +0.037 A 
ATOM     20  C   UNL     1     -10.249  -8.024  17.494  0.00  0.00    +0.016 A 
ATOM     21  C   UNL     1     -12.094  -9.572  17.305  0.00  0.00    +0.016 A 
ATOM     24  C   UNL     1     -10.826  -7.216  16.514  0.00  0.00    +0.046 A 
ATOM     25  C   UNL     1     -12.672  -8.764  16.325  0.00  0.00    +0.046 A 
ATOM     26  C   UNL     1     -12.038  -7.586  15.930  0.00  0.00    +0.120 A 
BRANCH  26   4
ATOM      4  O   UNL     1     -12.601  -6.798  14.975  0.00  0.00    -0.495 OA
ATOM     28  C   UNL     1     -11.919  -5.588  14.648  0.00  0.00    +0.277 C 
ENDBRANCH  26   4
ENDBRANCH  15  17
BRANCH   7  14
ATOM     14  C   UNL     1      -4.346 -12.497  15.602  0.00  0.00    +0.153 C 
BRANCH  14  16
ATOM     16  C   UNL     1      -3.240 -11.557  15.223  0.00  0.00    -0.030 A 
ATOM     18  C   UNL     1      -2.385 -11.069  16.205  0.00  0.00    +0.005 A 
ATOM     19  C   UNL     1      -3.080 -11.182  13.894  0.00  0.00    +0.005 A 
ATOM     22  C   UNL     1      -1.356 -10.195  15.853  0.00  0.00    +0.000 A 
ATOM     23  C   UNL     1      -2.051 -10.309  13.542  0.00  0.00    +0.000 A 
ATOM     27  C   UNL     1      -1.189  -9.815  14.522  0.00  0.00    +0.000 A 
ENDBRANCH  14  16
ENDBRANCH   7  14
TORSDOF 4
ENDMDL
MODEL 2
REMARK VINA RESULT:      -6.6     27.031     29.976
REMARK  Name = 7675197
REMARK  5 active torsions:
REMARK  status: ('A' for Active; 'I' for Inactive)
REMARK    1  A    between atoms: O_4  and  C_26
REMARK    2  A    between atoms: O_4  and  C_28
REMARK    3  A    between atoms: N_7  and  C_14
REMARK    4  A    between atoms: C_14  and  C_16
REMARK    5  A    between atoms: C_15  and  C_17
REMARK                            x       y       z     vdW  Elec       q    Type
REMARK                         _______ _______ _______ _____ _____    ______ ____
ROOT
ATOM      1  O   UNL     1      12.219  13.142  21.128  0.00  0.00    -0.273 OA
ATOM      2  O   UNL     1      10.799  10.908  24.901  0.00  0.00    -0.252 OA
ATOM      3  O   UNL     1      12.090   6.629  19.618  0.00  0.00    -0.270 OA
ATOM      5  N   UNL     1      11.013  10.272  22.658  0.00  0.00    -0.271 N 
ATOM      6  N   UNL     1      12.251   8.659  20.766  0.00  0.00    -0.294 N 
ATOM      7  N   UNL     1      11.515  12.366  23.217  0.00  0.00    -0.220 N 
ATOM      8  C   UNL     1      11.413  10.870  21.403  0.00  0.00    +0.181 C 
ATOM      9  C   UNL     1      12.577  10.098  20.800  0.00  0.00    +0.140 C 
ATOM     10  C   UNL     1      10.732   8.848  22.704  0.00  0.00    +0.129 C 
ATOM     11  C   UNL     1      11.892   8.078  22.069  0.00  0.00    +0.127 C 
ATOM     12  C   UNL     1      11.776  12.270  21.865  0.00  0.00    +0.245 C 
ATOM     13  C   UNL     1      11.069  11.160  23.734  0.00  0.00    +0.312 C 
ATOM     15  C   UNL     1      12.314   7.838  19.638  0.00  0.00    +0.247 C 
ENDROOT
BRANCH  15  17
ATOM     17  C   UNL     1      12.662   8.456  18.353  0.00  0.00    +0.037 A 
ATOM     20  C   UNL     1      13.993   8.750  18.063  0.00  0.00    +0.016 A 
ATOM     21  C   UNL     1      11.662   8.747  17.429  0.00  0.00    +0.016 A 
ATOM     24  C   UNL     1      14.325   9.337  16.841  0.00  0.00    +0.046 A 
ATOM     25  C   UNL     1      11.993   9.334  16.208  0.00  0.00    +0.046 A 
ATOM     26  C   UNL     1      13.324   9.629  15.914  0.00  0.00    +0.120 A 
BRANCH  26   4
ATOM      4  O   UNL     1      13.647  10.203  14.723  0.00  0.00    -0.495 OA
ATOM     28  C   UNL     1      13.868  11.613  14.721  0.00  0.00    +0.277 C 
ENDBRANCH  26   4
ENDBRANCH  15  17
BRANCH   7  14
ATOM     14  C   UNL     1      11.734  13.567  23.997  0.00  0.00    +0.153 C 
BRANCH  14  16
ATOM     16  C   UNL     1      13.023  13.511  24.763  0.00  0.00    -0.030 A 
ATOM     18  C   UNL     1      12.997  13.350  26.143  0.00  0.00    +0.005 A 
ATOM     19  C   UNL     1      14.232  13.621  24.085  0.00  0.00    +0.005 A 
ATOM     22  C   UNL     1      14.195  13.298  26.856  0.00  0.00    +0.000 A 
ATOM     23  C   UNL     1      15.431  13.568  24.797  0.00  0.00    +0.000 A 
ATOM     27  C   UNL     1      15.412  13.407  26.183  0.00  0.00    +0.000 A 
ENDBRANCH  14  16
ENDBRANCH   7  14
TORSDOF 4
ENDMDL
MODEL 3
REMARK VINA RESULT:      -6.5     27.432     30.791
REMARK  Name = 7675197
REMARK  5 active torsions:
REMARK  status: ('A' for Active; 'I' for Inactive)
REMARK    1  A    between atoms: O_4  and  C_26
REMARK    2  A    between atoms: O_4  and  C_28
REMARK    3  A    between atoms: N_7  and  C_14
REMARK    4  A    between atoms: C_14  and  C_16
REMARK    5  A    between atoms: C_15  and  C_17
REMARK                            x       y       z     vdW  Elec       q    Type
REMARK                         _______ _______ _______ _____ _____    ______ ____
ROOT
ATOM      1  O   UNL     1      14.087  10.170  23.154  0.00  0.00    -0.273 OA
ATOM      2  O   UNL     1      10.540   8.955  20.474  0.00  0.00    -0.252 OA
ATOM      3  O   UNL     1      16.446   5.865  18.615  0.00  0.00    -0.270 OA
ATOM      5  N   UNL     1      12.858   8.711  20.258  0.00  0.00    -0.271 N 
ATOM      6  N   UNL     1      15.053   7.016  20.097  0.00  0.00    -0.294 N 
ATOM      7  N   UNL     1      12.068   9.769  22.048  0.00  0.00    -0.220 N 
ATOM      8  C   UNL     1      14.052   9.062  20.997  0.00  0.00    +0.181 C 
ATOM      9  C   UNL     1      14.853   7.811  21.324  0.00  0.00    +0.140 C 
ATOM     10  C   UNL     1      12.981   7.883  19.071  0.00  0.00    +0.129 C 
ATOM     11  C   UNL     1      13.814   6.643  19.398  0.00  0.00    +0.127 C 
ATOM     12  C   UNL     1      13.439   9.737  22.211  0.00  0.00    +0.245 C 
ATOM     13  C   UNL     1      11.682   9.134  20.877  0.00  0.00    +0.312 C 
ATOM     15  C   UNL     1      16.283   6.568  19.610  0.00  0.00    +0.247 C 
ENDROOT
BRANCH  15  17
ATOM     17  C   UNL     1      17.498   6.973  20.327  0.00  0.00    +0.037 A 
ATOM     20  C   UNL     1      17.607   8.266  20.833  0.00  0.00    +0.016 A 
ATOM     21  C   UNL     1      18.538   6.063  20.497  0.00  0.00    +0.016 A 
ATOM     24  C   UNL     1      18.762   8.651  21.514  0.00  0.00    +0.046 A 
ATOM     25  C   UNL     1      19.693   6.447  21.178  0.00  0.00    +0.046 A 
ATOM     26  C   UNL     1      19.805   7.741  21.686  0.00  0.00    +0.120 A 
BRANCH  26   4
ATOM      4  O   UNL     1      20.933   8.117  22.350  0.00  0.00    -0.495 OA
ATOM     28  C   UNL     1      20.768   8.617  23.676  0.00  0.00    +0.277 C 
ENDBRANCH  26   4
ENDBRANCH  15  17
BRANCH   7  14
ATOM     14  C   UNL     1      11.155  10.349  23.011  0.00  0.00    +0.153 C 
BRANCH  14  16
ATOM     16  C   UNL     1      11.019  11.833  22.833  0.00  0.00    -0.030 A 
ATOM     18  C   UNL     1      11.322  12.409  21.605  0.00  0.00    +0.005 A 
ATOM     19  C   UNL     1      10.590  12.618  23.898  0.00  0.00    +0.005 A 
ATOM     22  C   UNL     1      11.196  13.789  21.438  0.00  0.00    +0.000 A 
ATOM     23  C   UNL     1      10.463  13.997  23.732  0.00  0.00    +0.000 A 
ATOM     27  C   UNL     1      10.766  14.583  22.502  0.00  0.00    +0.000 A 
ENDBRANCH  14  16
ENDBRANCH   7  14
TORSDOF 4
ENDMDL
MODEL 4
REMARK VINA RESULT:      -6.4      2.464      3.901
REMARK  Name = 7675197
REMARK  5 active torsions:
REMARK  status: ('A' for Active; 'I' for Inactive)
REMARK    1  A    between atoms: O_4  and  C_26
REMARK    2  A    between atoms: O_4  and  C_28
REMARK    3  A    between atoms: N_7  and  C_14
REMARK    4  A    between atoms: C_14  and  C_16
REMARK    5  A    between atoms: C_15  and  C_17
REMARK                            x       y       z     vdW  Elec       q    Type
REMARK                         _______ _______ _______ _____ _____    ______ ____
ROOT
ATOM      1  O   UNL     1      -6.309 -11.094  13.290  0.00  0.00    -0.273 OA
ATOM      2  O   UNL     1      -2.056 -12.189  14.689  0.00  0.00    -0.252 OA
ATOM      3  O   UNL     1      -6.251 -10.599  19.958  0.00  0.00    -0.270 OA
ATOM      5  N   UNL     1      -3.867 -11.156  15.753  0.00  0.00    -0.271 N 
ATOM      6  N   UNL     1      -5.790 -11.233  17.756  0.00  0.00    -0.294 N 
ATOM      7  N   UNL     1      -4.085 -11.736  13.617  0.00  0.00    -0.220 N 
ATOM      8  C   UNL     1      -5.215 -10.742  15.426  0.00  0.00    +0.181 C 
ATOM      9  C   UNL     1      -6.212 -11.420  16.354  0.00  0.00    +0.140 C 
ATOM     10  C   UNL     1      -3.410 -11.049  17.127  0.00  0.00    +0.129 C 
ATOM     11  C   UNL     1      -4.431 -11.705  18.058  0.00  0.00    +0.127 C 
ATOM     12  C   UNL     1      -5.305 -11.201  13.982  0.00  0.00    +0.245 C 
ATOM     13  C   UNL     1      -3.195 -11.741  14.679  0.00  0.00    +0.312 C 
ATOM     15  C   UNL     1      -6.584 -10.711  18.779  0.00  0.00    +0.247 C 
ENDROOT
BRANCH  15  17
ATOM     17  C   UNL     1      -7.930 -10.236  18.437  0.00  0.00    +0.037 A 
ATOM     20  C   UNL     1      -9.047 -10.866  18.982  0.00  0.00    +0.016 A 
ATOM     21  C   UNL     1      -8.085  -9.159  17.568  0.00  0.00    +0.016 A 
ATOM     24  C   UNL     1     -10.326 -10.415  18.657  0.00  0.00    +0.046 A 
ATOM     25  C   UNL     1      -9.365  -8.708  17.243  0.00  0.00    +0.046 A 
ATOM     26  C   UNL     1     -10.485  -9.336  17.786  0.00  0.00    +0.120 A 
BRANCH  26   4
ATOM      4  O   UNL     1     -11.733  -8.897  17.468  0.00  0.00    -0.495 OA
ATOM     28  C   UNL     1     -12.014  -8.689  16.085  0.00  0.00    +0.277 C 
ENDBRANCH  26   4
ENDBRANCH  15  17
BRANCH   7  14
ATOM     14  C   UNL     1      -3.801 -12.269  12.300  0.00  0.00    +0.153 C 
BRANCH  14  16
ATOM     16  C   UNL     1      -3.774 -11.195  11.252  0.00  0.00    -0.030 A 
ATOM     18  C   UNL     1      -2.840 -10.170  11.342  0.00  0.00    +0.005 A 
ATOM     19  C   UNL     1      -4.684 -11.235  10.201  0.00  0.00    +0.005 A 
ATOM     22  C   UNL     1      -2.814  -9.171  10.368  0.00  0.00    +0.000 A 
ATOM     23  C   UNL     1      -4.658 -10.237   9.227  0.00  0.00    +0.000 A 
ATOM     27  C   UNL     1      -3.723  -9.205   9.311  0.00  0.00    +0.000 A 
ENDBRANCH  14  16
ENDBRANCH   7  14
TORSDOF 4
ENDMDL
MODEL 5
REMARK VINA RESULT:      -6.2     25.113     29.214
REMARK  Name = 7675197
REMARK  5 active torsions:
REMARK  status: ('A' for Active; 'I' for Inactive)
REMARK    1  A    between atoms: O_4  and  C_26
REMARK    2  A    between atoms: O_4  and  C_28
REMARK    3  A    between atoms: N_7  and  C_14
REMARK    4  A    between atoms: C_14  and  C_16
REMARK    5  A    between atoms: C_15  and  C_17
REMARK                            x       y       z     vdW  Elec       q    Type
REMARK                         _______ _______ _______ _____ _____    ______ ____
ROOT
ATOM      1  O   UNL     1      12.649   3.596   2.070  0.00  0.00    -0.273 OA
ATOM      2  O   UNL     1      13.585   7.006  -0.885  0.00  0.00    -0.252 OA
ATOM      3  O   UNL     1      10.863   9.312   5.045  0.00  0.00    -0.270 OA
ATOM      5  N   UNL     1      12.306   6.899   1.073  0.00  0.00    -0.271 N 
ATOM      6  N   UNL     1      11.929   7.727   3.698  0.00  0.00    -0.294 N 
ATOM      7  N   UNL     1      13.285   5.039   0.346  0.00  0.00    -0.220 N 
ATOM      8  C   UNL     1      11.921   5.909   2.055  0.00  0.00    +0.181 C 
ATOM      9  C   UNL     1      12.373   6.342   3.442  0.00  0.00    +0.140 C 
ATOM     10  C   UNL     1      11.947   8.290   1.294  0.00  0.00    +0.129 C 
ATOM     11  C   UNL     1      12.376   8.710   2.701  0.00  0.00    +0.127 C 
ATOM     12  C   UNL     1      12.651   4.690   1.522  0.00  0.00    +0.245 C 
ATOM     13  C   UNL     1      13.111   6.384   0.057  0.00  0.00    +0.312 C 
ATOM     15  C   UNL     1      11.192   8.151   4.805  0.00  0.00    +0.247 C 
ENDROOT
BRANCH  15  17
ATOM     17  C   UNL     1      10.751   7.138   5.772  0.00  0.00    +0.037 A 
ATOM     20  C   UNL     1      11.459   6.957   6.958  0.00  0.00    +0.016 A 
ATOM     21  C   UNL     1       9.627   6.362   5.499  0.00  0.00    +0.016 A 
ATOM     24  C   UNL     1      11.040   5.995   7.877  0.00  0.00    +0.046 A 
ATOM     25  C   UNL     1       9.208   5.399   6.418  0.00  0.00    +0.046 A 
ATOM     26  C   UNL     1       9.915   5.215   7.606  0.00  0.00    +0.120 A 
BRANCH  26   4
ATOM      4  O   UNL     1       9.507   4.275   8.502  0.00  0.00    -0.495 OA
ATOM     28  C   UNL     1       9.421   4.676   9.869  0.00  0.00    +0.277 C 
ENDBRANCH  26   4
ENDBRANCH  15  17
BRANCH   7  14
ATOM     14  C   UNL     1      14.074   4.120  -0.448  0.00  0.00    +0.153 C 
BRANCH  14  16
ATOM     16  C   UNL     1      13.347   3.678  -1.684  0.00  0.00    -0.030 A 
ATOM     18  C   UNL     1      12.304   2.766  -1.579  0.00  0.00    +0.005 A 
ATOM     19  C   UNL     1      13.723   4.186  -2.923  0.00  0.00    +0.005 A 
ATOM     22  C   UNL     1      11.627   2.355  -2.727  0.00  0.00    +0.000 A 
ATOM     23  C   UNL     1      13.046   3.776  -4.071  0.00  0.00    +0.000 A 
ATOM     27  C   UNL     1      11.998   2.859  -3.974  0.00  0.00    +0.000 A 
ENDBRANCH  14  16
ENDBRANCH   7  14
TORSDOF 4
ENDMDL
MODEL 6
REMARK VINA RESULT:      -6.2      3.354      8.077
REMARK  Name = 7675197
REMARK  5 active torsions:
REMARK  status: ('A' for Active; 'I' for Inactive)
REMARK    1  A    between atoms: O_4  and  C_26
REMARK    2  A    between atoms: O_4  and  C_28
REMARK    3  A    between atoms: N_7  and  C_14
REMARK    4  A    between atoms: C_14  and  C_16
REMARK    5  A    between atoms: C_15  and  C_17
REMARK                            x       y       z     vdW  Elec       q    Type
REMARK                         _______ _______ _______ _____ _____    ______ ____
ROOT
ATOM      1  O   UNL     1      -7.522  -9.814  14.336  0.00  0.00    -0.273 OA
ATOM      2  O   UNL     1      -4.931 -10.570  18.072  0.00  0.00    -0.252 OA
ATOM      3  O   UNL     1      -1.321 -11.105  12.193  0.00  0.00    -0.270 OA
ATOM      5  N   UNL     1      -4.594 -10.972  15.791  0.00  0.00    -0.271 N 
ATOM      6  N   UNL     1      -3.148 -10.426  13.483  0.00  0.00    -0.294 N 
ATOM      7  N   UNL     1      -6.534 -10.097  16.435  0.00  0.00    -0.220 N 
ATOM      8  C   UNL     1      -5.320 -10.808  14.550  0.00  0.00    +0.181 C 
ATOM      9  C   UNL     1      -4.532  -9.925  13.593  0.00  0.00    +0.140 C 
ATOM     10  C   UNL     1      -3.209 -11.410  15.746  0.00  0.00    +0.129 C 
ATOM     11  C   UNL     1      -2.430 -10.538  14.760  0.00  0.00    +0.127 C 
ATOM     12  C   UNL     1      -6.602 -10.176  15.059  0.00  0.00    +0.245 C 
ATOM     13  C   UNL     1      -5.315 -10.555  16.910  0.00  0.00    +0.312 C 
ATOM     15  C   UNL     1      -2.489 -10.734  12.290  0.00  0.00    +0.247 C 
ENDROOT
BRANCH  15  17
ATOM     17  C   UNL     1      -3.243 -10.624  11.036  0.00  0.00    +0.037 A 
ATOM     20  C   UNL     1      -3.833 -11.757  10.480  0.00  0.00    +0.016 A 
ATOM     21  C   UNL     1      -3.366  -9.388  10.406  0.00  0.00    +0.016 A 
ATOM     24  C   UNL     1      -4.550 -11.653   9.287  0.00  0.00    +0.046 A 
ATOM     25  C   UNL     1      -4.082  -9.284   9.214  0.00  0.00    +0.046 A 
ATOM     26  C   UNL     1      -4.674 -10.416   8.654  0.00  0.00    +0.120 A 
BRANCH  26   4
ATOM      4  O   UNL     1      -5.372 -10.314   7.490  0.00  0.00    -0.495 OA
ATOM     28  C   UNL     1      -6.554  -9.516   7.511  0.00  0.00    +0.277 C 
ENDBRANCH  26   4
ENDBRANCH  15  17
BRANCH   7  14
ATOM     14  C   UNL     1      -7.590  -9.552  17.264  0.00  0.00    +0.153 C 
BRANCH  14  16
ATOM     16  C   UNL     1      -8.452 -10.628  17.856  0.00  0.00    -0.030 A 
ATOM     18  C   UNL     1      -9.463 -11.198  17.092  0.00  0.00    +0.005 A 
ATOM     19  C   UNL     1      -8.230 -11.047  19.164  0.00  0.00    +0.005 A 
ATOM     22  C   UNL     1     -10.264 -12.199  17.641  0.00  0.00    +0.000 A 
ATOM     23  C   UNL     1      -9.030 -12.048  19.713  0.00  0.00    +0.000 A 
ATOM     27  C   UNL     1     -10.048 -12.624  18.952  0.00  0.00    +0.000 A 
ENDBRANCH  14  16
ENDBRANCH   7  14
TORSDOF 4
ENDMDL
MODEL 7
REMARK VINA RESULT:      -6.0      4.941      8.549
REMARK  Name = 7675197
REMARK  5 active torsions:
REMARK  status: ('A' for Active; 'I' for Inactive)
REMARK    1  A    between atoms: O_4  and  C_26
REMARK    2  A    between atoms: O_4  and  C_28
REMARK    3  A    between atoms: N_7  and  C_14
REMARK    4  A    between atoms: C_14  and  C_16
REMARK    5  A    between atoms: C_15  and  C_17
REMARK                            x       y       z     vdW  Elec       q    Type
REMARK                         _______ _______ _______ _____ _____    ______ ____
ROOT
ATOM      1  O   UNL     1      -7.562 -10.611  11.713  0.00  0.00    -0.273 OA
ATOM      2  O   UNL     1      -4.461  -9.672   8.436  0.00  0.00    -0.252 OA
ATOM      3  O   UNL     1      -1.523 -11.021  14.555  0.00  0.00    -0.270 OA
ATOM      5  N   UNL     1      -4.326  -9.797  10.770  0.00  0.00    -0.271 N 
ATOM      6  N   UNL     1      -3.279 -11.058  13.013  0.00  0.00    -0.294 N 
ATOM      7  N   UNL     1      -6.302 -10.127   9.805  0.00  0.00    -0.220 N 
ATOM      8  C   UNL     1      -5.208 -10.052  11.887  0.00  0.00    +0.181 C 
ATOM      9  C   UNL     1      -4.708 -11.243  12.691  0.00  0.00    +0.140 C 
ATOM     10  C   UNL     1      -2.900  -9.661  11.013  0.00  0.00    +0.129 C 
ATOM     11  C   UNL     1      -2.409 -10.845  11.847  0.00  0.00    +0.127 C 
ATOM     12  C   UNL     1      -6.515 -10.306  11.158  0.00  0.00    +0.245 C 
ATOM     13  C   UNL     1      -4.974  -9.837   9.535  0.00  0.00    +0.312 C 
ATOM     15  C   UNL     1      -2.720 -11.126  14.290  0.00  0.00    +0.247 C 
ENDROOT
BRANCH  15  17
ATOM     17  C   UNL     1      -3.622 -11.326  15.430  0.00  0.00    +0.037 A 
ATOM     20  C   UNL     1      -3.974 -10.244  16.235  0.00  0.00    +0.016 A 
ATOM     21  C   UNL     1      -4.123 -12.596  15.704  0.00  0.00    +0.016 A 
ATOM     24  C   UNL     1      -4.832 -10.434  17.318  0.00  0.00    +0.046 A 
ATOM     25  C   UNL     1      -4.981 -12.787  16.788  0.00  0.00    +0.046 A 
ATOM     26  C   UNL     1      -5.334 -11.706  17.595  0.00  0.00    +0.120 A 
BRANCH  26   4
ATOM      4  O   UNL     1      -6.170 -11.891  18.653  0.00  0.00    -0.495 OA
ATOM     28  C   UNL     1      -6.605 -10.724  19.348  0.00  0.00    +0.277 C 
ENDBRANCH  26   4
ENDBRANCH  15  17
BRANCH   7  14
ATOM     14  C   UNL     1      -7.334 -10.279   8.800  0.00  0.00    +0.153 C 
BRANCH  14  16
ATOM     16  C   UNL     1      -7.868  -8.955   8.338  0.00  0.00    -0.030 A 
ATOM     18  C   UNL     1      -7.634  -8.536   7.034  0.00  0.00    +0.005 A 
ATOM     19  C   UNL     1      -8.594  -8.160   9.219  0.00  0.00    +0.005 A 
ATOM     22  C   UNL     1      -8.130  -7.305   6.603  0.00  0.00    +0.000 A 
ATOM     23  C   UNL     1      -9.090  -6.930   8.789  0.00  0.00    +0.000 A 
ATOM     27  C   UNL     1      -8.858  -6.502   7.481  0.00  0.00    +0.000 A 
ENDBRANCH  14  16
ENDBRANCH   7  14
TORSDOF 4
ENDMDL
MODEL 8
REMARK VINA RESULT:      -6.0      1.116      2.011
REMARK  Name = 7675197
REMARK  5 active torsions:
REMARK  status: ('A' for Active; 'I' for Inactive)
REMARK    1  A    between atoms: O_4  and  C_26
REMARK    2  A    between atoms: O_4  and  C_28
REMARK    3  A    between atoms: N_7  and  C_14
REMARK    4  A    between atoms: C_14  and  C_16
REMARK    5  A    between atoms: C_15  and  C_17
REMARK                            x       y       z     vdW  Elec       q    Type
REMARK                         _______ _______ _______ _____ _____    ______ ____
ROOT
ATOM      1  O   UNL     1      -5.603  -9.566  15.297  0.00  0.00    -0.273 OA
ATOM      2  O   UNL     1      -3.836 -11.897  18.859  0.00  0.00    -0.252 OA
ATOM      3  O   UNL     1     -10.549 -10.446  19.710  0.00  0.00    -0.270 OA
ATOM      5  N   UNL     1      -5.826 -10.698  18.568  0.00  0.00    -0.271 N 
ATOM      6  N   UNL     1      -8.601 -10.716  18.447  0.00  0.00    -0.294 N 
ATOM      7  N   UNL     1      -4.377 -10.769  16.882  0.00  0.00    -0.220 N 
ATOM      8  C   UNL     1      -6.472  -9.919  17.534  0.00  0.00    +0.181 C 
ATOM      9  C   UNL     1      -7.833 -10.513  17.202  0.00  0.00    +0.140 C 
ATOM     10  C   UNL     1      -6.550 -10.980  19.795  0.00  0.00    +0.129 C 
ATOM     11  C   UNL     1      -7.929 -11.548  19.456  0.00  0.00    +0.127 C 
ATOM     12  C   UNL     1      -5.455 -10.045  16.414  0.00  0.00    +0.245 C 
ATOM     13  C   UNL     1      -4.581 -11.198  18.184  0.00  0.00    +0.312 C 
ATOM     15  C   UNL     1      -9.889 -10.237  18.694  0.00  0.00    +0.247 C 
ENDROOT
BRANCH  15  17
ATOM     17  C   UNL     1     -10.522  -9.398  17.669  0.00  0.00    +0.037 A 
ATOM     20  C   UNL     1     -11.474  -9.947  16.814  0.00  0.00    +0.016 A 
ATOM     21  C   UNL     1     -10.168  -8.056  17.556  0.00  0.00    +0.016 A 
ATOM     24  C   UNL     1     -12.077  -9.151  15.840  0.00  0.00    +0.046 A 
ATOM     25  C   UNL     1     -10.770  -7.258  16.582  0.00  0.00    +0.046 A 
ATOM     26  C   UNL     1     -11.724  -7.806  15.724  0.00  0.00    +0.120 A 
BRANCH  26   4
ATOM      4  O   UNL     1     -12.310  -7.028  14.773  0.00  0.00    -0.495 OA
ATOM     28  C   UNL     1     -11.803  -5.704  14.614  0.00  0.00    +0.277 C 
ENDBRANCH  26   4
ENDBRANCH  15  17
BRANCH   7  14
ATOM     14  C   UNL     1      -3.208 -11.080  16.085  0.00  0.00    +0.153 C 
BRANCH  14  16
ATOM     16  C   UNL     1      -3.524 -12.035  14.972  0.00  0.00    -0.030 A 
ATOM     18  C   UNL     1      -4.129 -13.252  15.262  0.00  0.00    +0.005 A 
ATOM     19  C   UNL     1      -3.210 -11.693  13.661  0.00  0.00    +0.005 A 
ATOM     22  C   UNL     1      -4.424 -14.141  14.227  0.00  0.00    +0.000 A 
ATOM     23  C   UNL     1      -3.506 -12.581  12.626  0.00  0.00    +0.000 A 
ATOM     27  C   UNL     1      -4.113 -13.806  12.910  0.00  0.00    +0.000 A 
ENDBRANCH  14  16
ENDBRANCH   7  14
TORSDOF 4
ENDMDL
MODEL 9
REMARK VINA RESULT:      -6.0     27.160     30.251
REMARK  Name = 7675197
REMARK  5 active torsions:
REMARK  status: ('A' for Active; 'I' for Inactive)
REMARK    1  A    between atoms: O_4  and  C_26
REMARK    2  A    between atoms: O_4  and  C_28
REMARK    3  A    between atoms: N_7  and  C_14
REMARK    4  A    between atoms: C_14  and  C_16
REMARK    5  A    between atoms: C_15  and  C_17
REMARK                            x       y       z     vdW  Elec       q    Type
REMARK                         _______ _______ _______ _____ _____    ______ ____
ROOT
ATOM      1  O   UNL     1      14.419  12.483  17.868  0.00  0.00    -0.273 OA
ATOM      2  O   UNL     1      14.564   9.009  14.842  0.00  0.00    -0.252 OA
ATOM      3  O   UNL     1      11.766   7.140  20.889  0.00  0.00    -0.270 OA
ATOM      5  N   UNL     1      14.190   9.097  17.152  0.00  0.00    -0.271 N 
ATOM      6  N   UNL     1      12.455   8.692  19.282  0.00  0.00    -0.294 N 
ATOM      7  N   UNL     1      14.626  10.995  16.077  0.00  0.00    -0.220 N 
ATOM      8  C   UNL     1      14.144  10.096  18.197  0.00  0.00    +0.181 C 
ATOM      9  C   UNL     1      12.786  10.074  18.885  0.00  0.00    +0.140 C 
ATOM     10  C   UNL     1      13.821   7.728  17.466  0.00  0.00    +0.129 C 
ATOM     11  C   UNL     1      12.471   7.714  18.184  0.00  0.00    +0.127 C 
ATOM     12  C   UNL     1      14.407  11.355  17.392  0.00  0.00    +0.245 C 
ATOM     13  C   UNL     1      14.480   9.629  15.895  0.00  0.00    +0.312 C 
ATOM     15  C   UNL     1      12.090   8.282  20.566  0.00  0.00    +0.247 C 
ENDROOT
BRANCH  15  17
ATOM     17  C   UNL     1      12.099   9.283  21.640  0.00  0.00    +0.037 A 
ATOM     20  C   UNL     1      10.902   9.672  22.236  0.00  0.00    +0.016 A 
ATOM     21  C   UNL     1      13.305   9.839  22.059  0.00  0.00    +0.016 A 
ATOM     24  C   UNL     1      10.911  10.623  23.257  0.00  0.00    +0.046 A 
ATOM     25  C   UNL     1      13.315  10.790  23.080  0.00  0.00    +0.046 A 
ATOM     26  C   UNL     1      12.118  11.183  23.678  0.00  0.00    +0.120 A 
BRANCH  26   4
ATOM      4  O   UNL     1      12.126  12.111  24.673  0.00  0.00    -0.495 OA
ATOM     28  C   UNL     1      10.872  12.430  25.273  0.00  0.00    +0.277 C 
ENDBRANCH  26   4
ENDBRANCH  15  17
BRANCH   7  14
ATOM     14  C   UNL     1      14.918  11.942  15.020  0.00  0.00    +0.153 C 
BRANCH  14  16
ATOM     16  C   UNL     1      16.359  12.360  15.023  0.00  0.00    -0.030 A 
ATOM     18  C   UNL     1      17.324  11.503  14.508  0.00  0.00    +0.005 A 
ATOM     19  C   UNL     1      16.715  13.601  15.539  0.00  0.00    +0.005 A 
ATOM     22  C   UNL     1      18.664  11.890  14.509  0.00  0.00    +0.000 A 
ATOM     23  C   UNL     1      18.055  13.989  15.540  0.00  0.00    +0.000 A 
ATOM     27  C   UNL     1      19.030  13.134  15.025  0.00  0.00    +0.000 A 
ENDBRANCH  14  16
ENDBRANCH   7  14
TORSDOF 4
ENDMDL
MODEL 10
REMARK VINA RESULT:      -5.8     27.148     30.123
REMARK  Name = 7675197
REMARK  5 active torsions:
REMARK  status: ('A' for Active; 'I' for Inactive)
REMARK    1  A    between atoms: O_4  and  C_26
REMARK    2  A    between atoms: O_4  and  C_28
REMARK    3  A    between atoms: N_7  and  C_14
REMARK    4  A    between atoms: C_14  and  C_16
REMARK    5  A    between atoms: C_15  and  C_17
REMARK                            x       y       z     vdW  Elec       q    Type
REMARK                         _______ _______ _______ _____ _____    ______ ____
ROOT
ATOM      1  O   UNL     1      12.995   7.422   0.797  0.00  0.00    -0.273 OA
ATOM      2  O   UNL     1       9.707   4.210   1.121  0.00  0.00    -0.252 OA
ATOM      3  O   UNL     1      11.933   6.356   7.312  0.00  0.00    -0.270 OA
ATOM      5  N   UNL     1      11.226   5.097   2.665  0.00  0.00    -0.271 N 
ATOM      6  N   UNL     1      11.653   6.542   4.999  0.00  0.00    -0.294 N 
ATOM      7  N   UNL     1      11.305   5.824   0.565  0.00  0.00    -0.220 N 
ATOM      8  C   UNL     1      12.299   6.067   2.684  0.00  0.00    +0.181 C 
ATOM      9  C   UNL     1      12.004   7.157   3.704  0.00  0.00    +0.140 C 
ATOM     10  C   UNL     1      10.796   4.495   3.916  0.00  0.00    +0.129 C 
ATOM     11  C   UNL     1      10.530   5.594   4.946  0.00  0.00    +0.127 C 
ATOM     12  C   UNL     1      12.268   6.545   1.244  0.00  0.00    +0.245 C 
ATOM     13  C   UNL     1      10.639   4.949   1.408  0.00  0.00    +0.312 C 
ATOM     15  C   UNL     1      12.256   6.831   6.225  0.00  0.00    +0.247 C 
ENDROOT
BRANCH  15  17
ATOM     17  C   UNL     1      13.384   7.771   6.236  0.00  0.00    +0.037 A 
ATOM     20  C   UNL     1      14.674   7.310   5.987  0.00  0.00    +0.016 A 
ATOM     21  C   UNL     1      13.158   9.121   6.495  0.00  0.00    +0.016 A 
ATOM     24  C   UNL     1      15.746   8.203   5.997  0.00  0.00    +0.046 A 
ATOM     25  C   UNL     1      14.230  10.014   6.506  0.00  0.00    +0.046 A 
ATOM     26  C   UNL     1      15.523   9.556   6.257  0.00  0.00    +0.120 A 
BRANCH  26   4
ATOM      4  O   UNL     1      16.569  10.427   6.269  0.00  0.00    -0.495 OA
ATOM     28  C   UNL     1      17.877   9.872   6.142  0.00  0.00    +0.277 C 
ENDBRANCH  26   4
ENDBRANCH  15  17
BRANCH   7  14
ATOM     14  C   UNL     1      11.003   6.008  -0.840  0.00  0.00    +0.153 C 
BRANCH  14  16
ATOM     16  C   UNL     1      11.492   4.860  -1.674  0.00  0.00    -0.030 A 
ATOM     18  C   UNL     1      12.856   4.614  -1.772  0.00  0.00    +0.005 A 
ATOM     19  C   UNL     1      10.576   4.054  -2.341  0.00  0.00    +0.005 A 
ATOM     22  C   UNL     1      13.312   3.548  -2.548  0.00  0.00    +0.000 A 
ATOM     23  C   UNL     1      11.031   2.987  -3.115  0.00  0.00    +0.000 A 
ATOM     27  C   UNL     1      12.399   2.734  -3.219  0.00  0.00    +0.000 A 
ENDBRANCH  14  16
ENDBRANCH   7  14
TORSDOF 4
ENDMDL
