REMARK  Name = 75536800
REMARK  7 active torsions:
REMARK  status: ('A' for Active; 'I' for Inactive)
REMARK    1  A    between atoms: O_2  and  C_10
REMARK    2  A    between atoms: N_4  and  C_9
REMARK    3  A    between atoms: N_4  and  C_14
REMARK    4  A    between atoms: N_5  and  C_13
REMARK    5  A    between atoms: C_11  and  C_13
REMARK    6  A    between atoms: C_14  and  C_15
REMARK    7  A    between atoms: C_16  and  C_17
REMARK                            x       y       z     vdW  Elec       q    Type
REMARK                         _______ _______ _______ _____ _____    ______ ____
ROOT
ATOM      1  O   UNL     1       0.066  -0.920   0.086  0.00  0.00    -0.371 OA
ATOM      9  C   UNL     1      -1.995   0.193  -0.306  0.00  0.00    +0.111 C 
ATOM     10  C   UNL     1      -1.094   1.096   0.515  0.00  0.00    +0.164 C 
ATOM     11  C   UNL     1       0.273   0.496   0.216  0.00  0.00    +0.165 C 
ATOM     12  C   UNL     1      -1.341  -1.162  -0.091  0.00  0.00    +0.181 C 
ENDROOT
BRANCH  10   2
ATOM      2  O   UNL     1      -1.173   2.452   0.120  0.00  0.00    -0.388 OA
ATOM     25  H   UNL     1      -0.962   2.507  -0.827  0.00  0.00    +0.210 HD
ENDBRANCH  10   2
BRANCH   9   4
ATOM      4  N   UNL     1      -3.388   0.222   0.111  0.00  0.00    -0.302 NA
ATOM     24  H   UNL     1      -3.673   1.191   0.254  0.00  0.00    +0.123 HD
BRANCH   4  14
ATOM     14  C   UNL     1      -4.251  -0.381  -0.897  0.00  0.00    +0.156 C 
BRANCH  14  15
ATOM      6  N   UNL     1      -6.171  -1.263   0.450  0.00  0.00    -0.347 N 
ATOM      7  N   UNL     1      -6.640   0.432  -0.906  0.00  0.00    -0.240 NA
ATOM     15  C   UNL     1      -5.696  -0.375  -0.474  0.00  0.00    +0.121 A 
ATOM     18  C   UNL     1      -7.503  -1.007   0.619  0.00  0.00    +0.104 A 
ATOM     19  C   UNL     1      -7.769   0.043  -0.229  0.00  0.00    +0.130 A 
ATOM     27  H   UNL     1      -5.636  -1.979   0.924  0.00  0.00    +0.167 HD
ENDBRANCH  14  15
ENDBRANCH   4  14
ENDBRANCH   9   4
BRANCH  11  13
ATOM     13  C   UNL     1       1.299   0.767   1.302  0.00  0.00    +0.138 C 
BRANCH  13   5
ATOM      3  O   UNL     1       3.439   2.007  -0.155  0.00  0.00    -0.270 OA
ATOM      5  N   UNL     1       2.568   0.181   0.980  0.00  0.00    -0.309 N 
ATOM     16  C   UNL     1       3.551   0.859   0.266  0.00  0.00    +0.244 C 
ATOM     26  H   UNL     1       2.700  -0.790   1.241  0.00  0.00    +0.149 HD
BRANCH  16  17
ATOM      8  N   UNL     1       7.149  -1.321  -0.529  0.00  0.00    -0.263 NA
ATOM     17  C   UNL     1       4.801   0.103  -0.009  0.00  0.00    +0.040 A 
ATOM     20  C   UNL     1       5.573   0.414  -1.123  0.00  0.00    +0.033 A 
ATOM     21  C   UNL     1       5.201  -0.918   0.845  0.00  0.00    +0.033 A 
ATOM     22  C   UNL     1       6.728  -0.322  -1.336  0.00  0.00    +0.111 A 
ATOM     23  C   UNL     1       6.372  -1.594   0.543  0.00  0.00    +0.111 A 
ENDBRANCH  16  17
ENDBRANCH  13   5
ENDBRANCH  11  13
TORSDOF 7
