REMARK  Name = 75536691
REMARK  9 active torsions:
REMARK  status: ('A' for Active; 'I' for Inactive)
REMARK    1  A    between atoms: S_1  and  N_7
REMARK    2  A    between atoms: S_1  and  C_17
REMARK    3  A    between atoms: O_3  and  C_11
REMARK    4  A    between atoms: N_6  and  C_10
REMARK    5  A    between atoms: N_6  and  C_15
REMARK    6  A    between atoms: N_7  and  C_14
REMARK    7  A    between atoms: N_8  and  C_19
REMARK    8  A    between atoms: C_12  and  C_14
REMARK    9  A    between atoms: C_15  and  C_16
REMARK                            x       y       z     vdW  Elec       q    Type
REMARK                         _______ _______ _______ _____ _____    ______ ____
ROOT
ATOM      2  O   UNL     1      -0.026  -1.125   1.417  0.00  0.00    -0.371 OA
ATOM     10  C   UNL     1      -1.949  -1.080   0.023  0.00  0.00    +0.111 C 
ATOM     11  C   UNL     1      -0.724  -0.756  -0.812  0.00  0.00    +0.164 C 
ATOM     12  C   UNL     1       0.385  -1.335   0.056  0.00  0.00    +0.164 C 
ATOM     13  C   UNL     1      -1.431  -0.820   1.429  0.00  0.00    +0.181 C 
ENDROOT
BRANCH  11   3
ATOM      3  O   UNL     1      -0.762  -1.358  -2.092  0.00  0.00    -0.388 OA
ATOM     27  H   UNL     1      -0.868  -2.317  -1.975  0.00  0.00    +0.210 HD
ENDBRANCH  11   3
BRANCH  10   6
ATOM      6  N   UNL     1      -3.112  -0.274  -0.309  0.00  0.00    -0.302 NA
ATOM     26  H   UNL     1      -3.214  -0.237  -1.324  0.00  0.00    +0.123 HD
BRANCH   6  15
ATOM     15  C   UNL     1      -4.326  -0.841   0.267  0.00  0.00    +0.156 C 
BRANCH  15  16
ATOM      8  N   UNL     1      -5.806   1.168   0.587  0.00  0.00    -0.336 N 
ATOM      9  N   UNL     1      -6.457  -0.296  -0.950  0.00  0.00    -0.239 NA
ATOM     16  C   UNL     1      -5.540  -0.009  -0.054  0.00  0.00    +0.123 A 
ATOM     18  C   UNL     1      -6.968   1.665   0.066  0.00  0.00    +0.106 A 
ATOM     19  C   UNL     1      -5.017   1.789   1.625  0.00  0.00    +0.150 C 
ATOM     20  C   UNL     1      -7.351   0.744  -0.880  0.00  0.00    +0.130 A 
ENDBRANCH  15  16
ENDBRANCH   6  15
ENDBRANCH  10   6
BRANCH  12  14
ATOM     14  C   UNL     1       1.735  -0.682  -0.180  0.00  0.00    +0.140 C 
BRANCH  14   7
ATOM      7  N   UNL     1       2.745  -1.302   0.699  0.00  0.00    -0.187 NA
ATOM     28  H   UNL     1       2.549  -1.256   1.707  0.00  0.00    +0.148 HD
BRANCH   7   1
ATOM      1  S   UNL     1       4.367  -1.404   0.194  0.00  0.00    +0.058 S 
ATOM      4  O   UNL     1       4.427  -2.056  -1.100  0.00  0.00    -0.153 OA
ATOM      5  O   UNL     1       5.174  -1.892   1.296  0.00  0.00    -0.153 OA
BRANCH   1  17
ATOM     17  C   UNL     1       4.782   0.299  -0.035  0.00  0.00    +0.105 A 
ATOM     21  C   UNL     1       5.308   1.037   1.026  0.00  0.00    +0.028 A 
ATOM     22  C   UNL     1       4.580   0.906  -1.274  0.00  0.00    +0.028 A 
ATOM     23  C   UNL     1       5.632   2.382   0.847  0.00  0.00    +0.002 A 
ATOM     24  C   UNL     1       4.904   2.251  -1.453  0.00  0.00    +0.002 A 
ATOM     25  C   UNL     1       5.430   2.989  -0.393  0.00  0.00    +0.000 A 
ENDBRANCH   1  17
ENDBRANCH   7   1
ENDBRANCH  14   7
ENDBRANCH  12  14
TORSDOF 8
