MODEL 1
REMARK VINA RESULT:      -7.5      0.000      0.000
REMARK  Name = 51137254
REMARK  4 active torsions:
REMARK  status: ('A' for Active; 'I' for Inactive)
REMARK    1  A    between atoms: N_3  and  C_12
REMARK    2  A    between atoms: C_8  and  C_13
REMARK    3  A    between atoms: C_12  and  C_14
REMARK    4  A    between atoms: C_15  and  C_16
REMARK                            x       y       z     vdW  Elec       q    Type
REMARK                         _______ _______ _______ _____ _____    ______ ____
ROOT
ATOM      3  N   UNL     1      10.880   9.853  22.290  0.00  0.00    -0.294 NA
ATOM      8  C   UNL     1      11.398   8.810  20.254  0.00  0.00    +0.092 C 
ATOM      9  C   UNL     1      10.679   7.810  21.176  0.00  0.00    +0.029 C 
ATOM     10  C   UNL     1      11.835   9.950  21.183  0.00  0.00    +0.097 C 
ATOM     11  C   UNL     1      10.772   8.421  22.569  0.00  0.00    +0.085 C 
ENDROOT
BRANCH   8  13
ATOM      2  O   UNL     1      13.686   7.942  20.140  0.00  0.00    -0.420 OA
ATOM      4  N   UNL     1      12.613   7.947  18.177  0.00  0.00    -0.112 NA
ATOM      7  N   UNL     1      13.881   7.436  17.970  0.00  0.00    -0.107 NA
ATOM     13  C   UNL     1      12.543   8.228  19.458  0.00  0.00    +0.222 A 
ATOM     15  C   UNL     1      14.471   7.453  19.142  0.00  0.00    +0.248 A 
BRANCH  15  16
ATOM      1 CL   UNL     1      19.939   5.750  20.734  0.00  0.00    -0.084 Cl
ATOM     16  C   UNL     1      15.790   7.042  19.526  0.00  0.00    +0.039 A 
ATOM     19  C   UNL     1      16.476   6.097  18.763  0.00  0.00    +0.014 A 
ATOM     20  C   UNL     1      16.387   7.587  20.663  0.00  0.00    +0.014 A 
ATOM     21  C   UNL     1      17.760   5.698  19.136  0.00  0.00    +0.021 A 
ATOM     22  C   UNL     1      17.670   7.188  21.036  0.00  0.00    +0.021 A 
ATOM     23  C   UNL     1      18.357   6.243  20.273  0.00  0.00    +0.041 A 
ENDBRANCH  15  16
ENDBRANCH   8  13
BRANCH   3  12
ATOM     12  C   UNL     1      11.303  10.614  23.455  0.00  0.00    +0.158 C 
BRANCH  12  14
ATOM      5  N   UNL     1       9.967  12.627  24.117  0.00  0.00    -0.347 N 
ATOM      6  N   UNL     1      11.470  12.951  22.516  0.00  0.00    -0.239 NA
ATOM     14  C   UNL     1      10.939  12.071  23.336  0.00  0.00    +0.121 A 
ATOM     17  C   UNL     1       9.871  13.947  23.776  0.00  0.00    +0.104 A 
ATOM     18  C   UNL     1      10.808  14.122  22.786  0.00  0.00    +0.130 A 
ATOM     24  H   UNL     1       9.418  12.152  24.822  0.00  0.00    +0.167 HD
ENDBRANCH  12  14
ENDBRANCH   3  12
TORSDOF 4
ENDMDL
MODEL 2
REMARK VINA RESULT:      -6.8      1.388      1.981
REMARK  Name = 51137254
REMARK  4 active torsions:
REMARK  status: ('A' for Active; 'I' for Inactive)
REMARK    1  A    between atoms: N_3  and  C_12
REMARK    2  A    between atoms: C_8  and  C_13
REMARK    3  A    between atoms: C_12  and  C_14
REMARK    4  A    between atoms: C_15  and  C_16
REMARK                            x       y       z     vdW  Elec       q    Type
REMARK                         _______ _______ _______ _____ _____    ______ ____
ROOT
ATOM      3  N   UNL     1      11.655   9.513  21.185  0.00  0.00    -0.294 NA
ATOM      8  C   UNL     1      13.327   8.923  19.649  0.00  0.00    +0.092 C 
ATOM      9  C   UNL     1      11.959   8.447  19.130  0.00  0.00    +0.029 C 
ATOM     10  C   UNL     1      13.092   9.232  21.134  0.00  0.00    +0.097 C 
ATOM     11  C   UNL     1      11.040   8.485  20.345  0.00  0.00    +0.085 C 
ENDROOT
BRANCH   8  13
ATOM      2  O   UNL     1      15.560   8.092  20.220  0.00  0.00    -0.420 OA
ATOM      4  N   UNL     1      14.566   6.972  18.557  0.00  0.00    -0.112 NA
ATOM      7  N   UNL     1      15.808   6.404  18.773  0.00  0.00    -0.107 NA
ATOM     13  C   UNL     1      14.464   7.954  19.423  0.00  0.00    +0.222 A 
ATOM     15  C   UNL     1      16.351   7.089  19.752  0.00  0.00    +0.248 A 
BRANCH  15  16
ATOM      1 CL   UNL     1      21.638   6.497  22.404  0.00  0.00    -0.084 Cl
ATOM     16  C   UNL     1      17.626   6.946  20.392  0.00  0.00    +0.039 A 
ATOM     19  C   UNL     1      18.472   5.897  20.034  0.00  0.00    +0.014 A 
ATOM     20  C   UNL     1      18.021   7.857  21.372  0.00  0.00    +0.014 A 
ATOM     21  C   UNL     1      19.714   5.759  20.656  0.00  0.00    +0.021 A 
ATOM     22  C   UNL     1      19.261   7.719  21.994  0.00  0.00    +0.021 A 
ATOM     23  C   UNL     1      20.108   6.669  21.637  0.00  0.00    +0.041 A 
ENDBRANCH  15  16
ENDBRANCH   8  13
BRANCH   3  12
ATOM     12  C   UNL     1      11.136   9.501  22.544  0.00  0.00    +0.158 C 
BRANCH  12  14
ATOM      5  N   UNL     1      10.136  11.446  23.767  0.00  0.00    -0.347 N 
ATOM      6  N   UNL     1      12.296  11.619  23.282  0.00  0.00    -0.239 NA
ATOM     14  C   UNL     1      11.227  10.859  23.190  0.00  0.00    +0.121 A 
ATOM     17  C   UNL     1      10.534  12.657  24.259  0.00  0.00    +0.104 A 
ATOM     18  C   UNL     1      11.870  12.741  23.948  0.00  0.00    +0.130 A 
ATOM     24  H   UNL     1       9.203  11.057  23.822  0.00  0.00    +0.167 HD
ENDBRANCH  12  14
ENDBRANCH   3  12
TORSDOF 4
ENDMDL
MODEL 3
REMARK VINA RESULT:      -6.7      3.826      8.244
REMARK  Name = 51137254
REMARK  4 active torsions:
REMARK  status: ('A' for Active; 'I' for Inactive)
REMARK    1  A    between atoms: N_3  and  C_12
REMARK    2  A    between atoms: C_8  and  C_13
REMARK    3  A    between atoms: C_12  and  C_14
REMARK    4  A    between atoms: C_15  and  C_16
REMARK                            x       y       z     vdW  Elec       q    Type
REMARK                         _______ _______ _______ _____ _____    ______ ____
ROOT
ATOM      3  N   UNL     1      15.996   7.428  21.036  0.00  0.00    -0.294 NA
ATOM      8  C   UNL     1      13.703   7.149  21.445  0.00  0.00    +0.092 C 
ATOM      9  C   UNL     1      13.970   7.068  19.932  0.00  0.00    +0.029 C 
ATOM     10  C   UNL     1      14.977   7.772  22.031  0.00  0.00    +0.097 C 
ATOM     11  C   UNL     1      15.356   7.671  19.743  0.00  0.00    +0.085 C 
ENDROOT
BRANCH   8  13
ATOM      2  O   UNL     1      12.608   9.179  22.271  0.00  0.00    -0.420 OA
ATOM      4  N   UNL     1      11.198   7.506  21.805  0.00  0.00    -0.112 NA
ATOM      7  N   UNL     1      10.453   8.580  22.257  0.00  0.00    -0.107 NA
ATOM     13  C   UNL     1      12.450   7.901  21.830  0.00  0.00    +0.222 A 
ATOM     15  C   UNL     1      11.317   9.532  22.516  0.00  0.00    +0.248 A 
BRANCH  15  16
ATOM      1 CL   UNL     1      10.479  15.051  24.562  0.00  0.00    -0.084 Cl
ATOM     16  C   UNL     1      11.115  10.864  23.009  0.00  0.00    +0.039 A 
ATOM     19  C   UNL     1      10.977  11.086  24.380  0.00  0.00    +0.014 A 
ATOM     20  C   UNL     1      11.056  11.936  22.120  0.00  0.00    +0.014 A 
ATOM     21  C   UNL     1      10.781  12.381  24.859  0.00  0.00    +0.021 A 
ATOM     22  C   UNL     1      10.860  13.231  22.600  0.00  0.00    +0.021 A 
ATOM     23  C   UNL     1      10.722  13.454  23.970  0.00  0.00    +0.041 A 
ENDBRANCH  15  16
ENDBRANCH   8  13
BRANCH   3  12
ATOM     12  C   UNL     1      17.217   8.200  21.203  0.00  0.00    +0.158 C 
BRANCH  12  14
ATOM      5  N   UNL     1      19.149   7.267  22.498  0.00  0.00    -0.347 N 
ATOM      6  N   UNL     1      18.925   6.513  20.421  0.00  0.00    -0.239 NA
ATOM     14  C   UNL     1      18.427   7.313  21.339  0.00  0.00    +0.121 A 
ATOM     17  C   UNL     1      20.172   6.381  22.309  0.00  0.00    +0.104 A 
ATOM     18  C   UNL     1      20.013   5.930  21.020  0.00  0.00    +0.130 A 
ATOM     24  H   UNL     1      18.961   7.790  23.343  0.00  0.00    +0.167 HD
ENDBRANCH  12  14
ENDBRANCH   3  12
TORSDOF 4
ENDMDL
MODEL 4
REMARK VINA RESULT:      -6.7      5.184     10.011
REMARK  Name = 51137254
REMARK  4 active torsions:
REMARK  status: ('A' for Active; 'I' for Inactive)
REMARK    1  A    between atoms: N_3  and  C_12
REMARK    2  A    between atoms: C_8  and  C_13
REMARK    3  A    between atoms: C_12  and  C_14
REMARK    4  A    between atoms: C_15  and  C_16
REMARK                            x       y       z     vdW  Elec       q    Type
REMARK                         _______ _______ _______ _____ _____    ______ ____
ROOT
ATOM      3  N   UNL     1      21.215   5.644  21.736  0.00  0.00    -0.294 NA
ATOM      8  C   UNL     1      19.481   6.655  20.523  0.00  0.00    +0.092 C 
ATOM      9  C   UNL     1      19.497   7.209  21.958  0.00  0.00    +0.029 C 
ATOM     10  C   UNL     1      20.343   5.387  20.587  0.00  0.00    +0.097 C 
ATOM     11  C   UNL     1      20.336   6.219  22.755  0.00  0.00    +0.085 C 
ENDROOT
BRANCH   8  13
ATOM      2  O   UNL     1      17.059   7.010  20.579  0.00  0.00    -0.420 OA
ATOM      4  N   UNL     1      17.746   5.667  18.926  0.00  0.00    -0.112 NA
ATOM      7  N   UNL     1      16.371   5.781  18.841  0.00  0.00    -0.107 NA
ATOM     13  C   UNL     1      18.104   6.401  19.955  0.00  0.00    +0.222 A 
ATOM     15  C   UNL     1      16.014   6.573  19.824  0.00  0.00    +0.248 A 
BRANCH  15  16
ATOM      1 CL   UNL     1      10.638   8.511  21.462  0.00  0.00    -0.084 Cl
ATOM     16  C   UNL     1      14.717   7.040  20.219  0.00  0.00    +0.039 A 
ATOM     19  C   UNL     1      14.527   7.575  21.494  0.00  0.00    +0.014 A 
ATOM     20  C   UNL     1      13.645   6.960  19.330  0.00  0.00    +0.014 A 
ATOM     21  C   UNL     1      13.265   8.030  21.877  0.00  0.00    +0.021 A 
ATOM     22  C   UNL     1      12.385   7.416  19.714  0.00  0.00    +0.021 A 
ATOM     23  C   UNL     1      12.194   7.950  20.988  0.00  0.00    +0.041 A 
ENDBRANCH  15  16
ENDBRANCH   8  13
BRANCH   3  12
ATOM     12  C   UNL     1      21.889   4.441  22.201  0.00  0.00    +0.158 C 
BRANCH  12  14
ATOM      5  N   UNL     1      23.188   2.774  20.855  0.00  0.00    -0.347 N 
ATOM      6  N   UNL     1      23.982   4.848  20.850  0.00  0.00    -0.239 NA
ATOM     14  C   UNL     1      23.034   4.056  21.301  0.00  0.00    +0.121 A 
ATOM     17  C   UNL     1      24.305   2.745  20.069  0.00  0.00    +0.104 A 
ATOM     18  C   UNL     1      24.777   4.036  20.081  0.00  0.00    +0.130 A 
ATOM     24  H   UNL     1      22.585   1.989  21.065  0.00  0.00    +0.167 HD
ENDBRANCH  12  14
ENDBRANCH   3  12
TORSDOF 4
ENDMDL
MODEL 5
REMARK VINA RESULT:      -6.7     26.666     29.450
REMARK  Name = 51137254
REMARK  4 active torsions:
REMARK  status: ('A' for Active; 'I' for Inactive)
REMARK    1  A    between atoms: N_3  and  C_12
REMARK    2  A    between atoms: C_8  and  C_13
REMARK    3  A    between atoms: C_12  and  C_14
REMARK    4  A    between atoms: C_15  and  C_16
REMARK                            x       y       z     vdW  Elec       q    Type
REMARK                         _______ _______ _______ _____ _____    ______ ____
ROOT
ATOM      3  N   UNL     1      -4.473 -11.567  17.417  0.00  0.00    -0.294 NA
ATOM      8  C   UNL     1      -6.166 -10.722  18.803  0.00  0.00    +0.092 C 
ATOM      9  C   UNL     1      -5.615 -12.029  19.401  0.00  0.00    +0.029 C 
ATOM     10  C   UNL     1      -5.665 -10.717  17.353  0.00  0.00    +0.097 C 
ATOM     11  C   UNL     1      -4.863 -12.699  18.258  0.00  0.00    +0.085 C 
ENDROOT
BRANCH   8  13
ATOM      2  O   UNL     1      -8.251  -9.687  18.042  0.00  0.00    -0.420 OA
ATOM      4  N   UNL     1      -8.514 -11.139  19.724  0.00  0.00    -0.112 NA
ATOM      7  N   UNL     1      -9.759 -10.634  19.396  0.00  0.00    -0.107 NA
ATOM     13  C   UNL     1      -7.665 -10.558  18.908  0.00  0.00    +0.222 A 
ATOM     15  C   UNL     1      -9.557  -9.792  18.410  0.00  0.00    +0.248 A 
BRANCH  15  16
ATOM      1 CL   UNL     1     -13.395  -6.424  15.365  0.00  0.00    -0.084 Cl
ATOM     16  C   UNL     1     -10.483  -8.980  17.676  0.00  0.00    +0.039 A 
ATOM     19  C   UNL     1     -10.073  -7.751  17.156  0.00  0.00    +0.014 A 
ATOM     20  C   UNL     1     -11.793  -9.417  17.481  0.00  0.00    +0.014 A 
ATOM     21  C   UNL     1     -10.974  -6.962  16.441  0.00  0.00    +0.021 A 
ATOM     22  C   UNL     1     -12.693  -8.628  16.766  0.00  0.00    +0.021 A 
ATOM     23  C   UNL     1     -12.284  -7.399  16.246  0.00  0.00    +0.041 A 
ENDBRANCH  15  16
ENDBRANCH   8  13
BRANCH   3  12
ATOM     12  C   UNL     1      -4.019 -11.986  16.100  0.00  0.00    +0.158 C 
BRANCH  12  14
ATOM      5  N   UNL     1      -1.731 -11.027  16.446  0.00  0.00    -0.347 N 
ATOM      6  N   UNL     1      -2.671 -10.595  14.481  0.00  0.00    -0.239 NA
ATOM     14  C   UNL     1      -2.822 -11.195  15.641  0.00  0.00    +0.121 A 
ATOM     17  C   UNL     1      -0.825 -10.271  15.756  0.00  0.00    +0.104 A 
ATOM     18  C   UNL     1      -1.428 -10.017  14.547  0.00  0.00    +0.130 A 
ATOM     24  H   UNL     1      -1.612 -11.394  17.381  0.00  0.00    +0.167 HD
ENDBRANCH  12  14
ENDBRANCH   3  12
TORSDOF 4
ENDMDL
MODEL 6
REMARK VINA RESULT:      -6.6      3.470      5.018
REMARK  Name = 51137254
REMARK  4 active torsions:
REMARK  status: ('A' for Active; 'I' for Inactive)
REMARK    1  A    between atoms: N_3  and  C_12
REMARK    2  A    between atoms: C_8  and  C_13
REMARK    3  A    between atoms: C_12  and  C_14
REMARK    4  A    between atoms: C_15  and  C_16
REMARK                            x       y       z     vdW  Elec       q    Type
REMARK                         _______ _______ _______ _____ _____    ______ ____
ROOT
ATOM      3  N   UNL     1      12.463   7.992  19.939  0.00  0.00    -0.294 NA
ATOM      8  C   UNL     1      14.388   6.791  20.534  0.00  0.00    +0.092 C 
ATOM      9  C   UNL     1      14.299   8.074  21.379  0.00  0.00    +0.029 C 
ATOM     10  C   UNL     1      13.404   7.019  19.379  0.00  0.00    +0.097 C 
ATOM     11  C   UNL     1      13.300   8.961  20.647  0.00  0.00    +0.085 C 
ENDROOT
BRANCH   8  13
ATOM      2  O   UNL     1      16.781   6.518  20.979  0.00  0.00    -0.420 OA
ATOM      4  N   UNL     1      16.185   6.053  18.873  0.00  0.00    -0.112 NA
ATOM      7  N   UNL     1      17.549   5.859  18.984  0.00  0.00    -0.107 NA
ATOM     13  C   UNL     1      15.778   6.437  20.061  0.00  0.00    +0.222 A 
ATOM     15  C   UNL     1      17.852   6.142  20.229  0.00  0.00    +0.248 A 
BRANCH  15  16
ATOM      1 CL   UNL     1      23.086   6.035  23.046  0.00  0.00    -0.084 Cl
ATOM     16  C   UNL     1      19.115   6.116  20.909  0.00  0.00    +0.039 A 
ATOM     19  C   UNL     1      20.152   5.321  20.422  0.00  0.00    +0.014 A 
ATOM     20  C   UNL     1      19.305   6.886  22.056  0.00  0.00    +0.014 A 
ATOM     21  C   UNL     1      21.381   5.297  21.083  0.00  0.00    +0.021 A 
ATOM     22  C   UNL     1      20.533   6.861  22.716  0.00  0.00    +0.021 A 
ATOM     23  C   UNL     1      21.572   6.066  22.231  0.00  0.00    +0.041 A 
ENDBRANCH  15  16
ENDBRANCH   8  13
BRANCH   3  12
ATOM     12  C   UNL     1      11.637   8.616  18.917  0.00  0.00    +0.158 C 
BRANCH  12  14
ATOM      5  N   UNL     1      12.965  10.296  17.616  0.00  0.00    -0.347 N 
ATOM      6  N   UNL     1      12.751   8.297  16.674  0.00  0.00    -0.239 NA
ATOM     14  C   UNL     1      12.448   9.035  17.719  0.00  0.00    +0.121 A 
ATOM     17  C   UNL     1      13.642  10.367  16.431  0.00  0.00    +0.104 A 
ATOM     18  C   UNL     1      13.495   9.121  15.868  0.00  0.00    +0.130 A 
ATOM     24  H   UNL     1      12.869  11.042  18.293  0.00  0.00    +0.167 HD
ENDBRANCH  12  14
ENDBRANCH   3  12
TORSDOF 4
ENDMDL
MODEL 7
REMARK VINA RESULT:      -6.3     29.937     31.101
REMARK  Name = 51137254
REMARK  4 active torsions:
REMARK  status: ('A' for Active; 'I' for Inactive)
REMARK    1  A    between atoms: N_3  and  C_12
REMARK    2  A    between atoms: C_8  and  C_13
REMARK    3  A    between atoms: C_12  and  C_14
REMARK    4  A    between atoms: C_15  and  C_16
REMARK                            x       y       z     vdW  Elec       q    Type
REMARK                         _______ _______ _______ _____ _____    ______ ____
ROOT
ATOM      3  N   UNL     1     -16.144   2.374  27.835  0.00  0.00    -0.294 NA
ATOM      8  C   UNL     1     -14.906   1.945  29.780  0.00  0.00    +0.092 C 
ATOM      9  C   UNL     1     -15.873   0.777  29.516  0.00  0.00    +0.029 C 
ATOM     10  C   UNL     1     -15.425   3.086  28.895  0.00  0.00    +0.097 C 
ATOM     11  C   UNL     1     -16.893   1.325  28.527  0.00  0.00    +0.085 C 
ENDROOT
BRANCH   8  13
ATOM      2  O   UNL     1     -14.433   3.635  31.488  0.00  0.00    -0.420 OA
ATOM      4  N   UNL     1     -14.932   1.617  32.315  0.00  0.00    -0.112 NA
ATOM      7  N   UNL     1     -14.690   2.467  33.378  0.00  0.00    -0.107 NA
ATOM     13  C   UNL     1     -14.771   2.342  31.232  0.00  0.00    +0.222 A 
ATOM     15  C   UNL     1     -14.403   3.633  32.849  0.00  0.00    +0.248 A 
BRANCH  15  16
ATOM      1 CL   UNL     1     -13.017   8.807  35.426  0.00  0.00    -0.084 Cl
ATOM     16  C   UNL     1     -14.069   4.881  33.471  0.00  0.00    +0.039 A 
ATOM     19  C   UNL     1     -13.779   5.996  32.684  0.00  0.00    +0.014 A 
ATOM     20  C   UNL     1     -14.034   4.980  34.861  0.00  0.00    +0.014 A 
ATOM     21  C   UNL     1     -13.454   7.210  33.290  0.00  0.00    +0.021 A 
ATOM     22  C   UNL     1     -13.709   6.194  35.466  0.00  0.00    +0.021 A 
ATOM     23  C   UNL     1     -13.419   7.310  34.681  0.00  0.00    +0.041 A 
ENDBRANCH  15  16
ENDBRANCH   8  13
BRANCH   3  12
ATOM     12  C   UNL     1     -17.008   3.255  27.064  0.00  0.00    +0.158 C 
BRANCH  12  14
ATOM      5  N   UNL     1     -16.162   4.814  25.294  0.00  0.00    -0.347 N 
ATOM      6  N   UNL     1     -16.162   2.658  24.762  0.00  0.00    -0.239 NA
ATOM     14  C   UNL     1     -16.443   3.539  25.696  0.00  0.00    +0.121 A 
ATOM     17  C   UNL     1     -15.669   4.743  24.022  0.00  0.00    +0.104 A 
ATOM     18  C   UNL     1     -15.678   3.403  23.715  0.00  0.00    +0.130 A 
ATOM     24  H   UNL     1     -16.292   5.657  25.837  0.00  0.00    +0.167 HD
ENDBRANCH  12  14
ENDBRANCH   3  12
TORSDOF 4
ENDMDL
MODEL 8
REMARK VINA RESULT:      -6.3      3.565      4.257
REMARK  Name = 51137254
REMARK  4 active torsions:
REMARK  status: ('A' for Active; 'I' for Inactive)
REMARK    1  A    between atoms: N_3  and  C_12
REMARK    2  A    between atoms: C_8  and  C_13
REMARK    3  A    between atoms: C_12  and  C_14
REMARK    4  A    between atoms: C_15  and  C_16
REMARK                            x       y       z     vdW  Elec       q    Type
REMARK                         _______ _______ _______ _____ _____    ______ ____
ROOT
ATOM      3  N   UNL     1      11.463   7.889  21.901  0.00  0.00    -0.294 NA
ATOM      8  C   UNL     1      12.127   7.361  19.714  0.00  0.00    +0.092 C 
ATOM      9  C   UNL     1      13.355   7.355  20.642  0.00  0.00    +0.029 C 
ATOM     10  C   UNL     1      11.042   8.095  20.513  0.00  0.00    +0.097 C 
ATOM     11  C   UNL     1      12.911   8.104  21.891  0.00  0.00    +0.085 C 
ENDROOT
BRANCH   8  13
ATOM      2  O   UNL     1      13.387   8.860  18.242  0.00  0.00    -0.420 OA
ATOM      4  N   UNL     1      11.724   7.762  17.222  0.00  0.00    -0.112 NA
ATOM      7  N   UNL     1      12.346   8.564  16.283  0.00  0.00    -0.107 NA
ATOM     13  C   UNL     1      12.365   7.967  18.350  0.00  0.00    +0.222 A 
ATOM     15  C   UNL     1      13.309   9.185  16.923  0.00  0.00    +0.248 A 
BRANCH  15  16
ATOM      1 CL   UNL     1      17.311  13.130  14.981  0.00  0.00    -0.084 Cl
ATOM     16  C   UNL     1      14.274  10.137  16.455  0.00  0.00    +0.039 A 
ATOM     19  C   UNL     1      14.773  10.043  15.155  0.00  0.00    +0.014 A 
ATOM     20  C   UNL     1      14.715  11.157  17.298  0.00  0.00    +0.014 A 
ATOM     21  C   UNL     1      15.711  10.970  14.700  0.00  0.00    +0.021 A 
ATOM     22  C   UNL     1      15.653  12.082  16.843  0.00  0.00    +0.021 A 
ATOM     23  C   UNL     1      16.152  11.989  15.543  0.00  0.00    +0.041 A 
ENDBRANCH  15  16
ENDBRANCH   8  13
BRANCH   3  12
ATOM     12  C   UNL     1      10.778   8.778  22.826  0.00  0.00    +0.158 C 
BRANCH  12  14
ATOM      5  N   UNL     1      12.068  10.638  23.902  0.00  0.00    -0.347 N 
ATOM      6  N   UNL     1      11.321  11.042  21.849  0.00  0.00    -0.239 NA
ATOM     14  C   UNL     1      11.377  10.161  22.824  0.00  0.00    +0.121 A 
ATOM     17  C   UNL     1      12.480  11.904  23.596  0.00  0.00    +0.104 A 
ATOM     18  C   UNL     1      12.007  12.131  22.325  0.00  0.00    +0.130 A 
ATOM     24  H   UNL     1      12.244  10.146  24.767  0.00  0.00    +0.167 HD
ENDBRANCH  12  14
ENDBRANCH   3  12
TORSDOF 4
ENDMDL
MODEL 9
REMARK VINA RESULT:      -6.2     27.732     29.901
REMARK  Name = 51137254
REMARK  4 active torsions:
REMARK  status: ('A' for Active; 'I' for Inactive)
REMARK    1  A    between atoms: N_3  and  C_12
REMARK    2  A    between atoms: C_8  and  C_13
REMARK    3  A    between atoms: C_12  and  C_14
REMARK    4  A    between atoms: C_15  and  C_16
REMARK                            x       y       z     vdW  Elec       q    Type
REMARK                         _______ _______ _______ _____ _____    ______ ____
ROOT
ATOM      3  N   UNL     1     -16.190   2.028  28.687  0.00  0.00    -0.294 NA
ATOM      8  C   UNL     1     -16.848   3.033  26.672  0.00  0.00    +0.092 C 
ATOM      9  C   UNL     1     -17.720   1.793  26.939  0.00  0.00    +0.029 C 
ATOM     10  C   UNL     1     -15.652   2.877  27.621  0.00  0.00    +0.097 C 
ATOM     11  C   UNL     1     -16.962   0.997  27.993  0.00  0.00    +0.085 C 
ENDROOT
BRANCH   8  13
ATOM      2  O   UNL     1     -15.771   4.369  24.924  0.00  0.00    -0.420 OA
ATOM      4  N   UNL     1     -16.619   2.430  24.199  0.00  0.00    -0.112 NA
ATOM      7  N   UNL     1     -16.046   3.077  23.119  0.00  0.00    -0.107 NA
ATOM     13  C   UNL     1     -16.435   3.220  25.231  0.00  0.00    +0.222 A 
ATOM     15  C   UNL     1     -15.564   4.203  23.590  0.00  0.00    +0.248 A 
BRANCH  15  16
ATOM      1 CL   UNL     1     -12.673   8.611  20.841  0.00  0.00    -0.084 Cl
ATOM     16  C   UNL     1     -14.867   5.266  22.927  0.00  0.00    +0.039 A 
ATOM     19  C   UNL     1     -15.348   6.573  23.008  0.00  0.00    +0.014 A 
ATOM     20  C   UNL     1     -13.708   4.994  22.200  0.00  0.00    +0.014 A 
ATOM     21  C   UNL     1     -14.668   7.607  22.364  0.00  0.00    +0.021 A 
ATOM     22  C   UNL     1     -13.029   6.028  21.555  0.00  0.00    +0.021 A 
ATOM     23  C   UNL     1     -13.509   7.335  21.637  0.00  0.00    +0.041 A 
ENDBRANCH  15  16
ENDBRANCH   8  13
BRANCH   3  12
ATOM     12  C   UNL     1     -15.145   1.466  29.528  0.00  0.00    +0.158 C 
BRANCH  12  14
ATOM      5  N   UNL     1     -13.266   2.441  30.870  0.00  0.00    -0.347 N 
ATOM      6  N   UNL     1     -15.209   3.507  31.012  0.00  0.00    -0.239 NA
ATOM     14  C   UNL     1     -14.573   2.491  30.473  0.00  0.00    +0.121 A 
ATOM     17  C   UNL     1     -13.055   3.493  31.715  0.00  0.00    +0.104 A 
ATOM     18  C   UNL     1     -14.267   4.136  31.787  0.00  0.00    +0.130 A 
ATOM     24  H   UNL     1     -12.579   1.753  30.589  0.00  0.00    +0.167 HD
ENDBRANCH  12  14
ENDBRANCH   3  12
TORSDOF 4
ENDMDL
MODEL 10
REMARK VINA RESULT:      -6.2     26.542     28.684
REMARK  Name = 51137254
REMARK  4 active torsions:
REMARK  status: ('A' for Active; 'I' for Inactive)
REMARK    1  A    between atoms: N_3  and  C_12
REMARK    2  A    between atoms: C_8  and  C_13
REMARK    3  A    between atoms: C_12  and  C_14
REMARK    4  A    between atoms: C_15  and  C_16
REMARK                            x       y       z     vdW  Elec       q    Type
REMARK                         _______ _______ _______ _____ _____    ______ ____
ROOT
ATOM      3  N   UNL     1      -2.297 -11.026  13.621  0.00  0.00    -0.294 NA
ATOM      8  C   UNL     1      -3.116 -10.303  15.696  0.00  0.00    +0.092 C 
ATOM      9  C   UNL     1      -1.739 -10.965  15.887  0.00  0.00    +0.029 C 
ATOM     10  C   UNL     1      -3.566 -10.740  14.296  0.00  0.00    +0.097 C 
ATOM     11  C   UNL     1      -1.501 -11.756  14.607  0.00  0.00    +0.085 C 
ENDROOT
BRANCH   8  13
ATOM      2  O   UNL     1      -5.387 -10.133  16.597  0.00  0.00    -0.420 OA
ATOM      4  N   UNL     1      -3.988 -11.330  17.869  0.00  0.00    -0.112 NA
ATOM      7  N   UNL     1      -5.224 -11.316  18.489  0.00  0.00    -0.107 NA
ATOM     13  C   UNL     1      -4.130 -10.628  16.768  0.00  0.00    +0.222 A 
ATOM     15  C   UNL     1      -6.008 -10.607  17.712  0.00  0.00    +0.248 A 
BRANCH  15  16
ATOM      1 CL   UNL     1     -11.745  -9.168  18.299  0.00  0.00    -0.084 Cl
ATOM     16  C   UNL     1      -7.392 -10.260  17.854  0.00  0.00    +0.039 A 
ATOM     19  C   UNL     1      -7.929  -9.215  17.102  0.00  0.00    +0.014 A 
ATOM     20  C   UNL     1      -8.201 -10.967  18.743  0.00  0.00    +0.014 A 
ATOM     21  C   UNL     1      -9.276  -8.878  17.240  0.00  0.00    +0.021 A 
ATOM     22  C   UNL     1      -9.547 -10.630  18.880  0.00  0.00    +0.021 A 
ATOM     23  C   UNL     1     -10.085  -9.585  18.129  0.00  0.00    +0.041 A 
ENDBRANCH  15  16
ENDBRANCH   8  13
BRANCH   3  12
ATOM     12  C   UNL     1      -2.482 -11.780  12.390  0.00  0.00    +0.158 C 
BRANCH  12  14
ATOM      5  N   UNL     1      -3.884 -11.367  10.355  0.00  0.00    -0.347 N 
ATOM      6  N   UNL     1      -2.625  -9.664  11.021  0.00  0.00    -0.239 NA
ATOM     14  C   UNL     1      -2.976 -10.907  11.266  0.00  0.00    +0.121 A 
ATOM     17  C   UNL     1      -4.129 -10.353   9.472  0.00  0.00    +0.104 A 
ATOM     18  C   UNL     1      -3.340  -9.313   9.904  0.00  0.00    +0.130 A 
ATOM     24  H   UNL     1      -4.302 -12.288  10.336  0.00  0.00    +0.167 HD
ENDBRANCH  12  14
ENDBRANCH   3  12
TORSDOF 4
ENDMDL
