MODEL 1
REMARK VINA RESULT:      -7.5      0.000      0.000
REMARK  Name = 7156392
REMARK  7 active torsions:
REMARK  status: ('A' for Active; 'I' for Inactive)
REMARK    1  A    between atoms: N_3  and  C_12
REMARK    2  A    between atoms: N_6  and  C_28
REMARK    3  A    between atoms: N_6  and  C_32
REMARK    4  A    between atoms: N_6  and  C_33
REMARK    5  A    between atoms: C_21  and  C_24
REMARK    6  A    between atoms: C_23  and  C_25
REMARK    7  A    between atoms: C_26  and  C_28
REMARK                            x       y       z     vdW  Elec       q    Type
REMARK                         _______ _______ _______ _____ _____    ______ ____
ROOT
ATOM      1  O   UNL     1      -5.295 -12.549  10.093  0.00  0.00    -0.267 OA
ATOM      3  N   UNL     1      -3.758 -11.085  14.637  0.00  0.00    -0.298 NA
ATOM      4  N   UNL     1      -3.608 -11.856  11.546  0.00  0.00    -0.311 N 
ATOM      7  C   UNL     1      -2.914 -13.209  13.608  0.00  0.00    +0.024 C 
ATOM      8  C   UNL     1      -1.785 -11.095  13.106  0.00  0.00    +0.050 C 
ATOM      9  C   UNL     1      -1.546 -12.578  13.380  0.00  0.00    +0.017 C 
ATOM     10  C   UNL     1      -3.614 -12.536  14.808  0.00  0.00    +0.090 C 
ATOM     11  C   UNL     1      -2.469 -10.448  14.331  0.00  0.00    +0.094 C 
ATOM     13  C   UNL     1      -3.730 -13.103  12.314  0.00  0.00    +0.130 C 
ATOM     14  C   UNL     1      -2.633 -10.906  11.863  0.00  0.00    +0.026 A 
ATOM     19  C   UNL     1      -2.464  -9.828  11.081  0.00  0.00    +0.022 A 
ATOM     20  C   UNL     1      -4.448 -11.718  10.423  0.00  0.00    +0.259 A 
ATOM     21  C   UNL     1      -4.258 -10.481   9.586  0.00  0.00    +0.047 A 
ATOM     22  C   UNL     1      -3.294  -9.613   9.930  0.00  0.00    +0.015 A 
ENDROOT
BRANCH   3  12
ATOM      2  O   UNL     1      -8.659 -10.728  18.296  0.00  0.00    -0.276 OA
ATOM      5  N   UNL     1      -6.379 -10.565  17.883  0.00  0.00    -0.302 N 
ATOM     12  C   UNL     1      -4.370 -10.483  15.802  0.00  0.00    +0.060 C 
ATOM     15  C   UNL     1      -5.842 -10.177  15.509  0.00  0.00    +0.038 C 
ATOM     16  C   UNL     1      -4.242 -11.427  17.003  0.00  0.00    +0.038 C 
ATOM     17  C   UNL     1      -6.550  -9.649  16.754  0.00  0.00    +0.109 C 
ATOM     18  C   UNL     1      -4.983 -10.875  18.219  0.00  0.00    +0.109 C 
ATOM     23  C   UNL     1      -7.497 -11.034  18.572  0.00  0.00    +0.212 C 
ATOM     25  C   UNL     1      -7.237 -11.976  19.721  0.00  0.00    +0.109 C 
ENDBRANCH   3  12
BRANCH  21  24
ATOM     24  C   UNL     1      -5.111 -10.213   8.415  0.00  0.00    -0.008 A 
ATOM     26  C   UNL     1      -6.210  -9.356   8.496  0.00  0.00    -0.026 A 
ATOM     27  C   UNL     1      -4.806 -10.836   7.203  0.00  0.00    +0.009 A 
ATOM     29  C   UNL     1      -7.000  -9.121   7.370  0.00  0.00    +0.005 A 
ATOM     30  C   UNL     1      -5.595 -10.602   6.077  0.00  0.00    +0.001 A 
ATOM     31  C   UNL     1      -6.692  -9.745   6.161  0.00  0.00    +0.000 A 
BRANCH  26  28
ATOM     28  C   UNL     1      -6.569  -8.670   9.775  0.00  0.00    +0.119 C 
BRANCH  28   6
ATOM      6  N   UNL     1      -7.299  -9.496  10.718  0.00  0.00    -0.304 NA
ATOM     32  C   UNL     1      -8.742  -9.242  10.627  0.00  0.00    +0.104 C 
ATOM     33  C   UNL     1      -6.835  -9.261  12.089  0.00  0.00    +0.104 C 
ENDBRANCH  28   6
ENDBRANCH  26  28
ENDBRANCH  21  24
TORSDOF 4
ENDMDL
MODEL 2
REMARK VINA RESULT:      -7.3     23.558     26.734
REMARK  Name = 7156392
REMARK  7 active torsions:
REMARK  status: ('A' for Active; 'I' for Inactive)
REMARK    1  A    between atoms: N_3  and  C_12
REMARK    2  A    between atoms: N_6  and  C_28
REMARK    3  A    between atoms: N_6  and  C_32
REMARK    4  A    between atoms: N_6  and  C_33
REMARK    5  A    between atoms: C_21  and  C_24
REMARK    6  A    between atoms: C_23  and  C_25
REMARK    7  A    between atoms: C_26  and  C_28
REMARK                            x       y       z     vdW  Elec       q    Type
REMARK                         _______ _______ _______ _____ _____    ______ ____
ROOT
ATOM      1  O   UNL     1      12.303   7.702   2.885  0.00  0.00    -0.267 OA
ATOM      3  N   UNL     1      13.309   4.452  -0.799  0.00  0.00    -0.298 NA
ATOM      4  N   UNL     1      12.785   5.542   2.153  0.00  0.00    -0.311 N 
ATOM      7  C   UNL     1      14.990   4.932   0.997  0.00  0.00    +0.024 C 
ATOM      8  C   UNL     1      13.293   3.206   1.366  0.00  0.00    +0.050 C 
ATOM      9  C   UNL     1      14.759   3.556   1.609  0.00  0.00    +0.017 C 
ATOM     10  C   UNL     1      14.678   4.898  -0.514  0.00  0.00    +0.090 C 
ATOM     11  C   UNL     1      13.018   3.163  -0.154  0.00  0.00    +0.094 C 
ATOM     13  C   UNL     1      14.138   5.959   1.754  0.00  0.00    +0.130 C 
ATOM     14  C   UNL     1      12.379   4.210   2.043  0.00  0.00    +0.026 A 
ATOM     19  C   UNL     1      11.183   3.829   2.517  0.00  0.00    +0.022 A 
ATOM     20  C   UNL     1      11.967   6.527   2.741  0.00  0.00    +0.259 A 
ATOM     21  C   UNL     1      10.617   6.076   3.231  0.00  0.00    +0.047 A 
ATOM     22  C   UNL     1      10.289   4.781   3.114  0.00  0.00    +0.015 A 
ENDROOT
BRANCH   3  12
ATOM      2  O   UNL     1       9.717   2.470  -5.349  0.00  0.00    -0.276 OA
ATOM      5  N   UNL     1      11.244   3.957  -4.428  0.00  0.00    -0.302 N 
ATOM     12  C   UNL     1      13.071   4.383  -2.224  0.00  0.00    +0.060 C 
ATOM     15  C   UNL     1      12.574   2.983  -2.596  0.00  0.00    +0.038 C 
ATOM     16  C   UNL     1      12.046   5.447  -2.633  0.00  0.00    +0.038 C 
ATOM     17  C   UNL     1      12.201   2.908  -4.074  0.00  0.00    +0.109 C 
ATOM     18  C   UNL     1      11.683   5.323  -4.111  0.00  0.00    +0.109 C 
ATOM     23  C   UNL     1      10.046   3.621  -5.056  0.00  0.00    +0.212 C 
ATOM     25  C   UNL     1       9.113   4.760  -5.385  0.00  0.00    +0.109 C 
ENDBRANCH   3  12
BRANCH  21  24
ATOM     24  C   UNL     1       9.662   7.030   3.822  0.00  0.00    -0.008 A 
ATOM     26  C   UNL     1       9.608   7.247   5.201  0.00  0.00    -0.026 A 
ATOM     27  C   UNL     1       8.796   7.728   2.977  0.00  0.00    +0.009 A 
ATOM     29  C   UNL     1       8.693   8.157   5.732  0.00  0.00    +0.005 A 
ATOM     30  C   UNL     1       7.882   8.638   3.507  0.00  0.00    +0.001 A 
ATOM     31  C   UNL     1       7.830   8.852   4.884  0.00  0.00    +0.000 A 
BRANCH  26  28
ATOM     28  C   UNL     1      10.517   6.520   6.138  0.00  0.00    +0.119 C 
BRANCH  28   6
ATOM      6  N   UNL     1       9.838   5.696   7.120  0.00  0.00    -0.304 NA
ATOM     32  C   UNL     1      10.473   5.821   8.437  0.00  0.00    +0.104 C 
ATOM     33  C   UNL     1       9.823   4.289   6.704  0.00  0.00    +0.104 C 
ENDBRANCH  28   6
ENDBRANCH  26  28
ENDBRANCH  21  24
TORSDOF 4
ENDMDL
MODEL 3
REMARK VINA RESULT:      -7.3      1.407      2.613
REMARK  Name = 7156392
REMARK  7 active torsions:
REMARK  status: ('A' for Active; 'I' for Inactive)
REMARK    1  A    between atoms: N_3  and  C_12
REMARK    2  A    between atoms: N_6  and  C_28
REMARK    3  A    between atoms: N_6  and  C_32
REMARK    4  A    between atoms: N_6  and  C_33
REMARK    5  A    between atoms: C_21  and  C_24
REMARK    6  A    between atoms: C_23  and  C_25
REMARK    7  A    between atoms: C_26  and  C_28
REMARK                            x       y       z     vdW  Elec       q    Type
REMARK                         _______ _______ _______ _____ _____    ______ ____
ROOT
ATOM      1  O   UNL     1      -5.849 -12.187   9.823  0.00  0.00    -0.267 OA
ATOM      3  N   UNL     1      -3.920 -11.037  14.307  0.00  0.00    -0.298 NA
ATOM      4  N   UNL     1      -4.026 -11.679  11.185  0.00  0.00    -0.311 N 
ATOM      7  C   UNL     1      -3.301 -13.167  13.141  0.00  0.00    +0.024 C 
ATOM      8  C   UNL     1      -2.056 -11.118  12.647  0.00  0.00    +0.050 C 
ATOM      9  C   UNL     1      -1.909 -12.624  12.845  0.00  0.00    +0.017 C 
ATOM     10  C   UNL     1      -3.871 -12.501  14.410  0.00  0.00    +0.090 C 
ATOM     11  C   UNL     1      -2.610 -10.479  13.940  0.00  0.00    +0.094 C 
ATOM     13  C   UNL     1      -4.189 -12.948  11.909  0.00  0.00    +0.130 C 
ATOM     14  C   UNL     1      -2.966 -10.815  11.472  0.00  0.00    +0.026 A 
ATOM     19  C   UNL     1      -2.770  -9.718  10.724  0.00  0.00    +0.022 A 
ATOM     20  C   UNL     1      -4.925 -11.433  10.128  0.00  0.00    +0.259 A 
ATOM     21  C   UNL     1      -4.700 -10.176   9.329  0.00  0.00    +0.047 A 
ATOM     22  C   UNL     1      -3.655  -9.395   9.641  0.00  0.00    +0.015 A 
ENDROOT
BRANCH   3  12
ATOM      2  O   UNL     1      -8.496 -10.581  18.356  0.00  0.00    -0.276 OA
ATOM      5  N   UNL     1      -6.250 -10.506  17.766  0.00  0.00    -0.302 N 
ATOM     12  C   UNL     1      -4.410 -10.446  15.534  0.00  0.00    +0.060 C 
ATOM     15  C   UNL     1      -5.884 -10.067  15.369  0.00  0.00    +0.038 C 
ATOM     16  C   UNL     1      -4.231 -11.432  16.694  0.00  0.00    +0.038 C 
ATOM     17  C   UNL     1      -6.467  -9.547  16.680  0.00  0.00    +0.109 C 
ATOM     18  C   UNL     1      -4.848 -10.886  17.980  0.00  0.00    +0.109 C 
ATOM     23  C   UNL     1      -7.331 -10.947  18.529  0.00  0.00    +0.212 C 
ATOM     25  C   UNL     1      -7.024 -11.935  19.626  0.00  0.00    +0.109 C 
ENDBRANCH   3  12
BRANCH  21  24
ATOM     24  C   UNL     1      -5.605  -9.798   8.231  0.00  0.00    -0.008 A 
ATOM     26  C   UNL     1      -5.496 -10.377   6.965  0.00  0.00    -0.026 A 
ATOM     27  C   UNL     1      -6.590  -8.837   8.470  0.00  0.00    +0.009 A 
ATOM     29  C   UNL     1      -6.368  -9.999   5.943  0.00  0.00    +0.005 A 
ATOM     30  C   UNL     1      -7.462  -8.458   7.450  0.00  0.00    +0.001 A 
ATOM     31  C   UNL     1      -7.351  -9.039   6.186  0.00  0.00    +0.000 A 
BRANCH  26  28
ATOM     28  C   UNL     1      -4.455 -11.408   6.669  0.00  0.00    +0.119 C 
BRANCH  28   6
ATOM      6  N   UNL     1      -4.707 -12.194   5.475  0.00  0.00    -0.304 NA
ATOM     32  C   UNL     1      -5.154 -13.547   5.825  0.00  0.00    +0.104 C 
ATOM     33  C   UNL     1      -3.508 -12.265   4.632  0.00  0.00    +0.104 C 
ENDBRANCH  28   6
ENDBRANCH  26  28
ENDBRANCH  21  24
TORSDOF 4
ENDMDL
MODEL 4
REMARK VINA RESULT:      -7.0     24.122     27.071
REMARK  Name = 7156392
REMARK  7 active torsions:
REMARK  status: ('A' for Active; 'I' for Inactive)
REMARK    1  A    between atoms: N_3  and  C_12
REMARK    2  A    between atoms: N_6  and  C_28
REMARK    3  A    between atoms: N_6  and  C_32
REMARK    4  A    between atoms: N_6  and  C_33
REMARK    5  A    between atoms: C_21  and  C_24
REMARK    6  A    between atoms: C_23  and  C_25
REMARK    7  A    between atoms: C_26  and  C_28
REMARK                            x       y       z     vdW  Elec       q    Type
REMARK                         _______ _______ _______ _____ _____    ______ ____
ROOT
ATOM      1  O   UNL     1      12.417   7.256   3.701  0.00  0.00    -0.267 OA
ATOM      3  N   UNL     1      13.073   4.960  -0.709  0.00  0.00    -0.298 NA
ATOM      4  N   UNL     1      12.855   5.337   2.451  0.00  0.00    -0.311 N 
ATOM      7  C   UNL     1      14.931   5.095   0.968  0.00  0.00    +0.024 C 
ATOM      8  C   UNL     1      13.316   3.261   1.105  0.00  0.00    +0.050 C 
ATOM      9  C   UNL     1      14.793   3.609   1.271  0.00  0.00    +0.017 C 
ATOM     10  C   UNL     1      14.458   5.389  -0.471  0.00  0.00    +0.090 C 
ATOM     11  C   UNL     1      12.878   3.548  -0.348  0.00  0.00    +0.094 C 
ATOM     13  C   UNL     1      14.148   5.890   2.021  0.00  0.00    +0.130 C 
ATOM     14  C   UNL     1      12.463   4.048   2.082  0.00  0.00    +0.026 A 
ATOM     19  C   UNL     1      11.333   3.520   2.577  0.00  0.00    +0.022 A 
ATOM     20  C   UNL     1      12.088   6.129   3.327  0.00  0.00    +0.259 A 
ATOM     21  C   UNL     1      10.807   5.524   3.838  0.00  0.00    +0.047 A 
ATOM     22  C   UNL     1      10.492   4.275   3.463  0.00  0.00    +0.015 A 
ENDROOT
BRANCH   3  12
ATOM      2  O   UNL     1      12.287   2.676  -6.339  0.00  0.00    -0.276 OA
ATOM      5  N   UNL     1      11.795   4.178  -4.637  0.00  0.00    -0.302 N 
ATOM     12  C   UNL     1      12.683   5.203  -2.081  0.00  0.00    +0.060 C 
ATOM     15  C   UNL     1      13.637   4.464  -3.025  0.00  0.00    +0.038 C 
ATOM     16  C   UNL     1      11.239   4.741  -2.301  0.00  0.00    +0.038 C 
ATOM     17  C   UNL     1      13.188   4.603  -4.477  0.00  0.00    +0.109 C 
ATOM     18  C   UNL     1      10.836   4.873  -3.769  0.00  0.00    +0.109 C 
ATOM     23  C   UNL     1      11.468   3.217  -5.592  0.00  0.00    +0.212 C 
ATOM     25  C   UNL     1      10.014   2.832  -5.694  0.00  0.00    +0.109 C 
ENDBRANCH   3  12
BRANCH  21  24
ATOM     24  C   UNL     1       9.906   6.280   4.725  0.00  0.00    -0.008 A 
ATOM     26  C   UNL     1       9.028   7.242   4.222  0.00  0.00    -0.026 A 
ATOM     27  C   UNL     1       9.939   6.022   6.097  0.00  0.00    +0.009 A 
ATOM     29  C   UNL     1       8.185   7.942   5.086  0.00  0.00    +0.005 A 
ATOM     30  C   UNL     1       9.097   6.722   6.962  0.00  0.00    +0.001 A 
ATOM     31  C   UNL     1       8.221   7.682   6.456  0.00  0.00    +0.000 A 
BRANCH  26  28
ATOM     28  C   UNL     1       8.962   7.547   2.760  0.00  0.00    +0.119 C 
BRANCH  28   6
ATOM      6  N   UNL     1       8.926   8.962   2.440  0.00  0.00    -0.304 NA
ATOM     32  C   UNL     1       7.792   9.269   1.562  0.00  0.00    +0.104 C 
ATOM     33  C   UNL     1      10.179   9.388   1.807  0.00  0.00    +0.104 C 
ENDBRANCH  28   6
ENDBRANCH  26  28
ENDBRANCH  21  24
TORSDOF 4
ENDMDL
MODEL 5
REMARK VINA RESULT:      -6.5     22.086     25.905
REMARK  Name = 7156392
REMARK  7 active torsions:
REMARK  status: ('A' for Active; 'I' for Inactive)
REMARK    1  A    between atoms: N_3  and  C_12
REMARK    2  A    between atoms: N_6  and  C_28
REMARK    3  A    between atoms: N_6  and  C_32
REMARK    4  A    between atoms: N_6  and  C_33
REMARK    5  A    between atoms: C_21  and  C_24
REMARK    6  A    between atoms: C_23  and  C_25
REMARK    7  A    between atoms: C_26  and  C_28
REMARK                            x       y       z     vdW  Elec       q    Type
REMARK                         _______ _______ _______ _____ _____    ______ ____
ROOT
ATOM      1  O   UNL     1       9.328  -9.543  33.026  0.00  0.00    -0.267 OA
ATOM      3  N   UNL     1       8.265  -5.922  36.328  0.00  0.00    -0.298 NA
ATOM      4  N   UNL     1       8.645  -7.368  33.510  0.00  0.00    -0.311 N 
ATOM      7  C   UNL     1      10.156  -5.674  34.701  0.00  0.00    +0.024 C 
ATOM      8  C   UNL     1       7.894  -5.022  34.028  0.00  0.00    +0.050 C 
ATOM      9  C   UNL     1       9.367  -4.637  33.912  0.00  0.00    +0.017 C 
ATOM     10  C   UNL     1       9.704  -5.672  36.177  0.00  0.00    +0.090 C 
ATOM     11  C   UNL     1       7.469  -4.992  35.513  0.00  0.00    +0.094 C 
ATOM     13  C   UNL     1       9.981  -7.044  34.032  0.00  0.00    +0.130 C 
ATOM     14  C   UNL     1       7.646  -6.394  33.432  0.00  0.00    +0.026 A 
ATOM     19  C   UNL     1       6.471  -6.680  32.849  0.00  0.00    +0.022 A 
ATOM     20  C   UNL     1       8.461  -8.670  33.005  0.00  0.00    +0.259 A 
ATOM     21  C   UNL     1       7.120  -8.971  32.389  0.00  0.00    +0.047 A 
ATOM     22  C   UNL     1       6.207  -7.991  32.326  0.00  0.00    +0.015 A 
ENDROOT
BRANCH   3  12
ATOM      2  O   UNL     1       4.323  -3.761  40.491  0.00  0.00    -0.276 OA
ATOM      5  N   UNL     1       5.838  -5.340  39.711  0.00  0.00    -0.302 N 
ATOM     12  C   UNL     1       7.871  -5.860  37.719  0.00  0.00    +0.060 C 
ATOM     15  C   UNL     1       7.434  -4.434  38.066  0.00  0.00    +0.038 C 
ATOM     16  C   UNL     1       6.735  -6.854  37.982  0.00  0.00    +0.038 C 
ATOM     17  C   UNL     1       6.901  -4.356  39.494  0.00  0.00    +0.109 C 
ATOM     18  C   UNL     1       6.214  -6.729  39.413  0.00  0.00    +0.109 C 
ATOM     23  C   UNL     1       4.602  -4.929  40.209  0.00  0.00    +0.212 C 
ATOM     25  C   UNL     1       3.560  -6.002  40.402  0.00  0.00    +0.109 C 
ENDBRANCH   3  12
BRANCH  21  24
ATOM     24  C   UNL     1       6.804 -10.312  31.869  0.00  0.00    -0.008 A 
ATOM     26  C   UNL     1       6.312 -11.319  32.702  0.00  0.00    -0.026 A 
ATOM     27  C   UNL     1       7.004 -10.573  30.511  0.00  0.00    +0.009 A 
ATOM     29  C   UNL     1       6.021 -12.580  32.181  0.00  0.00    +0.005 A 
ATOM     30  C   UNL     1       6.713 -11.833  29.990  0.00  0.00    +0.001 A 
ATOM     31  C   UNL     1       6.222 -12.837  30.824  0.00  0.00    +0.000 A 
BRANCH  26  28
ATOM     28  C   UNL     1       6.084 -11.080  34.160  0.00  0.00    +0.119 C 
BRANCH  28   6
ATOM      6  N   UNL     1       4.697 -10.867  34.527  0.00  0.00    -0.304 NA
ATOM     32  C   UNL     1       4.515  -9.547  35.139  0.00  0.00    +0.104 C 
ATOM     33  C   UNL     1       4.232 -11.913  35.445  0.00  0.00    +0.104 C 
ENDBRANCH  28   6
ENDBRANCH  26  28
ENDBRANCH  21  24
TORSDOF 4
ENDMDL
MODEL 6
REMARK VINA RESULT:      -6.4     24.536     26.991
REMARK  Name = 7156392
REMARK  7 active torsions:
REMARK  status: ('A' for Active; 'I' for Inactive)
REMARK    1  A    between atoms: N_3  and  C_12
REMARK    2  A    between atoms: N_6  and  C_28
REMARK    3  A    between atoms: N_6  and  C_32
REMARK    4  A    between atoms: N_6  and  C_33
REMARK    5  A    between atoms: C_21  and  C_24
REMARK    6  A    between atoms: C_23  and  C_25
REMARK    7  A    between atoms: C_26  and  C_28
REMARK                            x       y       z     vdW  Elec       q    Type
REMARK                         _______ _______ _______ _____ _____    ______ ____
ROOT
ATOM      1  O   UNL     1      10.771   6.656   0.340  0.00  0.00    -0.267 OA
ATOM      3  N   UNL     1      11.490   7.350   5.255  0.00  0.00    -0.298 NA
ATOM      4  N   UNL     1      10.351   6.079   2.560  0.00  0.00    -0.311 N 
ATOM      7  C   UNL     1       9.232   7.680   4.219  0.00  0.00    +0.024 C 
ATOM      8  C   UNL     1       9.904   5.444   4.954  0.00  0.00    +0.050 C 
ATOM      9  C   UNL     1       8.721   6.405   4.878  0.00  0.00    +0.017 C 
ATOM     10  C   UNL     1      10.377   8.287   5.056  0.00  0.00    +0.090 C 
ATOM     11  C   UNL     1      11.025   6.072   5.813  0.00  0.00    +0.094 C 
ATOM     13  C   UNL     1       9.659   7.357   2.781  0.00  0.00    +0.130 C 
ATOM     14  C   UNL     1      10.421   5.113   3.567  0.00  0.00    +0.026 A 
ATOM     19  C   UNL     1      10.958   3.910   3.310  0.00  0.00    +0.022 A 
ATOM     20  C   UNL     1      10.845   5.843   1.262  0.00  0.00    +0.259 A 
ATOM     21  C   UNL     1      11.473   4.497   1.014  0.00  0.00    +0.047 A 
ATOM     22  C   UNL     1      11.496   3.604   2.015  0.00  0.00    +0.015 A 
ENDROOT
BRANCH   3  12
ATOM      2  O   UNL     1      17.230   9.454   5.663  0.00  0.00    -0.276 OA
ATOM      5  N   UNL     1      15.001   9.405   6.316  0.00  0.00    -0.302 N 
ATOM     12  C   UNL     1      12.519   7.935   6.087  0.00  0.00    +0.060 C 
ATOM     15  C   UNL     1      13.869   7.286   5.768  0.00  0.00    +0.038 C 
ATOM     16  C   UNL     1      12.578   9.449   5.854  0.00  0.00    +0.038 C 
ATOM     17  C   UNL     1      14.998   7.959   6.544  0.00  0.00    +0.109 C 
ATOM     18  C   UNL     1      13.734  10.080   6.628  0.00  0.00    +0.109 C 
ATOM     23  C   UNL     1      16.165  10.037   5.880  0.00  0.00    +0.212 C 
ATOM     25  C   UNL     1      16.085  11.528   5.666  0.00  0.00    +0.109 C 
ENDBRANCH   3  12
BRANCH  21  24
ATOM     24  C   UNL     1      12.061   4.158  -0.294  0.00  0.00    -0.008 A 
ATOM     26  C   UNL     1      13.419   4.352  -0.554  0.00  0.00    -0.026 A 
ATOM     27  C   UNL     1      11.233   3.634  -1.289  0.00  0.00    +0.009 A 
ATOM     29  C   UNL     1      13.948   4.022  -1.802  0.00  0.00    +0.005 A 
ATOM     30  C   UNL     1      11.761   3.304  -2.537  0.00  0.00    +0.001 A 
ATOM     31  C   UNL     1      13.118   3.498  -2.793  0.00  0.00    +0.000 A 
BRANCH  26  28
ATOM     28  C   UNL     1      14.338   4.911   0.485  0.00  0.00    +0.119 C 
BRANCH  28   6
ATOM      6  N   UNL     1      14.739   6.287   0.259  0.00  0.00    -0.304 NA
ATOM     32  C   UNL     1      16.194   6.388   0.104  0.00  0.00    +0.104 C 
ATOM     33  C   UNL     1      14.290   7.151   1.356  0.00  0.00    +0.104 C 
ENDBRANCH  28   6
ENDBRANCH  26  28
ENDBRANCH  21  24
TORSDOF 4
ENDMDL
MODEL 7
REMARK VINA RESULT:      -6.4      3.442      8.131
REMARK  Name = 7156392
REMARK  7 active torsions:
REMARK  status: ('A' for Active; 'I' for Inactive)
REMARK    1  A    between atoms: N_3  and  C_12
REMARK    2  A    between atoms: N_6  and  C_28
REMARK    3  A    between atoms: N_6  and  C_32
REMARK    4  A    between atoms: N_6  and  C_33
REMARK    5  A    between atoms: C_21  and  C_24
REMARK    6  A    between atoms: C_23  and  C_25
REMARK    7  A    between atoms: C_26  and  C_28
REMARK                            x       y       z     vdW  Elec       q    Type
REMARK                         _______ _______ _______ _____ _____    ______ ____
ROOT
ATOM      1  O   UNL     1      -8.501  -8.441  16.866  0.00  0.00    -0.267 OA
ATOM      3  N   UNL     1      -4.919 -11.543  15.224  0.00  0.00    -0.298 NA
ATOM      4  N   UNL     1      -7.355 -10.468  16.981  0.00  0.00    -0.311 N 
ATOM      7  C   UNL     1      -4.861 -10.618  17.553  0.00  0.00    +0.024 C 
ATOM      8  C   UNL     1      -6.129 -12.663  17.101  0.00  0.00    +0.050 C 
ATOM      9  C   UNL     1      -5.225 -11.982  18.125  0.00  0.00    +0.017 C 
ATOM     10  C   UNL     1      -4.129 -10.788  16.205  0.00  0.00    +0.090 C 
ATOM     11  C   UNL     1      -5.362 -12.835  15.770  0.00  0.00    +0.094 C 
ATOM     13  C   UNL     1      -6.138  -9.776  17.430  0.00  0.00    +0.130 C 
ATOM     14  C   UNL     1      -7.398 -11.861  16.883  0.00  0.00    +0.026 A 
ATOM     19  C   UNL     1      -8.550 -12.480  16.580  0.00  0.00    +0.022 A 
ATOM     20  C   UNL     1      -8.492  -9.668  16.757  0.00  0.00    +0.259 A 
ATOM     21  C   UNL     1      -9.761 -10.388  16.385  0.00  0.00    +0.047 A 
ATOM     22  C   UNL     1      -9.745 -11.728  16.323  0.00  0.00    +0.015 A 
ENDROOT
BRANCH   3  12
ATOM      2  O   UNL     1      -3.021  -9.119   9.927  0.00  0.00    -0.276 OA
ATOM      5  N   UNL     1      -2.806 -10.581  11.720  0.00  0.00    -0.302 N 
ATOM     12  C   UNL     1      -4.180 -11.726  13.994  0.00  0.00    +0.060 C 
ATOM     15  C   UNL     1      -4.946 -11.082  12.834  0.00  0.00    +0.038 C 
ATOM     16  C   UNL     1      -2.784 -11.110  14.129  0.00  0.00    +0.038 C 
ATOM     17  C   UNL     1      -4.141 -11.153  11.539  0.00  0.00    +0.109 C 
ATOM     18  C   UNL     1      -2.020 -11.180  12.807  0.00  0.00    +0.109 C 
ATOM     23  C   UNL     1      -2.358  -9.578  10.860  0.00  0.00    +0.212 C 
ATOM     25  C   UNL     1      -0.973  -9.039  11.114  0.00  0.00    +0.109 C 
ENDBRANCH   3  12
BRANCH  21  24
ATOM     24  C   UNL     1     -10.999  -9.648  16.085  0.00  0.00    -0.008 A 
ATOM     26  C   UNL     1     -11.873  -9.249  17.098  0.00  0.00    -0.026 A 
ATOM     27  C   UNL     1     -11.296  -9.344  14.754  0.00  0.00    +0.009 A 
ATOM     29  C   UNL     1     -13.038  -8.549  16.784  0.00  0.00    +0.005 A 
ATOM     30  C   UNL     1     -12.461  -8.644  14.439  0.00  0.00    +0.001 A 
ATOM     31  C   UNL     1     -13.332  -8.247  15.454  0.00  0.00    +0.000 A 
BRANCH  26  28
ATOM     28  C   UNL     1     -11.590  -9.555  18.534  0.00  0.00    +0.119 C 
BRANCH  28   6
ATOM      6  N   UNL     1     -12.650 -10.270  19.219  0.00  0.00    -0.304 NA
ATOM     32  C   UNL     1     -12.649  -9.959  20.652  0.00  0.00    +0.104 C 
ATOM     33  C   UNL     1     -12.518 -11.718  19.020  0.00  0.00    +0.104 C 
ENDBRANCH  28   6
ENDBRANCH  26  28
ENDBRANCH  21  24
TORSDOF 4
ENDMDL
MODEL 8
REMARK VINA RESULT:      -6.3     25.407     26.856
REMARK  Name = 7156392
REMARK  7 active torsions:
REMARK  status: ('A' for Active; 'I' for Inactive)
REMARK    1  A    between atoms: N_3  and  C_12
REMARK    2  A    between atoms: N_6  and  C_28
REMARK    3  A    between atoms: N_6  and  C_32
REMARK    4  A    between atoms: N_6  and  C_33
REMARK    5  A    between atoms: C_21  and  C_24
REMARK    6  A    between atoms: C_23  and  C_25
REMARK    7  A    between atoms: C_26  and  C_28
REMARK                            x       y       z     vdW  Elec       q    Type
REMARK                         _______ _______ _______ _____ _____    ______ ____
ROOT
ATOM      1  O   UNL     1      16.618  -6.357  25.194  0.00  0.00    -0.267 OA
ATOM      3  N   UNL     1      14.670  -6.495  29.814  0.00  0.00    -0.298 NA
ATOM      4  N   UNL     1      16.866  -6.274  27.511  0.00  0.00    -0.311 N 
ATOM      7  C   UNL     1      16.284  -8.249  29.037  0.00  0.00    +0.024 C 
ATOM      8  C   UNL     1      17.139  -6.172  30.011  0.00  0.00    +0.050 C 
ATOM      9  C   UNL     1      17.369  -7.680  29.942  0.00  0.00    +0.017 C 
ATOM     10  C   UNL     1      14.890  -7.934  29.619  0.00  0.00    +0.090 C 
ATOM     11  C   UNL     1      15.745  -5.890  30.614  0.00  0.00    +0.094 C 
ATOM     13  C   UNL     1      16.473  -7.687  27.622  0.00  0.00    +0.130 C 
ATOM     14  C   UNL     1      17.259  -5.544  28.636  0.00  0.00    +0.026 A 
ATOM     19  C   UNL     1      17.722  -4.292  28.497  0.00  0.00    +0.022 A 
ATOM     20  C   UNL     1      16.923  -5.734  26.212  0.00  0.00    +0.259 A 
ATOM     21  C   UNL     1      17.413  -4.315  26.092  0.00  0.00    +0.047 A 
ATOM     22  C   UNL     1      17.793  -3.670  27.206  0.00  0.00    +0.015 A 
ENDROOT
BRANCH   3  12
ATOM      2  O   UNL     1      10.742  -7.726  34.351  0.00  0.00    -0.276 OA
ATOM      5  N   UNL     1      11.635  -6.336  32.719  0.00  0.00    -0.302 N 
ATOM     12  C   UNL     1      13.375  -6.243  30.409  0.00  0.00    +0.060 C 
ATOM     15  C   UNL     1      12.775  -7.560  30.909  0.00  0.00    +0.038 C 
ATOM     16  C   UNL     1      13.518  -5.241  31.560  0.00  0.00    +0.038 C 
ATOM     17  C   UNL     1      11.461  -7.319  31.648  0.00  0.00    +0.109 C 
ATOM     18  C   UNL     1      12.189  -5.045  32.287  0.00  0.00    +0.109 C 
ATOM     23  C   UNL     1      11.242  -6.649  34.019  0.00  0.00    +0.212 C 
ATOM     25  C   UNL     1      11.457  -5.584  35.066  0.00  0.00    +0.109 C 
ENDBRANCH   3  12
BRANCH  21  24
ATOM     24  C   UNL     1      17.471  -3.635  24.787  0.00  0.00    -0.008 A 
ATOM     26  C   UNL     1      18.576  -3.771  23.943  0.00  0.00    -0.026 A 
ATOM     27  C   UNL     1      16.394  -2.837  24.394  0.00  0.00    +0.009 A 
ATOM     29  C   UNL     1      18.602  -3.115  22.712  0.00  0.00    +0.005 A 
ATOM     30  C   UNL     1      16.420  -2.181  23.164  0.00  0.00    +0.001 A 
ATOM     31  C   UNL     1      17.524  -2.319  22.323  0.00  0.00    +0.000 A 
BRANCH  26  28
ATOM     28  C   UNL     1      19.748  -4.615  24.327  0.00  0.00    +0.119 C 
BRANCH  28   6
ATOM      6  N   UNL     1      20.246  -5.474  23.269  0.00  0.00    -0.304 NA
ATOM     32  C   UNL     1      19.507  -6.741  23.233  0.00  0.00    +0.104 C 
ATOM     33  C   UNL     1      21.680  -5.735  23.437  0.00  0.00    +0.104 C 
ENDBRANCH  28   6
ENDBRANCH  26  28
ENDBRANCH  21  24
TORSDOF 4
ENDMDL
MODEL 9
REMARK VINA RESULT:      -6.2      1.850      2.618
REMARK  Name = 7156392
REMARK  7 active torsions:
REMARK  status: ('A' for Active; 'I' for Inactive)
REMARK    1  A    between atoms: N_3  and  C_12
REMARK    2  A    between atoms: N_6  and  C_28
REMARK    3  A    between atoms: N_6  and  C_32
REMARK    4  A    between atoms: N_6  and  C_33
REMARK    5  A    between atoms: C_21  and  C_24
REMARK    6  A    between atoms: C_23  and  C_25
REMARK    7  A    between atoms: C_26  and  C_28
REMARK                            x       y       z     vdW  Elec       q    Type
REMARK                         _______ _______ _______ _____ _____    ______ ____
ROOT
ATOM      1  O   UNL     1      -7.929 -11.208   8.566  0.00  0.00    -0.267 OA
ATOM      3  N   UNL     1      -5.645 -10.740  13.007  0.00  0.00    -0.298 NA
ATOM      4  N   UNL     1      -6.012 -11.308   9.889  0.00  0.00    -0.311 N 
ATOM      7  C   UNL     1      -5.757 -12.954  11.836  0.00  0.00    +0.024 C 
ATOM      8  C   UNL     1      -3.936 -11.404  11.310  0.00  0.00    +0.050 C 
ATOM      9  C   UNL     1      -4.271 -12.880  11.512  0.00  0.00    +0.017 C 
ATOM     10  C   UNL     1      -6.061 -12.145  13.115  0.00  0.00    +0.090 C 
ATOM     11  C   UNL     1      -4.234 -10.626  12.611  0.00  0.00    +0.094 C 
ATOM     13  C   UNL     1      -6.555 -12.461  10.622  0.00  0.00    +0.130 C 
ATOM     14  C   UNL     1      -4.727 -10.825  10.153  0.00  0.00    +0.026 A 
ATOM     19  C   UNL     1      -4.208  -9.845   9.397  0.00  0.00    +0.022 A 
ATOM     20  C   UNL     1      -6.807 -10.786   8.850  0.00  0.00    +0.259 A 
ATOM     21  C   UNL     1      -6.211  -9.664   8.042  0.00  0.00    +0.047 A 
ATOM     22  C   UNL     1      -4.967  -9.255   8.330  0.00  0.00    +0.015 A 
ENDROOT
BRANCH   3  12
ATOM      2  O   UNL     1      -8.094 -10.840  18.622  0.00  0.00    -0.276 OA
ATOM      5  N   UNL     1      -6.551 -10.083  17.059  0.00  0.00    -0.302 N 
ATOM     12  C   UNL     1      -5.898 -10.028  14.240  0.00  0.00    +0.060 C 
ATOM     15  C   UNL     1      -7.316 -10.335  14.730  0.00  0.00    +0.038 C 
ATOM     16  C   UNL     1      -4.862 -10.432  15.296  0.00  0.00    +0.038 C 
ATOM     17  C   UNL     1      -7.578  -9.693  16.090  0.00  0.00    +0.109 C 
ATOM     18  C   UNL     1      -5.172  -9.789  16.646  0.00  0.00    +0.109 C 
ATOM     23  C   UNL     1      -6.926 -10.641  18.280  0.00  0.00    +0.212 C 
ATOM     25  C   UNL     1      -5.810 -11.017  19.222  0.00  0.00    +0.109 C 
ENDBRANCH   3  12
BRANCH  21  24
ATOM     24  C   UNL     1      -6.971  -9.015   6.960  0.00  0.00    -0.008 A 
ATOM     26  C   UNL     1      -7.982  -8.091   7.232  0.00  0.00    -0.026 A 
ATOM     27  C   UNL     1      -6.668  -9.339   5.635  0.00  0.00    +0.009 A 
ATOM     29  C   UNL     1      -8.685  -7.492   6.187  0.00  0.00    +0.005 A 
ATOM     30  C   UNL     1      -7.370  -8.741   4.589  0.00  0.00    +0.001 A 
ATOM     31  C   UNL     1      -8.379  -7.818   4.865  0.00  0.00    +0.000 A 
BRANCH  26  28
ATOM     28  C   UNL     1      -8.337  -7.718   8.636  0.00  0.00    +0.119 C 
BRANCH  28   6
ATOM      6  N   UNL     1      -9.728  -7.934   8.985  0.00  0.00    -0.304 NA
ATOM     32  C   UNL     1     -10.403  -6.660   9.253  0.00  0.00    +0.104 C 
ATOM     33  C   UNL     1      -9.845  -8.819  10.149  0.00  0.00    +0.104 C 
ENDBRANCH  28   6
ENDBRANCH  26  28
ENDBRANCH  21  24
TORSDOF 4
ENDMDL
MODEL 10
REMARK VINA RESULT:      -6.2     24.049     26.522
REMARK  Name = 7156392
REMARK  7 active torsions:
REMARK  status: ('A' for Active; 'I' for Inactive)
REMARK    1  A    between atoms: N_3  and  C_12
REMARK    2  A    between atoms: N_6  and  C_28
REMARK    3  A    between atoms: N_6  and  C_32
REMARK    4  A    between atoms: N_6  and  C_33
REMARK    5  A    between atoms: C_21  and  C_24
REMARK    6  A    between atoms: C_23  and  C_25
REMARK    7  A    between atoms: C_26  and  C_28
REMARK                            x       y       z     vdW  Elec       q    Type
REMARK                         _______ _______ _______ _____ _____    ______ ____
ROOT
ATOM      1  O   UNL     1      -9.554 -13.086  38.802  0.00  0.00    -0.267 OA
ATOM      3  N   UNL     1      -7.488  -8.742  40.223  0.00  0.00    -0.298 NA
ATOM      4  N   UNL     1      -7.750 -11.610  38.850  0.00  0.00    -0.311 N 
ATOM      7  C   UNL     1      -6.571 -10.933  41.023  0.00  0.00    +0.024 C 
ATOM      8  C   UNL     1      -5.803 -10.014  38.888  0.00  0.00    +0.050 C 
ATOM      9  C   UNL     1      -5.345 -10.768  40.134  0.00  0.00    +0.017 C 
ATOM     10  C   UNL     1      -7.143  -9.550  41.399  0.00  0.00    +0.090 C 
ATOM     11  C   UNL     1      -6.353  -8.629  39.295  0.00  0.00    +0.094 C 
ATOM     13  C   UNL     1      -7.594 -11.817  40.297  0.00  0.00    +0.130 C 
ATOM     14  C   UNL     1      -6.859 -10.803  38.137  0.00  0.00    +0.026 A 
ATOM     19  C   UNL     1      -6.951 -10.717  36.801  0.00  0.00    +0.022 A 
ATOM     20  C   UNL     1      -8.772 -12.340  38.212  0.00  0.00    +0.259 A 
ATOM     21  C   UNL     1      -8.872 -12.195  36.717  0.00  0.00    +0.047 A 
ATOM     22  C   UNL     1      -7.977 -11.420  36.085  0.00  0.00    +0.015 A 
ENDROOT
BRANCH   3  12
ATOM      2  O   UNL     1     -10.780  -3.792  38.739  0.00  0.00    -0.276 OA
ATOM      5  N   UNL     1      -9.868  -5.276  40.276  0.00  0.00    -0.302 N 
ATOM     12  C   UNL     1      -7.971  -7.435  40.614  0.00  0.00    +0.060 C 
ATOM     15  C   UNL     1      -7.896  -6.481  39.418  0.00  0.00    +0.038 C 
ATOM     16  C   UNL     1      -9.410  -7.545  41.129  0.00  0.00    +0.038 C 
ATOM     17  C   UNL     1      -8.505  -5.124  39.761  0.00  0.00    +0.109 C 
ATOM     18  C   UNL     1      -9.991  -6.166  41.438  0.00  0.00    +0.109 C 
ATOM     23  C   UNL     1     -10.914  -4.566  39.690  0.00  0.00    +0.212 C 
ATOM     25  C   UNL     1     -12.287  -4.780  40.276  0.00  0.00    +0.109 C 
ENDBRANCH   3  12
BRANCH  21  24
ATOM     24  C   UNL     1      -9.930 -12.878  35.953  0.00  0.00    -0.008 A 
ATOM     26  C   UNL     1     -11.220 -12.351  35.864  0.00  0.00    -0.026 A 
ATOM     27  C   UNL     1      -9.626 -14.079  35.308  0.00  0.00    +0.009 A 
ATOM     29  C   UNL     1     -12.202 -13.021  35.133  0.00  0.00    +0.005 A 
ATOM     30  C   UNL     1     -10.607 -14.749  34.577  0.00  0.00    +0.001 A 
ATOM     31  C   UNL     1     -11.895 -14.220  34.490  0.00  0.00    +0.000 A 
BRANCH  26  28
ATOM     28  C   UNL     1     -11.584 -11.068  36.540  0.00  0.00    +0.119 C 
BRANCH  28   6
ATOM      6  N   UNL     1     -12.186 -11.227  37.850  0.00  0.00    -0.304 NA
ATOM     32  C   UNL     1     -13.646 -11.104  37.772  0.00  0.00    +0.104 C 
ATOM     33  C   UNL     1     -11.650 -10.241  38.795  0.00  0.00    +0.104 C 
ENDBRANCH  28   6
ENDBRANCH  26  28
ENDBRANCH  21  24
TORSDOF 4
ENDMDL
