REMARK  Name = 26745096
REMARK  5 active torsions:
REMARK  status: ('A' for Active; 'I' for Inactive)
REMARK    1  A    between atoms: O_3  and  C_28
REMARK    2  A    between atoms: O_3  and  C_34
REMARK    3  A    between atoms: C_9  and  C_14
REMARK    4  A    between atoms: C_15  and  C_17
REMARK    5  A    between atoms: C_18  and  C_19
REMARK                            x       y       z     vdW  Elec       q    Type
REMARK                         _______ _______ _______ _____ _____    ______ ____
ROOT
ATOM      2  O   UNL     1      -3.255  -0.649  -2.575  0.00  0.00    -0.270 OA
ATOM      4  N   UNL     1      -2.029   0.519  -0.954  0.00  0.00    -0.280 N 
ATOM      5  N   UNL     1      -1.179   3.125   1.576  0.00  0.00    -0.347 N 
ATOM      6  N   UNL     1      -0.355   4.242  -0.175  0.00  0.00    -0.240 NA
ATOM      9  C   UNL     1      -0.956   0.921  -1.924  0.00  0.00    +0.171 C 
ATOM     10  C   UNL     1      -0.756   2.467  -1.938  0.00  0.00    +0.089 C 
ATOM     11  C   UNL     1      -1.876   0.938   0.469  0.00  0.00    +0.163 C 
ATOM     12  C   UNL     1      -0.800   3.009  -0.561  0.00  0.00    +0.066 A 
ATOM     13  C   UNL     1      -1.315   2.303   0.498  0.00  0.00    +0.056 A 
ATOM     15  C   UNL     1      -3.089  -0.280  -1.413  0.00  0.00    +0.248 C 
ATOM     16  C   UNL     1      -0.597   4.281   1.120  0.00  0.00    +0.197 A 
ATOM     35  H   UNL     1      -1.452   2.926   2.530  0.00  0.00    +0.167 HD
ENDROOT
BRANCH  15  17
ATOM     17  C   UNL     1      -4.087  -0.740  -0.436  0.00  0.00    +0.037 A 
ATOM     20  C   UNL     1      -5.218   0.033  -0.178  0.00  0.00    +0.016 A 
ATOM     21  C   UNL     1      -3.901  -1.950   0.233  0.00  0.00    +0.016 A 
ATOM     25  C   UNL     1      -6.164  -0.403   0.750  0.00  0.00    +0.046 A 
ATOM     26  C   UNL     1      -4.847  -2.386   1.161  0.00  0.00    +0.046 A 
ATOM     28  C   UNL     1      -5.978  -1.612   1.420  0.00  0.00    +0.120 A 
BRANCH  28   3
ATOM      3  O   UNL     1      -6.901  -2.038   2.325  0.00  0.00    -0.495 OA
ATOM     34  C   UNL     1      -8.034  -1.198   2.540  0.00  0.00    +0.277 C 
ENDBRANCH  28   3
ENDBRANCH  15  17
BRANCH   9  14
ATOM      1  O   UNL     1       0.316  -1.136  -2.347  0.00  0.00    -0.336 OA
ATOM      7  N   UNL     1       1.368   0.325  -1.015  0.00  0.00    -0.190 NA
ATOM      8  N   UNL     1       1.542  -1.726  -2.014  0.00  0.00    -0.056 NA
ATOM     14  C   UNL     1       0.294   0.068  -1.719  0.00  0.00    +0.249 A 
ATOM     18  C   UNL     1       2.104  -0.804  -1.227  0.00  0.00    +0.202 A 
BRANCH  18  19
ATOM     19  C   UNL     1       3.401  -0.980  -0.638  0.00  0.00    +0.023 A 
ATOM     22  C   UNL     1       3.938   0.019   0.176  0.00  0.00    +0.020 A 
ATOM     23  C   UNL     1       4.121  -2.146  -0.877  0.00  0.00    +0.012 A 
ATOM     24  C   UNL     1       5.205  -0.138   0.760  0.00  0.00    -0.017 A 
ATOM     27  C   UNL     1       5.938  -1.324   0.516  0.00  0.00    -0.018 A 
ATOM     29  C   UNL     1       5.382  -2.318  -0.305  0.00  0.00    +0.009 A 
ATOM     30  C   UNL     1       5.761   0.856   1.581  0.00  0.00    +0.008 A 
ATOM     31  C   UNL     1       7.205  -1.480   1.101  0.00  0.00    +0.008 A 
ATOM     32  C   UNL     1       7.021   0.684   2.154  0.00  0.00    +0.001 A 
ATOM     33  C   UNL     1       7.742  -0.482   1.914  0.00  0.00    +0.001 A 
ENDBRANCH  18  19
ENDBRANCH   9  14
TORSDOF 4
