MODEL 1
REMARK VINA RESULT:      -7.0      0.000      0.000
REMARK  Name = 75368488
REMARK  4 active torsions:
REMARK  status: ('A' for Active; 'I' for Inactive)
REMARK    1  A    between atoms: O_4  and  C_25
REMARK    2  A    between atoms: O_4  and  C_26
REMARK    3  A    between atoms: N_5  and  C_10
REMARK    4  A    between atoms: C_19  and  C_20
REMARK                            x       y       z     vdW  Elec       q    Type
REMARK                         _______ _______ _______ _____ _____    ______ ____
ROOT
ATOM      2  O   UNL     1      17.602   6.185  19.098  0.00  0.00    -0.252 OA
ATOM      3  O   UNL     1      10.998   8.454  19.320  0.00  0.00    -0.270 OA
ATOM      5  N   UNL     1      17.618   7.682  20.920  0.00  0.00    -0.280 N 
ATOM      6  N   UNL     1      15.666   7.255  19.892  0.00  0.00    -0.278 N 
ATOM      7  N   UNL     1      13.282   8.676  19.762  0.00  0.00    -0.294 N 
ATOM      8  C   UNL     1      15.309   8.101  21.017  0.00  0.00    +0.112 C 
ATOM      9  C   UNL     1      16.656   8.554  21.573  0.00  0.00    +0.133 C 
ATOM     11  C   UNL     1      14.394   9.231  20.557  0.00  0.00    +0.132 C 
ATOM     12  C   UNL     1      14.628   6.752  19.007  0.00  0.00    +0.128 C 
ATOM     13  C   UNL     1      17.032   6.941  19.874  0.00  0.00    +0.305 C 
ATOM     14  C   UNL     1      13.698   7.890  18.592  0.00  0.00    +0.127 C 
ATOM     19  C   UNL     1      11.924   8.881  20.009  0.00  0.00    +0.247 C 
ENDROOT
BRANCH   5  10
ATOM      1  O   UNL     1      21.083   7.834  23.254  0.00  0.00    -0.380 OA
ATOM     10  C   UNL     1      19.021   7.710  21.250  0.00  0.00    +0.082 C 
ATOM     15  C   UNL     1      19.394   9.010  21.964  0.00  0.00    +0.050 C 
ATOM     16  C   UNL     1      19.403   6.504  22.109  0.00  0.00    +0.050 C 
ATOM     17  C   UNL     1      20.845   8.972  22.425  0.00  0.00    +0.161 C 
ATOM     18  C   UNL     1      20.854   6.606  22.563  0.00  0.00    +0.161 C 
ENDBRANCH   5  10
BRANCH  19  20
ATOM     20  C   UNL     1      11.546   9.660  21.196  0.00  0.00    +0.037 A 
ATOM     21  C   UNL     1      11.122   9.006  22.353  0.00  0.00    +0.016 A 
ATOM     22  C   UNL     1      11.609  11.052  21.165  0.00  0.00    +0.016 A 
ATOM     23  C   UNL     1      10.761   9.746  23.479  0.00  0.00    +0.046 A 
ATOM     24  C   UNL     1      11.248  11.792  22.291  0.00  0.00    +0.046 A 
ATOM     25  C   UNL     1      10.825  11.139  23.448  0.00  0.00    +0.120 A 
BRANCH  25   4
ATOM      4  O   UNL     1      10.472  11.860  24.548  0.00  0.00    -0.495 OA
ATOM     26  C   UNL     1      10.435  13.280  24.408  0.00  0.00    +0.277 C 
ENDBRANCH  25   4
ENDBRANCH  19  20
TORSDOF 3
ENDMDL
MODEL 2
REMARK VINA RESULT:      -6.7     27.274     29.639
REMARK  Name = 75368488
REMARK  4 active torsions:
REMARK  status: ('A' for Active; 'I' for Inactive)
REMARK    1  A    between atoms: O_4  and  C_25
REMARK    2  A    between atoms: O_4  and  C_26
REMARK    3  A    between atoms: N_5  and  C_10
REMARK    4  A    between atoms: C_19  and  C_20
REMARK                            x       y       z     vdW  Elec       q    Type
REMARK                         _______ _______ _______ _____ _____    ______ ____
ROOT
ATOM      2  O   UNL     1      -3.959 -11.825  18.633  0.00  0.00    -0.252 OA
ATOM      3  O   UNL     1     -10.581 -10.109  20.054  0.00  0.00    -0.270 OA
ATOM      5  N   UNL     1      -4.712 -10.893  16.602  0.00  0.00    -0.280 N 
ATOM      6  N   UNL     1      -6.091 -10.869  18.376  0.00  0.00    -0.278 N 
ATOM      7  N   UNL     1      -8.854 -10.666  18.581  0.00  0.00    -0.294 N 
ATOM      8  C   UNL     1      -6.802 -10.127  17.350  0.00  0.00    +0.112 C 
ATOM      9  C   UNL     1      -5.956 -10.336  16.098  0.00  0.00    +0.133 C 
ATOM     11  C   UNL     1      -8.239 -10.626  17.241  0.00  0.00    +0.132 C 
ATOM     12  C   UNL     1      -6.683 -11.032  19.694  0.00  0.00    +0.128 C 
ATOM     13  C   UNL     1      -4.812 -11.263  17.958  0.00  0.00    +0.305 C 
ATOM     14  C   UNL     1      -8.134 -11.491  19.561  0.00  0.00    +0.127 C 
ATOM     19  C   UNL     1     -10.046 -10.039  18.948  0.00  0.00    +0.247 C 
ENDROOT
BRANCH   5  10
ATOM      1  O   UNL     1      -1.563 -10.124  13.960  0.00  0.00    -0.380 OA
ATOM     10  C   UNL     1      -3.583 -11.142  15.741  0.00  0.00    +0.082 C 
ATOM     15  C   UNL     1      -3.889 -10.739  14.298  0.00  0.00    +0.050 C 
ATOM     16  C   UNL     1      -2.340 -10.407  16.245  0.00  0.00    +0.050 C 
ATOM     17  C   UNL     1      -2.648 -10.883  13.426  0.00  0.00    +0.161 C 
ATOM     18  C   UNL     1      -1.186 -10.567  15.263  0.00  0.00    +0.161 C 
ENDBRANCH   5  10
BRANCH  19  20
ATOM     20  C   UNL     1     -10.730  -9.211  17.946  0.00  0.00    +0.037 A 
ATOM     21  C   UNL     1     -10.143  -8.026  17.503  0.00  0.00    +0.016 A 
ATOM     22  C   UNL     1     -11.966  -9.609  17.439  0.00  0.00    +0.016 A 
ATOM     23  C   UNL     1     -10.794  -7.238  16.553  0.00  0.00    +0.046 A 
ATOM     24  C   UNL     1     -12.617  -8.822  16.489  0.00  0.00    +0.046 A 
ATOM     25  C   UNL     1     -12.030  -7.637  16.046  0.00  0.00    +0.120 A 
BRANCH  25   4
ATOM      4  O   UNL     1     -12.665  -6.868  15.118  0.00  0.00    -0.495 OA
ATOM     26  C   UNL     1     -12.008  -5.668  14.712  0.00  0.00    +0.277 C 
ENDBRANCH  25   4
ENDBRANCH  19  20
TORSDOF 3
ENDMDL
MODEL 3
REMARK VINA RESULT:      -6.7     27.290     30.382
REMARK  Name = 75368488
REMARK  4 active torsions:
REMARK  status: ('A' for Active; 'I' for Inactive)
REMARK    1  A    between atoms: O_4  and  C_25
REMARK    2  A    between atoms: O_4  and  C_26
REMARK    3  A    between atoms: N_5  and  C_10
REMARK    4  A    between atoms: C_19  and  C_20
REMARK                            x       y       z     vdW  Elec       q    Type
REMARK                         _______ _______ _______ _____ _____    ______ ____
ROOT
ATOM      2  O   UNL     1     -10.465  -9.701  18.847  0.00  0.00    -0.252 OA
ATOM      3  O   UNL     1      -3.890 -12.062  18.858  0.00  0.00    -0.270 OA
ATOM      5  N   UNL     1      -9.716  -9.192  16.669  0.00  0.00    -0.280 N 
ATOM      6  N   UNL     1      -8.351 -10.336  18.040  0.00  0.00    -0.278 N 
ATOM      7  N   UNL     1      -5.594 -10.679  18.057  0.00  0.00    -0.294 N 
ATOM      8  C   UNL     1      -7.647 -10.298  16.770  0.00  0.00    +0.112 C 
ATOM      9  C   UNL     1      -8.480  -9.343  15.921  0.00  0.00    +0.133 C 
ATOM     11  C   UNL     1      -6.200  -9.868  16.983  0.00  0.00    +0.132 C 
ATOM     12  C   UNL     1      -7.765 -11.035  19.172  0.00  0.00    +0.128 C 
ATOM     13  C   UNL     1      -9.619  -9.742  17.963  0.00  0.00    +0.305 C 
ATOM     14  C   UNL     1      -6.305 -10.622  19.342  0.00  0.00    +0.127 C 
ATOM     19  C   UNL     1      -4.417 -11.422  17.950  0.00  0.00    +0.247 C 
ENDROOT
BRANCH   5  10
ATOM      1  O   UNL     1     -11.816  -6.270  14.540  0.00  0.00    -0.380 OA
ATOM     10  C   UNL     1     -10.834  -8.441  16.155  0.00  0.00    +0.082 C 
ATOM     15  C   UNL     1     -10.780  -6.985  16.618  0.00  0.00    +0.050 C 
ATOM     16  C   UNL     1     -10.882  -8.511  14.628  0.00  0.00    +0.050 C 
ATOM     17  C   UNL     1     -11.890  -6.172  15.963  0.00  0.00    +0.161 C 
ATOM     18  C   UNL     1     -11.984  -7.612  14.083  0.00  0.00    +0.161 C 
ENDBRANCH   5  10
BRANCH  19  20
ATOM     20  C   UNL     1      -3.742 -11.465  16.646  0.00  0.00    +0.037 A 
ATOM     21  C   UNL     1      -4.190 -12.344  15.659  0.00  0.00    +0.016 A 
ATOM     22  C   UNL     1      -2.655 -10.631  16.395  0.00  0.00    +0.016 A 
ATOM     23  C   UNL     1      -3.547 -12.387  14.421  0.00  0.00    +0.046 A 
ATOM     24  C   UNL     1      -2.012 -10.674  15.158  0.00  0.00    +0.046 A 
ATOM     25  C   UNL     1      -2.459 -11.552  14.171  0.00  0.00    +0.120 A 
BRANCH  25   4
ATOM      4  O   UNL     1      -1.833 -11.595  12.963  0.00  0.00    -0.495 OA
ATOM     26  C   UNL     1      -1.832 -10.396  12.190  0.00  0.00    +0.277 C 
ENDBRANCH  25   4
ENDBRANCH  19  20
TORSDOF 3
ENDMDL
MODEL 4
REMARK VINA RESULT:      -6.3     27.020     29.915
REMARK  Name = 75368488
REMARK  4 active torsions:
REMARK  status: ('A' for Active; 'I' for Inactive)
REMARK    1  A    between atoms: O_4  and  C_25
REMARK    2  A    between atoms: O_4  and  C_26
REMARK    3  A    between atoms: N_5  and  C_10
REMARK    4  A    between atoms: C_19  and  C_20
REMARK                            x       y       z     vdW  Elec       q    Type
REMARK                         _______ _______ _______ _____ _____    ______ ____
ROOT
ATOM      2  O   UNL     1      -4.179 -11.961  17.805  0.00  0.00    -0.252 OA
ATOM      3  O   UNL     1      -1.066 -10.389  11.751  0.00  0.00    -0.270 OA
ATOM      5  N   UNL     1      -5.999 -11.670  16.334  0.00  0.00    -0.280 N 
ATOM      6  N   UNL     1      -3.913 -11.548  15.507  0.00  0.00    -0.278 N 
ATOM      7  N   UNL     1      -2.888 -10.360  13.214  0.00  0.00    -0.294 N 
ATOM      8  C   UNL     1      -4.775 -11.447  14.342  0.00  0.00    +0.112 C 
ATOM      9  C   UNL     1      -6.175 -11.315  14.936  0.00  0.00    +0.133 C 
ATOM     11  C   UNL     1      -4.340 -10.278  13.465  0.00  0.00    +0.132 C 
ATOM     12  C   UNL     1      -2.469 -11.536  15.341  0.00  0.00    +0.128 C 
ATOM     13  C   UNL     1      -4.638 -11.757  16.689  0.00  0.00    +0.305 C 
ATOM     14  C   UNL     1      -2.058 -10.384  14.426  0.00  0.00    +0.127 C 
ATOM     19  C   UNL     1      -2.279 -10.365  11.958  0.00  0.00    +0.247 C 
ENDROOT
BRANCH   5  10
ATOM      1  O   UNL     1      -8.092 -12.218  19.911  0.00  0.00    -0.380 OA
ATOM     10  C   UNL     1      -7.114 -11.775  17.241  0.00  0.00    +0.082 C 
ATOM     15  C   UNL     1      -7.187 -13.168  17.867  0.00  0.00    +0.050 C 
ATOM     16  C   UNL     1      -7.034 -10.706  18.331  0.00  0.00    +0.050 C 
ATOM     17  C   UNL     1      -8.287 -13.227  18.920  0.00  0.00    +0.161 C 
ATOM     18  C   UNL     1      -8.141 -10.903  19.359  0.00  0.00    +0.161 C 
ENDBRANCH   5  10
BRANCH  19  20
ATOM     20  C   UNL     1      -3.142 -10.354  10.770  0.00  0.00    +0.037 A 
ATOM     21  C   UNL     1      -3.457  -9.145  10.148  0.00  0.00    +0.016 A 
ATOM     22  C   UNL     1      -3.647 -11.550  10.263  0.00  0.00    +0.016 A 
ATOM     23  C   UNL     1      -4.279  -9.134   9.021  0.00  0.00    +0.046 A 
ATOM     24  C   UNL     1      -4.468 -11.539   9.136  0.00  0.00    +0.046 A 
ATOM     25  C   UNL     1      -4.783 -10.332   8.515  0.00  0.00    +0.120 A 
BRANCH  25   4
ATOM      4  O   UNL     1      -5.585 -10.320   7.414  0.00  0.00    -0.495 OA
ATOM     26  C   UNL     1      -5.163 -11.100   6.297  0.00  0.00    +0.277 C 
ENDBRANCH  25   4
ENDBRANCH  19  20
TORSDOF 3
ENDMDL
MODEL 5
REMARK VINA RESULT:      -6.3     28.408     30.857
REMARK  Name = 75368488
REMARK  4 active torsions:
REMARK  status: ('A' for Active; 'I' for Inactive)
REMARK    1  A    between atoms: O_4  and  C_25
REMARK    2  A    between atoms: O_4  and  C_26
REMARK    3  A    between atoms: N_5  and  C_10
REMARK    4  A    between atoms: C_19  and  C_20
REMARK                            x       y       z     vdW  Elec       q    Type
REMARK                         _______ _______ _______ _____ _____    ______ ____
ROOT
ATOM      2  O   UNL     1      -5.019 -10.583   6.591  0.00  0.00    -0.252 OA
ATOM      3  O   UNL     1     -10.750  -6.648   5.905  0.00  0.00    -0.270 OA
ATOM      5  N   UNL     1      -5.334  -9.724   8.764  0.00  0.00    -0.280 N 
ATOM      6  N   UNL     1      -6.868  -9.262   7.188  0.00  0.00    -0.278 N 
ATOM      7  N   UNL     1      -8.751  -7.232   6.965  0.00  0.00    -0.294 N 
ATOM      8  C   UNL     1      -7.415  -8.697   8.410  0.00  0.00    +0.112 C 
ATOM      9  C   UNL     1      -6.275  -8.828   9.415  0.00  0.00    +0.133 C 
ATOM     11  C   UNL     1      -7.888  -7.269   8.162  0.00  0.00    +0.132 C 
ATOM     12  C   UNL     1      -7.622  -9.175   5.949  0.00  0.00    +0.128 C 
ATOM     13  C   UNL     1      -5.662  -9.941   7.411  0.00  0.00    +0.305 C 
ATOM     14  C   UNL     1      -8.122  -7.747   5.741  0.00  0.00    +0.127 C 
ATOM     19  C   UNL     1     -10.048  -6.718   6.913  0.00  0.00    +0.247 C 
ENDROOT
BRANCH   5  10
ATOM      1  O   UNL     1      -2.647 -10.531  11.865  0.00  0.00    -0.380 OA
ATOM     10  C   UNL     1      -4.147 -10.199   9.431  0.00  0.00    +0.082 C 
ATOM     15  C   UNL     1      -3.386  -9.047  10.088  0.00  0.00    +0.050 C 
ATOM     16  C   UNL     1      -4.493 -11.268  10.468  0.00  0.00    +0.050 C 
ATOM     17  C   UNL     1      -2.208  -9.575  10.899  0.00  0.00    +0.161 C 
ATOM     18  C   UNL     1      -3.255 -11.671  11.258  0.00  0.00    +0.161 C 
ENDBRANCH   5  10
BRANCH  19  20
ATOM     20  C   UNL     1     -10.648  -6.225   8.160  0.00  0.00    +0.037 A 
ATOM     21  C   UNL     1     -11.301  -7.111   9.017  0.00  0.00    +0.016 A 
ATOM     22  C   UNL     1     -10.567  -4.872   8.486  0.00  0.00    +0.016 A 
ATOM     23  C   UNL     1     -11.873  -6.643  10.200  0.00  0.00    +0.046 A 
ATOM     24  C   UNL     1     -11.139  -4.404   9.668  0.00  0.00    +0.046 A 
ATOM     25  C   UNL     1     -11.792  -5.289  10.525  0.00  0.00    +0.120 A 
BRANCH  25   4
ATOM      4  O   UNL     1     -12.350  -4.833  11.680  0.00  0.00    -0.495 OA
ATOM     26  C   UNL     1     -12.241  -3.435  11.946  0.00  0.00    +0.277 C 
ENDBRANCH  25   4
ENDBRANCH  19  20
TORSDOF 3
ENDMDL
MODEL 6
REMARK VINA RESULT:      -6.1      4.267      5.853
REMARK  Name = 75368488
REMARK  4 active torsions:
REMARK  status: ('A' for Active; 'I' for Inactive)
REMARK    1  A    between atoms: O_4  and  C_25
REMARK    2  A    between atoms: O_4  and  C_26
REMARK    3  A    between atoms: N_5  and  C_10
REMARK    4  A    between atoms: C_19  and  C_20
REMARK                            x       y       z     vdW  Elec       q    Type
REMARK                         _______ _______ _______ _____ _____    ______ ____
ROOT
ATOM      2  O   UNL     1      14.551   8.454  14.839  0.00  0.00    -0.252 OA
ATOM      3  O   UNL     1      12.048   6.835  21.157  0.00  0.00    -0.270 OA
ATOM      5  N   UNL     1      14.332  10.560  15.876  0.00  0.00    -0.280 N 
ATOM      6  N   UNL     1      13.889   8.713  17.079  0.00  0.00    -0.278 N 
ATOM      7  N   UNL     1      12.373   8.306  19.371  0.00  0.00    -0.294 N 
ATOM      8  C   UNL     1      13.777   9.805  18.030  0.00  0.00    +0.112 C 
ATOM      9  C   UNL     1      13.866  11.056  17.160  0.00  0.00    +0.133 C 
ATOM     11  C   UNL     1      12.485   9.674  18.830  0.00  0.00    +0.132 C 
ATOM     12  C   UNL     1      13.693   7.343  17.523  0.00  0.00    +0.128 C 
ATOM     13  C   UNL     1      14.294   9.152  15.810  0.00  0.00    +0.305 C 
ATOM     14  C   UNL     1      12.418   7.242  18.357  0.00  0.00    +0.127 C 
ATOM     19  C   UNL     1      12.185   7.974  20.713  0.00  0.00    +0.247 C 
ENDROOT
BRANCH   5  10
ATOM      1  O   UNL     1      15.947  13.842  13.851  0.00  0.00    -0.380 OA
ATOM     10  C   UNL     1      14.654  11.446  14.786  0.00  0.00    +0.082 C 
ATOM     15  C   UNL     1      14.066  12.839  15.016  0.00  0.00    +0.050 C 
ATOM     16  C   UNL     1      16.167  11.536  14.583  0.00  0.00    +0.050 C 
ATOM     17  C   UNL     1      14.522  13.801  13.926  0.00  0.00    +0.161 C 
ATOM     18  C   UNL     1      16.506  12.571  13.519  0.00  0.00    +0.161 C 
ENDBRANCH   5  10
BRANCH  19  20
ATOM     20  C   UNL     1      12.159   9.064  21.698  0.00  0.00    +0.037 A 
ATOM     21  C   UNL     1      10.943   9.496  22.227  0.00  0.00    +0.016 A 
ATOM     22  C   UNL     1      13.349   9.666  22.103  0.00  0.00    +0.016 A 
ATOM     23  C   UNL     1      10.918  10.532  23.161  0.00  0.00    +0.046 A 
ATOM     24  C   UNL     1      13.324  10.702  23.037  0.00  0.00    +0.046 A 
ATOM     25  C   UNL     1      12.108  11.135  23.566  0.00  0.00    +0.120 A 
BRANCH  25   4
ATOM      4  O   UNL     1      12.083  12.146  24.478  0.00  0.00    -0.495 OA
ATOM     26  C   UNL     1      10.947  12.214  25.338  0.00  0.00    +0.277 C 
ENDBRANCH  25   4
ENDBRANCH  19  20
TORSDOF 3
ENDMDL
MODEL 7
REMARK VINA RESULT:      -6.1      3.440      9.887
REMARK  Name = 75368488
REMARK  4 active torsions:
REMARK  status: ('A' for Active; 'I' for Inactive)
REMARK    1  A    between atoms: O_4  and  C_25
REMARK    2  A    between atoms: O_4  and  C_26
REMARK    3  A    between atoms: N_5  and  C_10
REMARK    4  A    between atoms: C_19  and  C_20
REMARK                            x       y       z     vdW  Elec       q    Type
REMARK                         _______ _______ _______ _____ _____    ______ ____
ROOT
ATOM      2  O   UNL     1      16.035   9.153  21.254  0.00  0.00    -0.252 OA
ATOM      3  O   UNL     1      22.718   7.674  22.652  0.00  0.00    -0.270 OA
ATOM      5  N   UNL     1      16.326   7.032  20.264  0.00  0.00    -0.280 N 
ATOM      6  N   UNL     1      18.026   7.918  21.437  0.00  0.00    -0.278 N 
ATOM      7  N   UNL     1      20.763   7.440  21.395  0.00  0.00    -0.294 N 
ATOM      8  C   UNL     1      18.484   6.588  21.075  0.00  0.00    +0.112 C 
ATOM      9  C   UNL     1      17.418   6.087  20.106  0.00  0.00    +0.133 C 
ATOM     11  C   UNL     1      19.893   6.657  20.495  0.00  0.00    +0.132 C 
ATOM     12  C   UNL     1      18.874   8.783  22.241  0.00  0.00    +0.128 C 
ATOM     13  C   UNL     1      16.709   8.159  21.019  0.00  0.00    +0.305 C 
ATOM     14  C   UNL     1      20.290   8.804  21.668  0.00  0.00    +0.127 C 
ATOM     19  C   UNL     1      21.972   7.005  21.938  0.00  0.00    +0.247 C 
ENDROOT
BRANCH   5  10
ATOM      1  O   UNL     1      12.469   7.899  18.902  0.00  0.00    -0.380 OA
ATOM     10  C   UNL     1      15.062   6.858  19.593  0.00  0.00    +0.082 C 
ATOM     15  C   UNL     1      13.900   6.893  20.588  0.00  0.00    +0.050 C 
ATOM     16  C   UNL     1      14.867   7.920  18.511  0.00  0.00    +0.050 C 
ATOM     17  C   UNL     1      12.565   6.841  19.855  0.00  0.00    +0.161 C 
ATOM     18  C   UNL     1      13.477   7.812  17.895  0.00  0.00    +0.161 C 
ENDBRANCH   5  10
BRANCH  19  20
ATOM     20  C   UNL     1      22.405   5.630  21.653  0.00  0.00    +0.037 A 
ATOM     21  C   UNL     1      21.822   4.561  22.334  0.00  0.00    +0.016 A 
ATOM     22  C   UNL     1      23.399   5.394  20.705  0.00  0.00    +0.016 A 
ATOM     23  C   UNL     1      22.235   3.256  22.066  0.00  0.00    +0.046 A 
ATOM     24  C   UNL     1      23.811   4.089  20.437  0.00  0.00    +0.046 A 
ATOM     25  C   UNL     1      23.229   3.020  21.117  0.00  0.00    +0.120 A 
BRANCH  25   4
ATOM      4  O   UNL     1      23.630   1.746  20.855  0.00  0.00    -0.495 OA
ATOM     26  C   UNL     1      24.771   1.267  21.566  0.00  0.00    +0.277 C 
ENDBRANCH  25   4
ENDBRANCH  19  20
TORSDOF 3
ENDMDL
MODEL 8
REMARK VINA RESULT:      -6.1     27.657     30.080
REMARK  Name = 75368488
REMARK  4 active torsions:
REMARK  status: ('A' for Active; 'I' for Inactive)
REMARK    1  A    between atoms: O_4  and  C_25
REMARK    2  A    between atoms: O_4  and  C_26
REMARK    3  A    between atoms: N_5  and  C_10
REMARK    4  A    between atoms: C_19  and  C_20
REMARK                            x       y       z     vdW  Elec       q    Type
REMARK                         _______ _______ _______ _____ _____    ______ ____
ROOT
ATOM      2  O   UNL     1      -6.836 -10.860  19.411  0.00  0.00    -0.252 OA
ATOM      3  O   UNL     1      -1.698 -12.084  14.838  0.00  0.00    -0.270 OA
ATOM      5  N   UNL     1      -7.725 -10.041  17.386  0.00  0.00    -0.280 N 
ATOM      6  N   UNL     1      -5.721 -11.059  17.352  0.00  0.00    -0.278 N 
ATOM      7  N   UNL     1      -3.603 -10.938  15.558  0.00  0.00    -0.294 N 
ATOM      8  C   UNL     1      -6.019 -10.792  15.956  0.00  0.00    +0.112 C 
ATOM      9  C   UNL     1      -7.268  -9.917  16.012  0.00  0.00    +0.133 C 
ATOM     11  C   UNL     1      -4.817 -10.147  15.275  0.00  0.00    +0.132 C 
ATOM     12  C   UNL     1      -4.493 -11.749  17.711  0.00  0.00    +0.128 C 
ATOM     13  C   UNL     1      -6.770 -10.681  18.202  0.00  0.00    +0.305 C 
ATOM     14  C   UNL     1      -3.307 -11.115  16.986  0.00  0.00    +0.127 C 
ATOM     19  C   UNL     1      -2.733 -11.462  14.601  0.00  0.00    +0.247 C 
ENDROOT
BRANCH   5  10
ATOM      1  O   UNL     1     -11.711  -8.781  17.331  0.00  0.00    -0.380 OA
ATOM     10  C   UNL     1      -8.956  -9.444  17.838  0.00  0.00    +0.082 C 
ATOM     15  C   UNL     1      -9.367  -8.278  16.939  0.00  0.00    +0.050 C 
ATOM     16  C   UNL     1     -10.075 -10.484  17.903  0.00  0.00    +0.050 C 
ATOM     17  C   UNL     1     -10.733  -7.741  17.346  0.00  0.00    +0.161 C 
ATOM     18  C   UNL     1     -11.402  -9.824  18.255  0.00  0.00    +0.161 C 
ENDBRANCH   5  10
BRANCH  19  20
ATOM     20  C   UNL     1      -3.070 -11.277  13.183  0.00  0.00    +0.037 A 
ATOM     21  C   UNL     1      -2.419 -10.297  12.434  0.00  0.00    +0.016 A 
ATOM     22  C   UNL     1      -4.041 -12.080  12.586  0.00  0.00    +0.016 A 
ATOM     23  C   UNL     1      -2.740 -10.119  11.089  0.00  0.00    +0.046 A 
ATOM     24  C   UNL     1      -4.362 -11.902  11.241  0.00  0.00    +0.046 A 
ATOM     25  C   UNL     1      -3.711 -10.922  10.492  0.00  0.00    +0.120 A 
BRANCH  25   4
ATOM      4  O   UNL     1      -4.024 -10.748   9.178  0.00  0.00    -0.495 OA
ATOM     26  C   UNL     1      -4.548  -9.477   8.799  0.00  0.00    +0.277 C 
ENDBRANCH  25   4
ENDBRANCH  19  20
TORSDOF 3
ENDMDL
MODEL 9
REMARK VINA RESULT:      -6.0     27.378     30.002
REMARK  Name = 75368488
REMARK  4 active torsions:
REMARK  status: ('A' for Active; 'I' for Inactive)
REMARK    1  A    between atoms: O_4  and  C_25
REMARK    2  A    between atoms: O_4  and  C_26
REMARK    3  A    between atoms: N_5  and  C_10
REMARK    4  A    between atoms: C_19  and  C_20
REMARK                            x       y       z     vdW  Elec       q    Type
REMARK                         _______ _______ _______ _____ _____    ______ ____
ROOT
ATOM      2  O   UNL     1      -5.089 -10.919  18.181  0.00  0.00    -0.252 OA
ATOM      3  O   UNL     1      -1.375 -11.426  12.286  0.00  0.00    -0.270 OA
ATOM      5  N   UNL     1      -6.628 -10.245  16.527  0.00  0.00    -0.280 N 
ATOM      6  N   UNL     1      -4.600 -10.969  15.884  0.00  0.00    -0.278 N 
ATOM      7  N   UNL     1      -3.129 -10.558  13.562  0.00  0.00    -0.294 N 
ATOM      8  C   UNL     1      -5.323 -10.754  14.642  0.00  0.00    +0.112 C 
ATOM      9  C   UNL     1      -6.610 -10.064  15.085  0.00  0.00    +0.133 C 
ATOM     11  C   UNL     1      -4.469  -9.948  13.669  0.00  0.00    +0.132 C 
ATOM     12  C   UNL     1      -3.238 -11.476  15.850  0.00  0.00    +0.128 C 
ATOM     13  C   UNL     1      -5.400 -10.738  17.012  0.00  0.00    +0.305 C 
ATOM     14  C   UNL     1      -2.411 -10.684  14.839  0.00  0.00    +0.127 C 
ATOM     19  C   UNL     1      -2.509 -10.959  12.378  0.00  0.00    +0.247 C 
ENDROOT
BRANCH   5  10
ATOM      1  O   UNL     1     -10.593  -9.703  17.737  0.00  0.00    -0.380 OA
ATOM     10  C   UNL     1      -7.746  -9.826  17.335  0.00  0.00    +0.082 C 
ATOM     15  C   UNL     1      -8.640  -8.846  16.574  0.00  0.00    +0.050 C 
ATOM     16  C   UNL     1      -8.560 -11.031  17.808  0.00  0.00    +0.050 C 
ATOM     17  C   UNL     1      -9.885  -8.514  17.387  0.00  0.00    +0.161 C 
ATOM     18  C   UNL     1      -9.810 -10.577  18.550  0.00  0.00    +0.161 C 
ENDBRANCH   5  10
BRANCH  19  20
ATOM     20  C   UNL     1      -3.264 -10.830  11.124  0.00  0.00    +0.037 A 
ATOM     21  C   UNL     1      -3.898 -11.944  10.575  0.00  0.00    +0.016 A 
ATOM     22  C   UNL     1      -3.345  -9.595  10.483  0.00  0.00    +0.016 A 
ATOM     23  C   UNL     1      -4.612 -11.823   9.383  0.00  0.00    +0.046 A 
ATOM     24  C   UNL     1      -4.059  -9.474   9.291  0.00  0.00    +0.046 A 
ATOM     25  C   UNL     1      -4.693 -10.587   8.741  0.00  0.00    +0.120 A 
BRANCH  25   4
ATOM      4  O   UNL     1      -5.390 -10.469   7.578  0.00  0.00    -0.495 OA
ATOM     26  C   UNL     1      -5.008 -11.327   6.503  0.00  0.00    +0.277 C 
ENDBRANCH  25   4
ENDBRANCH  19  20
TORSDOF 3
ENDMDL
MODEL 10
REMARK VINA RESULT:      -5.7     25.832     29.052
REMARK  Name = 75368488
REMARK  4 active torsions:
REMARK  status: ('A' for Active; 'I' for Inactive)
REMARK    1  A    between atoms: O_4  and  C_25
REMARK    2  A    between atoms: O_4  and  C_26
REMARK    3  A    between atoms: N_5  and  C_10
REMARK    4  A    between atoms: C_19  and  C_20
REMARK                            x       y       z     vdW  Elec       q    Type
REMARK                         _______ _______ _______ _____ _____    ______ ____
ROOT
ATOM      2  O   UNL     1     -11.815  10.294  12.971  0.00  0.00    -0.252 OA
ATOM      3  O   UNL     1     -10.049   9.784  19.711  0.00  0.00    -0.270 OA
ATOM      5  N   UNL     1     -13.374   8.737  13.810  0.00  0.00    -0.280 N 
ATOM      6  N   UNL     1     -11.944   9.711  15.244  0.00  0.00    -0.278 N 
ATOM      7  N   UNL     1     -11.028   8.959  17.757  0.00  0.00    -0.294 N 
ATOM      8  C   UNL     1     -12.823   8.919  16.086  0.00  0.00    +0.112 C 
ATOM      9  C   UNL     1     -13.643   8.103  15.090  0.00  0.00    +0.133 C 
ATOM     11  C   UNL     1     -12.004   8.091  17.070  0.00  0.00    +0.132 C 
ATOM     12  C   UNL     1     -10.894  10.515  15.848  0.00  0.00    +0.128 C 
ATOM     13  C   UNL     1     -12.316   9.664  13.893  0.00  0.00    +0.305 C 
ATOM     14  C   UNL     1     -10.113   9.679  16.861  0.00  0.00    +0.127 C 
ATOM     19  C   UNL     1     -10.892   9.094  19.139  0.00  0.00    +0.247 C 
ENDROOT
BRANCH   5  10
ATOM      1  O   UNL     1     -16.440   7.403  11.300  0.00  0.00    -0.380 OA
ATOM     10  C   UNL     1     -14.046   8.331  12.601  0.00  0.00    +0.082 C 
ATOM     15  C   UNL     1     -14.520   6.880  12.695  0.00  0.00    +0.050 C 
ATOM     16  C   UNL     1     -15.224   9.256  12.295  0.00  0.00    +0.050 C 
ATOM     17  C   UNL     1     -15.343   6.504  11.468  0.00  0.00    +0.161 C 
ATOM     18  C   UNL     1     -16.009   8.747  11.092  0.00  0.00    +0.161 C 
ENDBRANCH   5  10
BRANCH  19  20
ATOM     20  C   UNL     1     -11.833   8.369  20.002  0.00  0.00    +0.037 A 
ATOM     21  C   UNL     1     -11.545   7.065  20.407  0.00  0.00    +0.016 A 
ATOM     22  C   UNL     1     -13.014   8.982  20.416  0.00  0.00    +0.016 A 
ATOM     23  C   UNL     1     -12.440   6.375  21.225  0.00  0.00    +0.046 A 
ATOM     24  C   UNL     1     -13.909   8.292  21.234  0.00  0.00    +0.046 A 
ATOM     25  C   UNL     1     -13.622   6.989  21.639  0.00  0.00    +0.120 A 
BRANCH  25   4
ATOM      4  O   UNL     1     -14.494   6.315  22.437  0.00  0.00    -0.495 OA
ATOM     26  C   UNL     1     -14.029   5.102  23.028  0.00  0.00    +0.277 C 
ENDBRANCH  25   4
ENDBRANCH  19  20
TORSDOF 3
ENDMDL
