REMARK  Name = 7134325
REMARK  12 active torsions:
REMARK  status: ('A' for Active; 'I' for Inactive)
REMARK    1  A    between atoms: N_8  and  C_14
REMARK    2  A    between atoms: N_9  and  C_21
REMARK    3  A    between atoms: C_15  and  C_19
REMARK    4  A    between atoms: C_20  and  C_25
REMARK    5  A    between atoms: C_21  and  C_22
REMARK    6  A    between atoms: C_21  and  C_26
REMARK    7  A    between atoms: C_22  and  C_23
REMARK    8  A    between atoms: C_23  and  C_27
REMARK    9  A    between atoms: C_23  and  C_28
REMARK   10  A    between atoms: C_24  and  C_29
REMARK   11  A    between atoms: C_31  and  C_33
REMARK   12  A    between atoms: C_32  and  C_34
REMARK                            x       y       z     vdW  Elec       q    Type
REMARK                         _______ _______ _______ _____ _____    ______ ____
ROOT
ATOM      4  O   UNL     1       2.320   1.159   2.623  0.00  0.00    -0.268 OA
ATOM      7  N   UNL     1       0.906   1.237   0.783  0.00  0.00    -0.285 N 
ATOM     14  C   UNL     1      -1.864   0.847  -0.075  0.00  0.00    +0.077 C 
ATOM     15  C   UNL     1       0.259  -0.060   1.016  0.00  0.00    +0.164 C 
ATOM     16  C   UNL     1      -1.267   0.009   1.059  0.00  0.00    +0.054 C 
ATOM     17  C   UNL     1      -1.198   2.219  -0.114  0.00  0.00    +0.041 C 
ATOM     18  C   UNL     1       0.315   2.096  -0.258  0.00  0.00    +0.111 C 
ATOM     20  C   UNL     1       2.110   1.528   1.465  0.00  0.00    +0.266 C 
ENDROOT
BRANCH  20  25
ATOM      1  S   UNL     1       5.042   3.845   0.182  0.00  0.00    -0.080 S 
ATOM     10  N   UNL     1       3.227   2.191  -0.624  0.00  0.00    -0.240 NA
ATOM     25  C   UNL     1       3.125   2.292   0.748  0.00  0.00    +0.133 A 
ATOM     30  C   UNL     1       4.020   3.138   1.364  0.00  0.00    +0.080 A 
ATOM     32  C   UNL     1       4.206   2.967  -1.032  0.00  0.00    +0.076 A 
ATOM     34  C   UNL     1       4.617   3.123  -2.444  0.00  0.00    +0.073 C 
ENDBRANCH  20  25
BRANCH  15  19
ATOM      3  O   UNL     1       0.145  -1.138  -1.112  0.00  0.00    -0.274 OA
ATOM      9  N   UNL     1       1.931  -1.620   0.301  0.00  0.00    -0.302 N 
ATOM     19  C   UNL     1       0.756  -0.983  -0.058  0.00  0.00    +0.234 C 
ATOM     36  H   UNL     1       2.435  -1.278   1.114  0.00  0.00    +0.150 HD
BRANCH   9  21
ATOM     21  C   UNL     1       2.603  -2.576  -0.549  0.00  0.00    +0.159 C 
BRANCH  21  26
ATOM      6  O   UNL     1       4.098  -0.756  -1.149  0.00  0.00    -0.274 OA
ATOM     11  N   UNL     1       3.653  -2.373  -2.718  0.00  0.00    -0.328 N 
ATOM     26  C   UNL     1       3.513  -1.785  -1.479  0.00  0.00    +0.231 C 
ATOM     37  H   UNL     1       3.181  -3.236  -2.969  0.00  0.00    +0.145 HD
ATOM     38  H   UNL     1       4.244  -1.955  -3.429  0.00  0.00    +0.145 HD
ENDBRANCH  21  26
BRANCH  21  22
ATOM     22  C   UNL     1       3.421  -3.595   0.255  0.00  0.00    +0.034 C 
BRANCH  22  23
ATOM     23  C   UNL     1       2.610  -4.408   1.285  0.00  0.00    -0.015 C 
ATOM     27  C   UNL     1       1.598  -5.298   0.558  0.00  0.00    +0.007 C 
ATOM     28  C   UNL     1       1.881  -3.514   2.289  0.00  0.00    +0.007 C 
ENDBRANCH  22  23
ENDBRANCH  21  22
ENDBRANCH   9  21
ENDBRANCH  15  19
BRANCH  14   8
ATOM      5  O   UNL     1      -3.804  -0.927  -1.098  0.00  0.00    -0.270 OA
ATOM      8  N   UNL     1      -3.294   0.976   0.083  0.00  0.00    -0.308 N 
ATOM     24  C   UNL     1      -4.188   0.052  -0.456  0.00  0.00    +0.254 C 
ATOM     35  H   UNL     1      -3.651   1.738   0.653  0.00  0.00    +0.149 HD
BRANCH  24  29
ATOM      2  S   UNL     1      -6.064   1.647   0.737  0.00  0.00    +0.041 S 
ATOM     12  N   UNL     1      -7.898   0.159  -0.099  0.00  0.00    -0.146 NA
ATOM     13  N   UNL     1      -7.688   1.258   0.608  0.00  0.00    -0.110 NA
ATOM     29  C   UNL     1      -5.610   0.302  -0.181  0.00  0.00    +0.117 A 
ATOM     31  C   UNL     1      -6.708  -0.389  -0.551  0.00  0.00    +0.081 A 
ATOM     33  C   UNL     1      -6.772  -1.624  -1.358  0.00  0.00    +0.069 C 
ENDBRANCH  24  29
ENDBRANCH  14   8
TORSDOF 8
