REMARK  Name = 56775326
REMARK  5 active torsions:
REMARK  status: ('A' for Active; 'I' for Inactive)
REMARK    1  A    between atoms: O_5  and  C_17
REMARK    2  A    between atoms: O_5  and  C_19
REMARK    3  A    between atoms: N_7  and  C_14
REMARK    4  A    between atoms: N_8  and  C_18
REMARK    5  A    between atoms: C_14  and  C_17
REMARK                            x       y       z     vdW  Elec       q    Type
REMARK                         _______ _______ _______ _____ _____    ______ ____
ROOT
ATOM      2  O   UNL     1      -2.223  -2.149  -0.880  0.00  0.00    -0.364 OA
ATOM      3  O   UNL     1      -4.534   0.273  -2.088  0.00  0.00    -0.273 OA
ATOM      4  O   UNL     1       2.127  -2.093   0.911  0.00  0.00    -0.252 OA
ATOM      6  N   UNL     1       0.146  -0.997   0.533  0.00  0.00    -0.281 N 
ATOM      7  N   UNL     1      -3.133   0.397  -0.234  0.00  0.00    -0.290 N 
ATOM      8  N   UNL     1       2.170   0.094   0.100  0.00  0.00    -0.269 N 
ATOM      9  C   UNL     1      -2.097  -0.235   0.572  0.00  0.00    +0.124 C 
ATOM     10  C   UNL     1      -2.087  -1.759   0.484  0.00  0.00    +0.158 C 
ATOM     11  C   UNL     1      -0.680   0.139   0.126  0.00  0.00    +0.134 C 
ATOM     12  C   UNL     1      -0.684  -2.122   0.954  0.00  0.00    +0.143 C 
ATOM     13  C   UNL     1      -3.752  -0.257  -1.297  0.00  0.00    +0.242 C 
ATOM     15  C   UNL     1      -3.473  -1.747  -1.392  0.00  0.00    +0.256 C 
ATOM     16  C   UNL     1       1.544  -1.071   0.543  0.00  0.00    +0.307 C 
ATOM     25  H   UNL     1       1.581   0.866  -0.195  0.00  0.00    +0.156 HD
ENDROOT
BRANCH   8  18
ATOM      1  F   UNL     1       7.609   1.081  -0.333  0.00  0.00    -0.205 F 
ATOM     18  C   UNL     1       3.559   0.346  -0.011  0.00  0.00    +0.035 A 
ATOM     20  C   UNL     1       4.009   1.582  -0.477  0.00  0.00    +0.026 A 
ATOM     21  C   UNL     1       4.478  -0.640   0.347  0.00  0.00    +0.026 A 
ATOM     22  C   UNL     1       5.377   1.830  -0.587  0.00  0.00    +0.040 A 
ATOM     23  C   UNL     1       5.846  -0.392   0.237  0.00  0.00    +0.040 A 
ATOM     24  C   UNL     1       6.295   0.843  -0.229  0.00  0.00    +0.124 A 
ENDBRANCH   8  18
BRANCH   7  14
ATOM     14  C   UNL     1      -3.391   1.809   0.011  0.00  0.00    +0.136 C 
BRANCH  14  17
ATOM     17  C   UNL     1      -4.541   2.005   0.982  0.00  0.00    +0.178 C 
BRANCH  17   5
ATOM      5  O   UNL     1      -5.727   1.450   0.428  0.00  0.00    -0.381 OA
ATOM     19  C   UNL     1      -6.837   1.615   1.300  0.00  0.00    +0.194 C 
ENDBRANCH  17   5
ENDBRANCH  14  17
ENDBRANCH   7  14
TORSDOF 4
