REMARK  Name = 45783978
REMARK  14 active torsions:
REMARK  status: ('A' for Active; 'I' for Inactive)
REMARK    1  A    between atoms: N_2  and  C_14
REMARK    2  A    between atoms: N_2  and  C_20
REMARK    3  A    between atoms: N_6  and  C_32
REMARK    4  A    between atoms: N_6  and  C_33
REMARK    5  A    between atoms: N_6  and  C_34
REMARK    6  A    between atoms: C_7  and  C_11
REMARK    7  A    between atoms: C_8  and  C_14
REMARK    8  A    between atoms: C_10  and  C_15
REMARK    9  A    between atoms: C_11  and  C_16
REMARK   10  A    between atoms: C_11  and  C_17
REMARK   11  A    between atoms: C_12  and  C_18
REMARK   12  A    between atoms: C_15  and  C_19
REMARK   13  A    between atoms: C_20  and  C_21
REMARK   14  A    between atoms: C_22  and  C_25
REMARK                            x       y       z     vdW  Elec       q    Type
REMARK                         _______ _______ _______ _____ _____    ______ ____
ROOT
ATOM      7  C   UNL     1       3.789  -0.512  -0.840  0.00  0.00    +0.000 C 
ATOM      8  C   UNL     1       3.924  -0.637   0.696  0.00  0.00    +0.029 C 
ATOM      9  C   UNL     1       2.776   0.583  -1.202  0.00  0.00    +0.012 C 
ATOM     10  C   UNL     1       3.125   1.963  -0.603  0.00  0.00    +0.024 C 
ATOM     12  C   UNL     1       3.669   1.875   0.815  0.00  0.00    -0.073 C 
ATOM     13  C   UNL     1       4.009   0.703   1.381  0.00  0.00    -0.023 C 
ATOM     18  C   UNL     1       3.876   3.165   1.560  0.00  0.00    +0.039 C 
ENDROOT
BRANCH   7  11
ATOM     11  C   UNL     1       5.149  -0.251  -1.502  0.00  0.00    -0.013 C 
ATOM     16  C   UNL     1       4.957   0.295  -2.913  0.00  0.00    +0.007 C 
ATOM     17  C   UNL     1       5.983  -1.528  -1.524  0.00  0.00    +0.007 C 
ENDBRANCH   7  11
BRANCH   8  14
ATOM     14  C   UNL     1       2.769  -1.441   1.302  0.00  0.00    +0.089 C 
BRANCH  14   2
ATOM      2  N   UNL     1       2.673  -2.750   0.680  0.00  0.00    -0.311 NA
ATOM     35  H   UNL     1       3.545  -3.255   0.838  0.00  0.00    +0.122 HD
BRANCH   2  20
ATOM     20  C   UNL     1       1.569  -3.519   1.244  0.00  0.00    +0.117 C 
BRANCH  20  21
ATOM      5  N   UNL     1      -1.990  -2.247   1.023  0.00  0.00    -0.263 NA
ATOM     21  C   UNL     1       0.243  -3.103   0.665  0.00  0.00    -0.016 A 
ATOM     23  C   UNL     1       0.004  -3.176  -0.703  0.00  0.00    +0.008 A 
ATOM     24  C   UNL     1      -0.777  -2.635   1.478  0.00  0.00    +0.115 A 
ATOM     26  C   UNL     1      -1.231  -2.786  -1.208  0.00  0.00    +0.020 A 
ATOM     29  C   UNL     1      -2.186  -2.333  -0.312  0.00  0.00    +0.111 A 
ENDBRANCH  20  21
ENDBRANCH   2  20
ENDBRANCH  14   2
ENDBRANCH   8  14
BRANCH  10  15
ATOM     15  C   UNL     1       1.895   2.871  -0.715  0.00  0.00    +0.105 C 
BRANCH  15  19
ATOM      1  O   UNL     1      -0.404   2.084  -0.483  0.00  0.00    -0.420 OA
ATOM      3  N   UNL     1       0.732   2.176   1.442  0.00  0.00    -0.112 NA
ATOM      4  N   UNL     1      -0.543   1.718   1.720  0.00  0.00    -0.107 NA
ATOM     19  C   UNL     1       0.767   2.376   0.146  0.00  0.00    +0.218 A 
ATOM     22  C   UNL     1      -1.170   1.680   0.567  0.00  0.00    +0.248 A 
BRANCH  22  25
ATOM     25  C   UNL     1      -2.512   1.287   0.250  0.00  0.00    +0.039 A 
ATOM     27  C   UNL     1      -3.371   0.857   1.262  0.00  0.00    +0.015 A 
ATOM     28  C   UNL     1      -2.959   1.333  -1.071  0.00  0.00    +0.015 A 
ATOM     30  C   UNL     1      -4.676   0.475   0.953  0.00  0.00    +0.024 A 
ATOM     31  C   UNL     1      -4.264   0.951  -1.379  0.00  0.00    +0.024 A 
ATOM     32  C   UNL     1      -5.123   0.521  -0.367  0.00  0.00    +0.029 A 
BRANCH  32   6
ATOM      6  N   UNL     1      -6.442   0.134  -0.679  0.00  0.00    -0.336 N 
ATOM     33  C   UNL     1      -6.919   0.186  -2.047  0.00  0.00    +0.129 C 
ATOM     34  C   UNL     1      -7.342  -0.315   0.365  0.00  0.00    +0.129 C 
ENDBRANCH  32   6
ENDBRANCH  22  25
ENDBRANCH  15  19
ENDBRANCH  10  15
TORSDOF 9
