MODEL 1
REMARK VINA RESULT:      -7.9      0.000      0.000
REMARK  Name = 7134359
REMARK  9 active torsions:
REMARK  status: ('A' for Active; 'I' for Inactive)
REMARK    1  A    between atoms: N_8  and  C_13
REMARK    2  A    between atoms: N_9  and  C_20
REMARK    3  A    between atoms: C_14  and  C_18
REMARK    4  A    between atoms: C_19  and  C_22
REMARK    5  A    between atoms: C_20  and  C_23
REMARK    6  A    between atoms: C_20  and  C_25
REMARK    7  A    between atoms: C_21  and  C_24
REMARK    8  A    between atoms: C_23  and  C_27
REMARK    9  A    between atoms: C_28  and  C_33
REMARK                            x       y       z     vdW  Elec       q    Type
REMARK                         _______ _______ _______ _____ _____    ______ ____
ROOT
ATOM      3  O   UNL     1      18.263   5.435  20.191  0.00  0.00    -0.267 OA
ATOM      7  N   UNL     1      17.322   7.443  20.879  0.00  0.00    -0.283 N 
ATOM     13  C   UNL     1      15.147   9.143  21.849  0.00  0.00    +0.077 C 
ATOM     14  C   UNL     1      15.955   6.908  20.914  0.00  0.00    +0.164 C 
ATOM     15  C   UNL     1      15.039   7.617  21.911  0.00  0.00    +0.054 C 
ATOM     16  C   UNL     1      16.609   9.567  21.963  0.00  0.00    +0.041 C 
ATOM     17  C   UNL     1      17.462   8.910  20.885  0.00  0.00    +0.111 C 
ATOM     19  C   UNL     1      18.400   6.542  20.716  0.00  0.00    +0.283 C 
ENDROOT
BRANCH  19  22
ATOM      4  O   UNL     1      19.881   7.082  22.532  0.00  0.00    -0.458 OA
ATOM     22  C   UNL     1      19.712   6.964  21.194  0.00  0.00    +0.189 A 
ATOM     26  C   UNL     1      20.858   7.281  20.518  0.00  0.00    +0.054 A 
ATOM     29  C   UNL     1      21.810   7.619  21.510  0.00  0.00    +0.042 A 
ATOM     30  C   UNL     1      21.167   7.483  22.718  0.00  0.00    +0.196 A 
ENDBRANCH  19  22
BRANCH  14  18
ATOM      2  O   UNL     1      15.939   6.341  18.594  0.00  0.00    -0.274 OA
ATOM      9  N   UNL     1      14.367   7.860  19.394  0.00  0.00    -0.302 N 
ATOM     18  C   UNL     1      15.433   6.985  19.510  0.00  0.00    +0.234 C 
ATOM     38  H   UNL     1      13.942   8.232  20.238  0.00  0.00    +0.150 HD
BRANCH   9  20
ATOM     20  C   UNL     1      13.698   8.130  18.142  0.00  0.00    +0.163 C 
BRANCH  20  25
ATOM      6  O   UNL     1      11.611   7.309  17.204  0.00  0.00    -0.274 OA
ATOM     10  N   UNL     1      12.335   6.441  19.204  0.00  0.00    -0.328 N 
ATOM     25  C   UNL     1      12.435   7.282  18.116  0.00  0.00    +0.231 C 
ATOM     39  H   UNL     1      13.035   6.414  19.939  0.00  0.00    +0.145 HD
ATOM     40  H   UNL     1      11.546   5.809  19.304  0.00  0.00    +0.145 HD
ENDBRANCH  20  25
BRANCH  20  23
ATOM     23  C   UNL     1      13.348   9.613  17.980  0.00  0.00    +0.067 C 
BRANCH  23  27
ATOM     27  C   UNL     1      14.283  10.335  17.039  0.00  0.00    -0.045 A 
ATOM     31  C   UNL     1      15.002  11.426  17.502  0.00  0.00    +0.004 A 
ATOM     32  C   UNL     1      14.407   9.893  15.732  0.00  0.00    +0.004 A 
ATOM     34  C   UNL     1      15.867  12.092  16.633  0.00  0.00    +0.000 A 
ATOM     35  C   UNL     1      15.271  10.560  14.864  0.00  0.00    +0.000 A 
ATOM     36  C   UNL     1      16.001  11.659  15.314  0.00  0.00    +0.000 A 
ENDBRANCH  23  27
ENDBRANCH  20  23
ENDBRANCH   9  20
ENDBRANCH  14  18
BRANCH  13   8
ATOM      5  O   UNL     1      13.258  11.205  21.485  0.00  0.00    -0.270 OA
ATOM      8  N   UNL     1      14.353   9.754  22.889  0.00  0.00    -0.308 N 
ATOM     21  C   UNL     1      13.438  10.772  22.625  0.00  0.00    +0.254 C 
ATOM     37  H   UNL     1      14.497   9.452  23.849  0.00  0.00    +0.149 HD
BRANCH  21  24
ATOM      1  S   UNL     1      11.035  10.914  23.927  0.00  0.00    +0.041 S 
ATOM     11  N   UNL     1      12.073  12.292  25.744  0.00  0.00    -0.146 NA
ATOM     12  N   UNL     1      10.922  11.757  25.370  0.00  0.00    -0.110 NA
ATOM     24  C   UNL     1      12.682  11.270  23.783  0.00  0.00    +0.117 A 
ATOM     28  C   UNL     1      13.081  12.013  24.835  0.00  0.00    +0.081 A 
ATOM     33  C   UNL     1      14.433  12.542  25.110  0.00  0.00    +0.069 C 
ENDBRANCH  21  24
ENDBRANCH  13   8
TORSDOF 8
ENDMDL
MODEL 2
REMARK VINA RESULT:      -7.3     28.826     32.230
REMARK  Name = 7134359
REMARK  9 active torsions:
REMARK  status: ('A' for Active; 'I' for Inactive)
REMARK    1  A    between atoms: N_8  and  C_13
REMARK    2  A    between atoms: N_9  and  C_20
REMARK    3  A    between atoms: C_14  and  C_18
REMARK    4  A    between atoms: C_19  and  C_22
REMARK    5  A    between atoms: C_20  and  C_23
REMARK    6  A    between atoms: C_20  and  C_25
REMARK    7  A    between atoms: C_21  and  C_24
REMARK    8  A    between atoms: C_23  and  C_27
REMARK    9  A    between atoms: C_28  and  C_33
REMARK                            x       y       z     vdW  Elec       q    Type
REMARK                         _______ _______ _______ _____ _____    ______ ____
ROOT
ATOM      3  O   UNL     1      -7.073  -8.016   5.221  0.00  0.00    -0.267 OA
ATOM      7  N   UNL     1      -8.921  -7.741   6.601  0.00  0.00    -0.283 N 
ATOM     13  C   UNL     1     -10.340  -6.682   8.930  0.00  0.00    +0.077 C 
ATOM     14  C   UNL     1      -8.160  -7.052   7.652  0.00  0.00    +0.164 C 
ATOM     15  C   UNL     1      -8.999  -6.089   8.491  0.00  0.00    +0.054 C 
ATOM     16  C   UNL     1     -11.086  -7.237   7.720  0.00  0.00    +0.041 C 
ATOM     17  C   UNL     1     -10.245  -8.267   6.975  0.00  0.00    +0.111 C 
ATOM     19  C   UNL     1      -8.298  -7.968   5.351  0.00  0.00    +0.283 C 
ENDROOT
BRANCH  19  22
ATOM      4  O   UNL     1      -9.319  -9.411   3.719  0.00  0.00    -0.458 OA
ATOM     22  C   UNL     1      -9.162  -8.150   4.190  0.00  0.00    +0.189 A 
ATOM     26  C   UNL     1      -9.879  -7.250   3.449  0.00  0.00    +0.054 A 
ATOM     29  C   UNL     1     -10.528  -8.008   2.446  0.00  0.00    +0.042 A 
ATOM     30  C   UNL     1     -10.155  -9.316   2.652  0.00  0.00    +0.196 A 
ENDBRANCH  19  22
BRANCH  14  18
ATOM      2  O   UNL     1      -8.073  -8.581   9.485  0.00  0.00    -0.274 OA
ATOM      9  N   UNL     1      -6.276  -8.488   8.009  0.00  0.00    -0.302 N 
ATOM     18  C   UNL     1      -7.523  -8.124   8.486  0.00  0.00    +0.234 C 
ATOM     38  H   UNL     1      -5.979  -8.146   7.099  0.00  0.00    +0.150 HD
BRANCH   9  20
ATOM     20  C   UNL     1      -5.444  -9.483   8.646  0.00  0.00    +0.163 C 
BRANCH  20  25
ATOM      6  O   UNL     1      -4.485 -11.562   7.829  0.00  0.00    -0.274 OA
ATOM     10  N   UNL     1      -5.678 -10.253   6.367  0.00  0.00    -0.328 N 
ATOM     25  C   UNL     1      -5.126 -10.540   7.598  0.00  0.00    +0.231 C 
ATOM     39  H   UNL     1      -6.226  -9.415   6.196  0.00  0.00    +0.145 HD
ATOM     40  H   UNL     1      -5.555 -10.883   5.581  0.00  0.00    +0.145 HD
ENDBRANCH  20  25
BRANCH  20  23
ATOM     23  C   UNL     1      -4.151  -8.884   9.209  0.00  0.00    +0.067 C 
BRANCH  23  27
ATOM     27  C   UNL     1      -3.756  -9.489  10.535  0.00  0.00    -0.045 A 
ATOM     31  C   UNL     1      -4.745  -9.870  11.428  0.00  0.00    +0.004 A 
ATOM     32  C   UNL     1      -2.413  -9.652  10.835  0.00  0.00    +0.004 A 
ATOM     34  C   UNL     1      -4.381 -10.430  12.653  0.00  0.00    +0.000 A 
ATOM     35  C   UNL     1      -2.049 -10.210  12.060  0.00  0.00    +0.000 A 
ATOM     36  C   UNL     1      -3.033 -10.599  12.969  0.00  0.00    +0.000 A 
ENDBRANCH  23  27
ENDBRANCH  20  23
ENDBRANCH   9  20
ENDBRANCH  14  18
BRANCH  13   8
ATOM      5  O   UNL     1     -12.216  -7.198  10.972  0.00  0.00    -0.270 OA
ATOM      8  N   UNL     1     -11.137  -5.691   9.615  0.00  0.00    -0.308 N 
ATOM     21  C   UNL     1     -12.046  -6.030  10.616  0.00  0.00    +0.254 C 
ATOM     37  H   UNL     1     -11.056  -4.720   9.326  0.00  0.00    +0.149 HD
BRANCH  21  24
ATOM      1  S   UNL     1     -12.389  -4.453  12.827  0.00  0.00    +0.041 S 
ATOM     11  N   UNL     1     -14.165  -3.140  11.645  0.00  0.00    -0.146 NA
ATOM     12  N   UNL     1     -13.523  -3.222  12.799  0.00  0.00    -0.110 NA
ATOM     24  C   UNL     1     -12.759  -4.907  11.240  0.00  0.00    +0.117 A 
ATOM     28  C   UNL     1     -13.727  -4.105  10.751  0.00  0.00    +0.081 A 
ATOM     33  C   UNL     1     -14.349  -4.148   9.412  0.00  0.00    +0.069 C 
ENDBRANCH  21  24
ENDBRANCH  13   8
TORSDOF 8
ENDMDL
MODEL 3
REMARK VINA RESULT:      -7.2      3.516      7.285
REMARK  Name = 7134359
REMARK  9 active torsions:
REMARK  status: ('A' for Active; 'I' for Inactive)
REMARK    1  A    between atoms: N_8  and  C_13
REMARK    2  A    between atoms: N_9  and  C_20
REMARK    3  A    between atoms: C_14  and  C_18
REMARK    4  A    between atoms: C_19  and  C_22
REMARK    5  A    between atoms: C_20  and  C_23
REMARK    6  A    between atoms: C_20  and  C_25
REMARK    7  A    between atoms: C_21  and  C_24
REMARK    8  A    between atoms: C_23  and  C_27
REMARK    9  A    between atoms: C_28  and  C_33
REMARK                            x       y       z     vdW  Elec       q    Type
REMARK                         _______ _______ _______ _____ _____    ______ ____
ROOT
ATOM      3  O   UNL     1      10.727  10.940  22.308  0.00  0.00    -0.267 OA
ATOM      7  N   UNL     1      12.996  11.417  22.432  0.00  0.00    -0.283 N 
ATOM     13  C   UNL     1      15.695  11.705  21.340  0.00  0.00    +0.077 C 
ATOM     14  C   UNL     1      13.275  10.934  21.074  0.00  0.00    +0.164 C 
ATOM     15  C   UNL     1      14.480  11.605  20.415  0.00  0.00    +0.054 C 
ATOM     16  C   UNL     1      15.291  12.351  22.662  0.00  0.00    +0.041 C 
ATOM     17  C   UNL     1      14.153  11.586  23.328  0.00  0.00    +0.111 C 
ATOM     19  C   UNL     1      11.648  11.566  22.836  0.00  0.00    +0.283 C 
ENDROOT
BRANCH  19  22
ATOM      4  O   UNL     1      11.509  13.822  23.659  0.00  0.00    -0.458 OA
ATOM     22  C   UNL     1      11.369  12.500  23.921  0.00  0.00    +0.189 A 
ATOM     26  C   UNL     1      10.974  12.289  25.214  0.00  0.00    +0.054 A 
ATOM     29  C   UNL     1      10.860  13.573  25.797  0.00  0.00    +0.042 A 
ATOM     30  C   UNL     1      11.196  14.472  24.811  0.00  0.00    +0.196 A 
ENDBRANCH  19  22
BRANCH  14  18
ATOM      2  O   UNL     1      13.378   8.861  22.255  0.00  0.00    -0.274 OA
ATOM      9  N   UNL     1      13.685   8.860  19.948  0.00  0.00    -0.302 N 
ATOM     18  C   UNL     1      13.440   9.446  21.177  0.00  0.00    +0.234 C 
ATOM     38  H   UNL     1      13.577   9.418  19.106  0.00  0.00    +0.150 HD
BRANCH   9  20
ATOM     20  C   UNL     1      13.903   7.441  19.778  0.00  0.00    +0.163 C 
BRANCH  20  25
ATOM      6  O   UNL     1      12.123   7.043  18.170  0.00  0.00    -0.274 OA
ATOM     10  N   UNL     1      12.008   6.006  20.217  0.00  0.00    -0.328 N 
ATOM     25  C   UNL     1      12.592   6.842  19.288  0.00  0.00    +0.231 C 
ATOM     39  H   UNL     1      12.419   5.832  21.129  0.00  0.00    +0.145 HD
ATOM     40  H   UNL     1      11.136   5.529  20.012  0.00  0.00    +0.145 HD
ENDBRANCH  20  25
BRANCH  20  23
ATOM     23  C   UNL     1      15.030   7.143  18.783  0.00  0.00    +0.067 C 
BRANCH  23  27
ATOM     27  C   UNL     1      16.338   6.819  19.462  0.00  0.00    -0.045 A 
ATOM     31  C   UNL     1      16.707   7.524  20.597  0.00  0.00    +0.004 A 
ATOM     32  C   UNL     1      17.146   5.821  18.941  0.00  0.00    +0.004 A 
ATOM     34  C   UNL     1      17.915   7.225  21.226  0.00  0.00    +0.000 A 
ATOM     35  C   UNL     1      18.355   5.522  19.569  0.00  0.00    +0.000 A 
ATOM     36  C   UNL     1      18.739   6.223  20.711  0.00  0.00    +0.000 A 
ENDBRANCH  23  27
ENDBRANCH  20  23
ENDBRANCH   9  20
ENDBRANCH  14  18
BRANCH  13   8
ATOM      5  O   UNL     1      18.251  10.705  20.691  0.00  0.00    -0.270 OA
ATOM      8  N   UNL     1      16.758  12.450  20.708  0.00  0.00    -0.308 N 
ATOM     21  C   UNL     1      17.998  11.880  20.421  0.00  0.00    +0.254 C 
ATOM     37  H   UNL     1      16.605  13.433  20.502  0.00  0.00    +0.149 HD
BRANCH  21  24
ATOM      1  S   UNL     1      18.772  13.119  18.106  0.00  0.00    +0.041 S 
ATOM     11  N   UNL     1      20.739  14.135  19.279  0.00  0.00    -0.146 NA
ATOM     12  N   UNL     1      20.146  14.077  18.098  0.00  0.00    -0.110 NA
ATOM     24  C   UNL     1      18.965  12.757  19.747  0.00  0.00    +0.117 A 
ATOM     28  C   UNL     1      20.063  13.379  20.225  0.00  0.00    +0.081 A 
ATOM     33  C   UNL     1      20.602  13.339  21.599  0.00  0.00    +0.069 C 
ENDBRANCH  21  24
ENDBRANCH  13   8
TORSDOF 8
ENDMDL
MODEL 4
REMARK VINA RESULT:      -7.2     12.343     15.287
REMARK  Name = 7134359
REMARK  9 active torsions:
REMARK  status: ('A' for Active; 'I' for Inactive)
REMARK    1  A    between atoms: N_8  and  C_13
REMARK    2  A    between atoms: N_9  and  C_20
REMARK    3  A    between atoms: C_14  and  C_18
REMARK    4  A    between atoms: C_19  and  C_22
REMARK    5  A    between atoms: C_20  and  C_23
REMARK    6  A    between atoms: C_20  and  C_25
REMARK    7  A    between atoms: C_21  and  C_24
REMARK    8  A    between atoms: C_23  and  C_27
REMARK    9  A    between atoms: C_28  and  C_33
REMARK                            x       y       z     vdW  Elec       q    Type
REMARK                         _______ _______ _______ _____ _____    ______ ____
ROOT
ATOM      3  O   UNL     1      15.253   6.319   3.827  0.00  0.00    -0.267 OA
ATOM      7  N   UNL     1      14.504   8.246   4.884  0.00  0.00    -0.283 N 
ATOM     13  C   UNL     1      12.948   9.734   6.864  0.00  0.00    +0.077 C 
ATOM     14  C   UNL     1      13.494   7.538   5.680  0.00  0.00    +0.164 C 
ATOM     15  C   UNL     1      13.159   8.225   7.004  0.00  0.00    +0.054 C 
ATOM     16  C   UNL     1      14.136  10.362   6.141  0.00  0.00    +0.041 C 
ATOM     17  C   UNL     1      14.365   9.709   4.783  0.00  0.00    +0.111 C 
ATOM     19  C   UNL     1      15.458   7.486   4.167  0.00  0.00    +0.283 C 
ENDROOT
BRANCH  19  22
ATOM      4  O   UNL     1      16.906   8.507   2.541  0.00  0.00    -0.458 OA
ATOM     22  C   UNL     1      16.720   8.133   3.829  0.00  0.00    +0.189 A 
ATOM     26  C   UNL     1      17.806   8.448   4.600  0.00  0.00    +0.054 A 
ATOM     29  C   UNL     1      18.733   9.065   3.727  0.00  0.00    +0.042 A 
ATOM     30  C   UNL     1      18.140   9.076   2.486  0.00  0.00    +0.196 A 
ENDBRANCH  19  22
BRANCH  14  18
ATOM      2  O   UNL     1      11.620   8.352   4.443  0.00  0.00    -0.274 OA
ATOM      9  N   UNL     1      12.034   6.063   4.484  0.00  0.00    -0.302 N 
ATOM     18  C   UNL     1      12.288   7.386   4.800  0.00  0.00    +0.234 C 
ATOM     38  H   UNL     1      12.729   5.359   4.717  0.00  0.00    +0.150 HD
BRANCH   9  20
ATOM     20  C   UNL     1      10.917   5.645   3.668  0.00  0.00    +0.163 C 
BRANCH  20  25
ATOM      6  O   UNL     1      10.762   3.989   1.895  0.00  0.00    -0.274 OA
ATOM     10  N   UNL     1      12.838   4.777   2.485  0.00  0.00    -0.328 N 
ATOM     25  C   UNL     1      11.466   4.705   2.604  0.00  0.00    +0.231 C 
ATOM     39  H   UNL     1      13.404   5.390   3.063  0.00  0.00    +0.145 HD
ATOM     40  H   UNL     1      13.332   4.212   1.802  0.00  0.00    +0.145 HD
ENDBRANCH  20  25
BRANCH  20  23
ATOM     23  C   UNL     1       9.829   4.944   4.489  0.00  0.00    +0.067 C 
BRANCH  23  27
ATOM     27  C   UNL     1       9.463   5.703   5.741  0.00  0.00    -0.045 A 
ATOM     31  C   UNL     1       8.677   6.840   5.640  0.00  0.00    +0.004 A 
ATOM     32  C   UNL     1       9.917   5.250   6.969  0.00  0.00    +0.004 A 
ATOM     34  C   UNL     1       8.337   7.542   6.797  0.00  0.00    +0.000 A 
ATOM     35  C   UNL     1       9.578   5.951   8.125  0.00  0.00    +0.000 A 
ATOM     36  C   UNL     1       8.788   7.097   8.040  0.00  0.00    +0.000 A 
ENDBRANCH  23  27
ENDBRANCH  20  23
ENDBRANCH   9  20
ENDBRANCH  14  18
BRANCH  13   8
ATOM      5  O   UNL     1      11.042  11.719   7.483  0.00  0.00    -0.270 OA
ATOM      8  N   UNL     1      12.754  10.345   8.159  0.00  0.00    -0.308 N 
ATOM     21  C   UNL     1      11.786  11.323   8.382  0.00  0.00    +0.254 C 
ATOM     37  H   UNL     1      13.372  10.075   8.919  0.00  0.00    +0.149 HD
BRANCH  21  24
ATOM      1  S   UNL     1      13.040  12.531  10.495  0.00  0.00    +0.041 S 
ATOM     11  N   UNL     1      10.938  12.397  11.850  0.00  0.00    -0.146 NA
ATOM     12  N   UNL     1      12.193  12.812  11.911  0.00  0.00    -0.110 NA
ATOM     24  C   UNL     1      11.690  11.825   9.760  0.00  0.00    +0.117 A 
ATOM     28  C   UNL     1      10.649  11.832  10.618  0.00  0.00    +0.081 A 
ATOM     33  C   UNL     1       9.283  11.318  10.391  0.00  0.00    +0.069 C 
ENDBRANCH  21  24
ENDBRANCH  13   8
TORSDOF 8
ENDMDL
MODEL 5
REMARK VINA RESULT:      -7.1     27.709     30.539
REMARK  Name = 7134359
REMARK  9 active torsions:
REMARK  status: ('A' for Active; 'I' for Inactive)
REMARK    1  A    between atoms: N_8  and  C_13
REMARK    2  A    between atoms: N_9  and  C_20
REMARK    3  A    between atoms: C_14  and  C_18
REMARK    4  A    between atoms: C_19  and  C_22
REMARK    5  A    between atoms: C_20  and  C_23
REMARK    6  A    between atoms: C_20  and  C_25
REMARK    7  A    between atoms: C_21  and  C_24
REMARK    8  A    between atoms: C_23  and  C_27
REMARK    9  A    between atoms: C_28  and  C_33
REMARK                            x       y       z     vdW  Elec       q    Type
REMARK                         _______ _______ _______ _____ _____    ______ ____
ROOT
ATOM      3  O   UNL     1      -3.089 -10.380  10.523  0.00  0.00    -0.267 OA
ATOM      7  N   UNL     1      -5.326 -10.585  11.113  0.00  0.00    -0.283 N 
ATOM     13  C   UNL     1      -7.675 -10.059  12.774  0.00  0.00    +0.077 C 
ATOM     14  C   UNL     1      -5.154  -9.901  12.400  0.00  0.00    +0.164 C 
ATOM     15  C   UNL     1      -6.416  -9.197  12.899  0.00  0.00    +0.054 C 
ATOM     16  C   UNL     1      -7.803 -10.592  11.350  0.00  0.00    +0.041 C 
ATOM     17  C   UNL     1      -6.560 -11.370  10.937  0.00  0.00    +0.111 C 
ATOM     19  C   UNL     1      -4.261 -10.558  10.182  0.00  0.00    +0.283 C 
ENDROOT
BRANCH  19  22
ATOM      4  O   UNL     1      -4.269 -11.945   8.217  0.00  0.00    -0.458 OA
ATOM     22  C   UNL     1      -4.589 -10.753   8.775  0.00  0.00    +0.189 A 
ATOM     26  C   UNL     1      -5.185  -9.923   7.865  0.00  0.00    +0.054 A 
ATOM     29  C   UNL     1      -5.240 -10.655   6.654  0.00  0.00    +0.042 A 
ATOM     30  C   UNL     1      -4.670 -11.878   6.920  0.00  0.00    +0.196 A 
ENDBRANCH  19  22
BRANCH  14  18
ATOM      2  O   UNL     1      -4.883 -12.131  13.209  0.00  0.00    -0.274 OA
ATOM      9  N   UNL     1      -3.973 -10.372  14.430  0.00  0.00    -0.302 N 
ATOM     18  C   UNL     1      -4.660 -10.934  13.369  0.00  0.00    +0.234 C 
ATOM     38  H   UNL     1      -3.728  -9.387  14.391  0.00  0.00    +0.150 HD
BRANCH   9  20
ATOM     20  C   UNL     1      -3.414 -11.151  15.512  0.00  0.00    +0.163 C 
BRANCH  20  25
ATOM      6  O   UNL     1      -1.609 -11.935  14.086  0.00  0.00    -0.274 OA
ATOM     10  N   UNL     1      -1.082 -11.043  16.136  0.00  0.00    -0.328 N 
ATOM     25  C   UNL     1      -1.964 -11.441  15.154  0.00  0.00    +0.231 C 
ATOM     39  H   UNL     1      -1.388 -10.615  17.004  0.00  0.00    +0.145 HD
ATOM     40  H   UNL     1      -0.081 -11.165  16.018  0.00  0.00    +0.145 HD
ENDBRANCH  20  25
BRANCH  20  23
ATOM     23  C   UNL     1      -3.495 -10.418  16.856  0.00  0.00    +0.067 C 
BRANCH  23  27
ATOM     27  C   UNL     1      -4.808 -10.644  17.566  0.00  0.00    -0.045 A 
ATOM     31  C   UNL     1      -4.849 -11.489  18.663  0.00  0.00    +0.004 A 
ATOM     32  C   UNL     1      -5.948 -10.001  17.109  0.00  0.00    +0.004 A 
ATOM     34  C   UNL     1      -6.062 -11.698  19.321  0.00  0.00    +0.000 A 
ATOM     35  C   UNL     1      -7.160 -10.210  17.765  0.00  0.00    +0.000 A 
ATOM     36  C   UNL     1      -7.218 -11.058  18.871  0.00  0.00    +0.000 A 
ENDBRANCH  23  27
ENDBRANCH  20  23
ENDBRANCH   9  20
ENDBRANCH  14  18
BRANCH  13   8
ATOM      5  O   UNL     1      -9.288 -10.528  15.040  0.00  0.00    -0.270 OA
ATOM      8  N   UNL     1      -8.849  -9.304  13.147  0.00  0.00    -0.308 N 
ATOM     21  C   UNL     1      -9.594  -9.603  14.287  0.00  0.00    +0.254 C 
ATOM     37  H   UNL     1      -9.159  -8.556  12.534  0.00  0.00    +0.149 HD
BRANCH  21  24
ATOM      1  S   UNL     1     -12.013  -8.645  13.435  0.00  0.00    +0.041 S 
ATOM     11  N   UNL     1     -12.201  -7.223  15.489  0.00  0.00    -0.146 NA
ATOM     12  N   UNL     1     -12.842  -7.534  14.373  0.00  0.00    -0.110 NA
ATOM     24  C   UNL     1     -10.743  -8.724  14.549  0.00  0.00    +0.117 A 
ATOM     28  C   UNL     1     -10.999  -7.905  15.590  0.00  0.00    +0.081 A 
ATOM     33  C   UNL     1     -10.161  -7.666  16.783  0.00  0.00    +0.069 C 
ENDBRANCH  21  24
ENDBRANCH  13   8
TORSDOF 8
ENDMDL
MODEL 6
REMARK VINA RESULT:      -6.9     29.641     33.319
REMARK  Name = 7134359
REMARK  9 active torsions:
REMARK  status: ('A' for Active; 'I' for Inactive)
REMARK    1  A    between atoms: N_8  and  C_13
REMARK    2  A    between atoms: N_9  and  C_20
REMARK    3  A    between atoms: C_14  and  C_18
REMARK    4  A    between atoms: C_19  and  C_22
REMARK    5  A    between atoms: C_20  and  C_23
REMARK    6  A    between atoms: C_20  and  C_25
REMARK    7  A    between atoms: C_21  and  C_24
REMARK    8  A    between atoms: C_23  and  C_27
REMARK    9  A    between atoms: C_28  and  C_33
REMARK                            x       y       z     vdW  Elec       q    Type
REMARK                         _______ _______ _______ _____ _____    ______ ____
ROOT
ATOM      3  O   UNL     1     -16.636   0.567  26.397  0.00  0.00    -0.267 OA
ATOM      7  N   UNL     1     -17.039   2.183  24.779  0.00  0.00    -0.283 N 
ATOM     13  C   UNL     1     -16.393   4.570  23.216  0.00  0.00    +0.077 C 
ATOM     14  C   UNL     1     -15.894   3.012  25.176  0.00  0.00    +0.164 C 
ATOM     15  C   UNL     1     -15.319   3.856  24.040  0.00  0.00    +0.054 C 
ATOM     16  C   UNL     1     -17.446   3.568  22.752  0.00  0.00    +0.041 C 
ATOM     17  C   UNL     1     -18.060   2.823  23.931  0.00  0.00    +0.111 C 
ATOM     19  C   UNL     1     -17.160   0.884  25.327  0.00  0.00    +0.283 C 
ENDROOT
BRANCH  19  22
ATOM      4  O   UNL     1     -17.287  -0.846  23.661  0.00  0.00    -0.458 OA
ATOM     22  C   UNL     1     -17.941  -0.094  24.579  0.00  0.00    +0.189 A 
ATOM     26  C   UNL     1     -19.271  -0.413  24.627  0.00  0.00    +0.054 A 
ATOM     29  C   UNL     1     -19.455  -1.439  23.670  0.00  0.00    +0.042 A 
ATOM     30  C   UNL     1     -18.220  -1.666  23.109  0.00  0.00    +0.196 A 
ENDBRANCH  19  22
BRANCH  14  18
ATOM      2  O   UNL     1     -17.076   4.835  26.168  0.00  0.00    -0.274 OA
ATOM      9  N   UNL     1     -15.862   3.399  27.540  0.00  0.00    -0.302 N 
ATOM     18  C   UNL     1     -16.357   3.852  26.330  0.00  0.00    +0.234 C 
ATOM     38  H   UNL     1     -15.392   2.499  27.574  0.00  0.00    +0.150 HD
BRANCH   9  20
ATOM     20  C   UNL     1     -16.142   4.047  28.801  0.00  0.00    +0.163 C 
BRANCH  20  25
ATOM      6  O   UNL     1     -17.887   2.364  28.962  0.00  0.00    -0.274 OA
ATOM     10  N   UNL     1     -17.994   4.193  30.347  0.00  0.00    -0.328 N 
ATOM     25  C   UNL     1     -17.426   3.437  29.344  0.00  0.00    +0.231 C 
ATOM     39  H   UNL     1     -17.589   5.068  30.667  0.00  0.00    +0.145 HD
ATOM     40  H   UNL     1     -18.848   3.893  30.806  0.00  0.00    +0.145 HD
ENDBRANCH  20  25
BRANCH  20  23
ATOM     23  C   UNL     1     -15.001   3.871  29.809  0.00  0.00    +0.067 C 
BRANCH  23  27
ATOM     27  C   UNL     1     -14.895   2.458  30.330  0.00  0.00    -0.045 A 
ATOM     31  C   UNL     1     -14.558   1.437  29.456  0.00  0.00    +0.004 A 
ATOM     32  C   UNL     1     -15.135   2.208  31.671  0.00  0.00    +0.004 A 
ATOM     34  C   UNL     1     -14.459   0.131  29.937  0.00  0.00    +0.000 A 
ATOM     35  C   UNL     1     -15.037   0.903  32.152  0.00  0.00    +0.000 A 
ATOM     36  C   UNL     1     -14.699  -0.136  31.285  0.00  0.00    +0.000 A 
ENDBRANCH  23  27
ENDBRANCH  20  23
ENDBRANCH   9  20
ENDBRANCH  14  18
BRANCH  13   8
ATOM      5  O   UNL     1     -15.122   7.087  23.295  0.00  0.00    -0.270 OA
ATOM      8  N   UNL     1     -15.803   5.254  22.089  0.00  0.00    -0.308 N 
ATOM     21  C   UNL     1     -15.192   6.501  22.213  0.00  0.00    +0.254 C 
ATOM     37  H   UNL     1     -15.871   4.824  21.171  0.00  0.00    +0.149 HD
BRANCH  21  24
ATOM      1  S   UNL     1     -15.597   7.863  19.874  0.00  0.00    +0.041 S 
ATOM     11  N   UNL     1     -13.164   7.668  19.309  0.00  0.00    -0.146 NA
ATOM     12  N   UNL     1     -14.305   8.155  18.849  0.00  0.00    -0.110 NA
ATOM     24  C   UNL     1     -14.609   7.053  20.981  0.00  0.00    +0.117 A 
ATOM     28  C   UNL     1     -13.338   7.037  20.531  0.00  0.00    +0.081 A 
ATOM     33  C   UNL     1     -12.154   6.437  21.180  0.00  0.00    +0.069 C 
ENDBRANCH  21  24
ENDBRANCH  13   8
TORSDOF 8
ENDMDL
MODEL 7
REMARK VINA RESULT:      -6.8     27.255     30.429
REMARK  Name = 7134359
REMARK  9 active torsions:
REMARK  status: ('A' for Active; 'I' for Inactive)
REMARK    1  A    between atoms: N_8  and  C_13
REMARK    2  A    between atoms: N_9  and  C_20
REMARK    3  A    between atoms: C_14  and  C_18
REMARK    4  A    between atoms: C_19  and  C_22
REMARK    5  A    between atoms: C_20  and  C_23
REMARK    6  A    between atoms: C_20  and  C_25
REMARK    7  A    between atoms: C_21  and  C_24
REMARK    8  A    between atoms: C_23  and  C_27
REMARK    9  A    between atoms: C_28  and  C_33
REMARK                            x       y       z     vdW  Elec       q    Type
REMARK                         _______ _______ _______ _____ _____    ______ ____
ROOT
ATOM      3  O   UNL     1      -4.026 -14.239  13.849  0.00  0.00    -0.267 OA
ATOM      7  N   UNL     1      -5.301 -13.272  15.532  0.00  0.00    -0.283 N 
ATOM     13  C   UNL     1      -7.345 -11.463  16.585  0.00  0.00    +0.077 C 
ATOM     14  C   UNL     1      -5.885 -12.258  14.646  0.00  0.00    +0.164 C 
ATOM     15  C   UNL     1      -7.265 -11.773  15.088  0.00  0.00    +0.054 C 
ATOM     16  C   UNL     1      -6.836 -12.655  17.391  0.00  0.00    +0.041 C 
ATOM     17  C   UNL     1      -5.418 -13.036  16.982  0.00  0.00    +0.111 C 
ATOM     19  C   UNL     1      -4.561 -14.332  14.957  0.00  0.00    +0.283 C 
ENDROOT
BRANCH  19  22
ATOM      4  O   UNL     1      -3.200 -16.083  15.886  0.00  0.00    -0.458 OA
ATOM     22  C   UNL     1      -4.441 -15.566  15.723  0.00  0.00    +0.189 A 
ATOM     26  C   UNL     1      -5.387 -16.341  16.339  0.00  0.00    +0.054 A 
ATOM     29  C   UNL     1      -4.680 -17.416  16.928  0.00  0.00    +0.042 A 
ATOM     30  C   UNL     1      -3.354 -17.215  16.624  0.00  0.00    +0.196 A 
ENDBRANCH  19  22
BRANCH  14  18
ATOM      2  O   UNL     1      -5.058 -10.077  15.161  0.00  0.00    -0.274 OA
ATOM      9  N   UNL     1      -3.817 -11.447  13.747  0.00  0.00    -0.302 N 
ATOM     18  C   UNL     1      -4.889 -11.138  14.566  0.00  0.00    +0.234 C 
ATOM     38  H   UNL     1      -3.710 -12.402  13.417  0.00  0.00    +0.150 HD
BRANCH   9  20
ATOM     20  C   UNL     1      -2.732 -10.530  13.485  0.00  0.00    +0.163 C 
BRANCH  20  25
ATOM      6  O   UNL     1      -1.081  -9.735  15.082  0.00  0.00    -0.274 OA
ATOM     10  N   UNL     1      -1.698 -11.947  15.149  0.00  0.00    -0.328 N 
ATOM     25  C   UNL     1      -1.741 -10.669  14.632  0.00  0.00    +0.231 C 
ATOM     39  H   UNL     1      -2.267 -12.703  14.781  0.00  0.00    +0.145 HD
ATOM     40  H   UNL     1      -1.089 -12.174  15.928  0.00  0.00    +0.145 HD
ENDBRANCH  20  25
BRANCH  20  23
ATOM     23  C   UNL     1      -2.041 -10.816  12.147  0.00  0.00    +0.067 C 
BRANCH  23  27
ATOM     27  C   UNL     1      -2.936 -10.552  10.960  0.00  0.00    -0.045 A 
ATOM     31  C   UNL     1      -3.084  -9.255  10.496  0.00  0.00    +0.004 A 
ATOM     32  C   UNL     1      -3.593 -11.612  10.356  0.00  0.00    +0.004 A 
ATOM     34  C   UNL     1      -3.910  -9.011   9.399  0.00  0.00    +0.000 A 
ATOM     35  C   UNL     1      -4.420 -11.368   9.259  0.00  0.00    +0.000 A 
ATOM     36  C   UNL     1      -4.578 -10.068   8.781  0.00  0.00    +0.000 A 
ENDBRANCH  23  27
ENDBRANCH  20  23
ENDBRANCH   9  20
ENDBRANCH  14  18
BRANCH  13   8
ATOM      5  O   UNL     1      -8.245  -8.914  17.390  0.00  0.00    -0.270 OA
ATOM      8  N   UNL     1      -8.697 -11.126  16.965  0.00  0.00    -0.308 N 
ATOM     21  C   UNL     1      -9.060  -9.837  17.353  0.00  0.00    +0.254 C 
ATOM     37  H   UNL     1      -9.394 -11.865  16.985  0.00  0.00    +0.149 HD
BRANCH  21  24
ATOM      1  S   UNL     1     -11.543  -9.059  16.501  0.00  0.00    +0.041 S 
ATOM     11  N   UNL     1     -12.502  -9.559  18.760  0.00  0.00    -0.146 NA
ATOM     12  N   UNL     1     -12.838  -9.117  17.560  0.00  0.00    -0.110 NA
ATOM     24  C   UNL     1     -10.480  -9.644  17.680  0.00  0.00    +0.117 A 
ATOM     28  C   UNL     1     -11.151  -9.861  18.830  0.00  0.00    +0.081 A 
ATOM     33  C   UNL     1     -10.615 -10.368  20.109  0.00  0.00    +0.069 C 
ENDBRANCH  21  24
ENDBRANCH  13   8
TORSDOF 8
ENDMDL
MODEL 8
REMARK VINA RESULT:      -6.7     14.180     17.309
REMARK  Name = 7134359
REMARK  9 active torsions:
REMARK  status: ('A' for Active; 'I' for Inactive)
REMARK    1  A    between atoms: N_8  and  C_13
REMARK    2  A    between atoms: N_9  and  C_20
REMARK    3  A    between atoms: C_14  and  C_18
REMARK    4  A    between atoms: C_19  and  C_22
REMARK    5  A    between atoms: C_20  and  C_23
REMARK    6  A    between atoms: C_20  and  C_25
REMARK    7  A    between atoms: C_21  and  C_24
REMARK    8  A    between atoms: C_23  and  C_27
REMARK    9  A    between atoms: C_28  and  C_33
REMARK                            x       y       z     vdW  Elec       q    Type
REMARK                         _______ _______ _______ _____ _____    ______ ____
ROOT
ATOM      3  O   UNL     1      14.891  10.969   6.551  0.00  0.00    -0.267 OA
ATOM      7  N   UNL     1      14.574   8.966   5.421  0.00  0.00    -0.283 N 
ATOM     13  C   UNL     1      13.035   7.039   3.847  0.00  0.00    +0.077 C 
ATOM     14  C   UNL     1      13.136   9.185   5.227  0.00  0.00    +0.164 C 
ATOM     15  C   UNL     1      12.565   8.489   3.992  0.00  0.00    +0.054 C 
ATOM     16  C   UNL     1      14.558   6.975   3.928  0.00  0.00    +0.041 C 
ATOM     17  C   UNL     1      15.070   7.592   5.224  0.00  0.00    +0.111 C 
ATOM     19  C   UNL     1      15.366  10.036   5.901  0.00  0.00    +0.283 C 
ENDROOT
BRANCH  19  22
ATOM      4  O   UNL     1      17.233  10.774   4.577  0.00  0.00    -0.458 OA
ATOM     22  C   UNL     1      16.793  10.007   5.602  0.00  0.00    +0.189 A 
ATOM     26  C   UNL     1      17.822   9.319   6.186  0.00  0.00    +0.054 A 
ATOM     29  C   UNL     1      18.987   9.688   5.471  0.00  0.00    +0.042 A 
ATOM     30  C   UNL     1      18.576  10.574   4.502  0.00  0.00    +0.196 A 
ENDBRANCH  19  22
BRANCH  14  18
ATOM      2  O   UNL     1      12.985   7.926   7.251  0.00  0.00    -0.274 OA
ATOM      9  N   UNL     1      11.222   9.326   6.661  0.00  0.00    -0.302 N 
ATOM     18  C   UNL     1      12.463   8.739   6.492  0.00  0.00    +0.234 C 
ATOM     38  H   UNL     1      10.949  10.087   6.045  0.00  0.00    +0.150 HD
BRANCH   9  20
ATOM     20  C   UNL     1      10.361   9.045   7.788  0.00  0.00    +0.163 C 
BRANCH  20  25
ATOM      6  O   UNL     1      10.150  10.779   9.478  0.00  0.00    -0.274 OA
ATOM     10  N   UNL     1       9.205  11.135   7.415  0.00  0.00    -0.328 N 
ATOM     25  C   UNL     1       9.898  10.385   8.342  0.00  0.00    +0.231 C 
ATOM     39  H   UNL     1       9.023  10.805   6.472  0.00  0.00    +0.145 HD
ATOM     40  H   UNL     1       8.851  12.057   7.650  0.00  0.00    +0.145 HD
ENDBRANCH  20  25
BRANCH  20  23
ATOM     23  C   UNL     1       9.155   8.184   7.396  0.00  0.00    +0.067 C 
BRANCH  23  27
ATOM     27  C   UNL     1       9.358   6.720   7.704  0.00  0.00    -0.045 A 
ATOM     31  C   UNL     1       9.232   6.279   9.012  0.00  0.00    +0.004 A 
ATOM     32  C   UNL     1       9.665   5.845   6.675  0.00  0.00    +0.004 A 
ATOM     34  C   UNL     1       9.419   4.926   9.297  0.00  0.00    +0.000 A 
ATOM     35  C   UNL     1       9.852   4.493   6.960  0.00  0.00    +0.000 A 
ATOM     36  C   UNL     1       9.729   4.033   8.271  0.00  0.00    +0.000 A 
ENDBRANCH  23  27
ENDBRANCH  20  23
ENDBRANCH   9  20
ENDBRANCH  14  18
BRANCH  13   8
ATOM      5  O   UNL     1      11.210   4.904   3.598  0.00  0.00    -0.270 OA
ATOM      8  N   UNL     1      12.563   6.471   2.605  0.00  0.00    -0.308 N 
ATOM     21  C   UNL     1      11.657   5.412   2.569  0.00  0.00    +0.254 C 
ATOM     37  H   UNL     1      12.936   6.836   1.733  0.00  0.00    +0.149 HD
BRANCH  21  24
ATOM      1  S   UNL     1       9.882   5.644   0.499  0.00  0.00    +0.041 S 
ATOM     11  N   UNL     1      11.122   3.894  -0.794  0.00  0.00    -0.146 NA
ATOM     12  N   UNL     1      10.073   4.696  -0.868  0.00  0.00    -0.110 NA
ATOM     24  C   UNL     1      11.248   4.966   1.230  0.00  0.00    +0.117 A 
ATOM     28  C   UNL     1      11.796   4.048   0.407  0.00  0.00    +0.081 A 
ATOM     33  C   UNL     1      12.995   3.219   0.645  0.00  0.00    +0.069 C 
ENDBRANCH  21  24
ENDBRANCH  13   8
TORSDOF 8
ENDMDL
MODEL 9
REMARK VINA RESULT:      -6.6     14.205     17.650
REMARK  Name = 7134359
REMARK  9 active torsions:
REMARK  status: ('A' for Active; 'I' for Inactive)
REMARK    1  A    between atoms: N_8  and  C_13
REMARK    2  A    between atoms: N_9  and  C_20
REMARK    3  A    between atoms: C_14  and  C_18
REMARK    4  A    between atoms: C_19  and  C_22
REMARK    5  A    between atoms: C_20  and  C_23
REMARK    6  A    between atoms: C_20  and  C_25
REMARK    7  A    between atoms: C_21  and  C_24
REMARK    8  A    between atoms: C_23  and  C_27
REMARK    9  A    between atoms: C_28  and  C_33
REMARK                            x       y       z     vdW  Elec       q    Type
REMARK                         _______ _______ _______ _____ _____    ______ ____
ROOT
ATOM      3  O   UNL     1       9.710   5.700   4.788  0.00  0.00    -0.267 OA
ATOM      7  N   UNL     1      11.549   6.805   5.678  0.00  0.00    -0.283 N 
ATOM     13  C   UNL     1      13.604   8.886   5.733  0.00  0.00    +0.077 C 
ATOM     14  C   UNL     1      11.726   7.668   4.503  0.00  0.00    +0.164 C 
ATOM     15  C   UNL     1      12.383   9.012   4.818  0.00  0.00    +0.054 C 
ATOM     16  C   UNL     1      13.240   8.085   6.979  0.00  0.00    +0.041 C 
ATOM     17  C   UNL     1      12.683   6.715   6.613  0.00  0.00    +0.111 C 
ATOM     19  C   UNL     1      10.372   6.026   5.776  0.00  0.00    +0.283 C 
ENDROOT
BRANCH  19  22
ATOM      4  O   UNL     1      10.053   4.288   7.407  0.00  0.00    -0.458 OA
ATOM     22  C   UNL     1       9.951   5.604   7.107  0.00  0.00    +0.189 A 
ATOM     26  C   UNL     1       9.447   6.317   8.161  0.00  0.00    +0.054 A 
ATOM     29  C   UNL     1       9.221   5.373   9.191  0.00  0.00    +0.042 A 
ATOM     30  C   UNL     1       9.605   4.154   8.684  0.00  0.00    +0.196 A 
ENDBRANCH  19  22
BRANCH  14  18
ATOM      2  O   UNL     1      13.742   6.857   3.511  0.00  0.00    -0.274 OA
ATOM      9  N   UNL     1      11.699   6.206   2.606  0.00  0.00    -0.302 N 
ATOM     18  C   UNL     1      12.514   6.871   3.505  0.00  0.00    +0.234 C 
ATOM     38  H   UNL     1      10.698   6.175   2.778  0.00  0.00    +0.150 HD
BRANCH   9  20
ATOM     20  C   UNL     1      12.212   5.387   1.531  0.00  0.00    +0.163 C 
BRANCH  20  25
ATOM      6  O   UNL     1      11.413   3.321   2.531  0.00  0.00    -0.274 OA
ATOM     10  N   UNL     1      13.630   3.475   1.948  0.00  0.00    -0.328 N 
ATOM     25  C   UNL     1      12.349   3.972   2.072  0.00  0.00    +0.231 C 
ATOM     39  H   UNL     1      14.388   4.017   1.546  0.00  0.00    +0.145 HD
ATOM     40  H   UNL     1      13.856   2.535   2.258  0.00  0.00    +0.145 HD
ENDBRANCH  20  25
BRANCH  20  23
ATOM     23  C   UNL     1      11.294   5.401   0.303  0.00  0.00    +0.067 C 
BRANCH  23  27
ATOM     27  C   UNL     1      11.867   4.632  -0.863  0.00  0.00    -0.045 A 
ATOM     31  C   UNL     1      11.138   3.589  -1.412  0.00  0.00    +0.004 A 
ATOM     32  C   UNL     1      13.110   4.984  -1.364  0.00  0.00    +0.004 A 
ATOM     34  C   UNL     1      11.667   2.878  -2.490  0.00  0.00    +0.000 A 
ATOM     35  C   UNL     1      13.639   4.273  -2.441  0.00  0.00    +0.000 A 
ATOM     36  C   UNL     1      12.918   3.221  -3.004  0.00  0.00    +0.000 A 
ENDBRANCH  23  27
ENDBRANCH  20  23
ENDBRANCH   9  20
ENDBRANCH  14  18
BRANCH  13   8
ATOM      5  O   UNL     1      16.310   9.538   6.191  0.00  0.00    -0.270 OA
ATOM      8  N   UNL     1      14.110  10.191   6.091  0.00  0.00    -0.308 N 
ATOM     21  C   UNL     1      15.467  10.430   6.301  0.00  0.00    +0.254 C 
ATOM     37  H   UNL     1      13.445  10.947   6.229  0.00  0.00    +0.149 HD
BRANCH  21  24
ATOM      1  S   UNL     1      15.353  12.484   8.107  0.00  0.00    +0.041 S 
ATOM     11  N   UNL     1      16.668  13.951   6.560  0.00  0.00    -0.146 NA
ATOM     12  N   UNL     1      16.082  13.947   7.746  0.00  0.00    -0.110 NA
ATOM     24  C   UNL     1      15.829  11.817   6.628  0.00  0.00    +0.117 A 
ATOM     28  C   UNL     1      16.524  12.730   5.919  0.00  0.00    +0.081 A 
ATOM     33  C   UNL     1      17.125  12.572   4.579  0.00  0.00    +0.069 C 
ENDBRANCH  21  24
ENDBRANCH  13   8
TORSDOF 8
ENDMDL
MODEL 10
REMARK VINA RESULT:      -6.6     14.435     17.105
REMARK  Name = 7134359
REMARK  9 active torsions:
REMARK  status: ('A' for Active; 'I' for Inactive)
REMARK    1  A    between atoms: N_8  and  C_13
REMARK    2  A    between atoms: N_9  and  C_20
REMARK    3  A    between atoms: C_14  and  C_18
REMARK    4  A    between atoms: C_19  and  C_22
REMARK    5  A    between atoms: C_20  and  C_23
REMARK    6  A    between atoms: C_20  and  C_25
REMARK    7  A    between atoms: C_21  and  C_24
REMARK    8  A    between atoms: C_23  and  C_27
REMARK    9  A    between atoms: C_28  and  C_33
REMARK                            x       y       z     vdW  Elec       q    Type
REMARK                         _______ _______ _______ _____ _____    ______ ____
ROOT
ATOM      3  O   UNL     1      18.648   7.720   3.949  0.00  0.00    -0.267 OA
ATOM      7  N   UNL     1      16.641   8.561   4.761  0.00  0.00    -0.283 N 
ATOM     13  C   UNL     1      13.792   8.422   5.410  0.00  0.00    +0.077 C 
ATOM     14  C   UNL     1      15.852   7.420   4.281  0.00  0.00    +0.164 C 
ATOM     15  C   UNL     1      14.590   7.153   5.101  0.00  0.00    +0.054 C 
ATOM     16  C   UNL     1      14.707   9.474   6.032  0.00  0.00    +0.041 C 
ATOM     17  C   UNL     1      15.896   9.777   5.129  0.00  0.00    +0.111 C 
ATOM     19  C   UNL     1      18.053   8.474   4.721  0.00  0.00    +0.283 C 
ENDROOT
BRANCH  19  22
ATOM      4  O   UNL     1      19.180  10.545   5.195  0.00  0.00    -0.458 OA
ATOM     22  C   UNL     1      18.807   9.321   5.638  0.00  0.00    +0.189 A 
ATOM     26  C   UNL     1      19.231   9.106   6.921  0.00  0.00    +0.054 A 
ATOM     29  C   UNL     1      19.917  10.284   7.303  0.00  0.00    +0.042 A 
ATOM     30  C   UNL     1      19.859  11.129   6.218  0.00  0.00    +0.196 A 
ENDBRANCH  19  22
BRANCH  14  18
ATOM      2  O   UNL     1      14.710   8.531   2.501  0.00  0.00    -0.274 OA
ATOM      9  N   UNL     1      16.277   6.890   1.983  0.00  0.00    -0.302 N 
ATOM     18  C   UNL     1      15.543   7.694   2.838  0.00  0.00    +0.234 C 
ATOM     38  H   UNL     1      17.036   6.332   2.363  0.00  0.00    +0.150 HD
BRANCH   9  20
ATOM     20  C   UNL     1      16.148   6.941   0.545  0.00  0.00    +0.163 C 
BRANCH  20  25
ATOM      6  O   UNL     1      17.616   7.887  -1.146  0.00  0.00    -0.274 OA
ATOM     10  N   UNL     1      18.485   7.424   0.930  0.00  0.00    -0.328 N 
ATOM     25  C   UNL     1      17.472   7.453  -0.005  0.00  0.00    +0.231 C 
ATOM     39  H   UNL     1      18.345   7.084   1.876  0.00  0.00    +0.145 HD
ATOM     40  H   UNL     1      19.417   7.752   0.698  0.00  0.00    +0.145 HD
ENDBRANCH  20  25
BRANCH  20  23
ATOM     23  C   UNL     1      15.815   5.571  -0.057  0.00  0.00    +0.067 C 
BRANCH  23  27
ATOM     27  C   UNL     1      14.533   4.990   0.490  0.00  0.00    -0.045 A 
ATOM     31  C   UNL     1      13.355   5.709   0.366  0.00  0.00    +0.004 A 
ATOM     32  C   UNL     1      14.558   3.748   1.104  0.00  0.00    +0.004 A 
ATOM     34  C   UNL     1      12.170   5.172   0.870  0.00  0.00    +0.000 A 
ATOM     35  C   UNL     1      13.374   3.211   1.609  0.00  0.00    +0.000 A 
ATOM     36  C   UNL     1      12.180   3.922   1.492  0.00  0.00    +0.000 A 
ENDBRANCH  23  27
ENDBRANCH  20  23
ENDBRANCH   9  20
ENDBRANCH  14  18
BRANCH  13   8
ATOM      5  O   UNL     1      11.197   7.683   4.588  0.00  0.00    -0.270 OA
ATOM      8  N   UNL     1      12.681   8.126   6.285  0.00  0.00    -0.308 N 
ATOM     21  C   UNL     1      11.426   7.768   5.796  0.00  0.00    +0.254 C 
ATOM     37  H   UNL     1      12.815   8.221   7.287  0.00  0.00    +0.149 HD
BRANCH  21  24
ATOM      1  S   UNL     1      10.390   5.951   7.563  0.00  0.00    +0.041 S 
ATOM     11  N   UNL     1       8.633   7.594   8.261  0.00  0.00    -0.146 NA
ATOM     12  N   UNL     1       9.061   6.364   8.493  0.00  0.00    -0.110 NA
ATOM     24  C   UNL     1      10.406   7.466   6.811  0.00  0.00    +0.117 A 
ATOM     28  C   UNL     1       9.403   8.226   7.297  0.00  0.00    +0.081 A 
ATOM     33  C   UNL     1       9.052   9.611   6.922  0.00  0.00    +0.069 C 
ENDBRANCH  21  24
ENDBRANCH  13   8
TORSDOF 8
ENDMDL
