MODEL 1
REMARK VINA RESULT:      -6.4      0.000      0.000
REMARK  Name = 11912401
REMARK  10 active torsions:
REMARK  status: ('A' for Active; 'I' for Inactive)
REMARK    1  A    between atoms: N_7  and  C_20
REMARK    2  A    between atoms: N_7  and  C_21
REMARK    3  A    between atoms: N_8  and  C_22
REMARK    4  A    between atoms: C_10  and  C_16
REMARK    5  A    between atoms: C_11  and  C_15
REMARK    6  A    between atoms: C_15  and  C_17
REMARK    7  A    between atoms: C_16  and  C_18
REMARK    8  A    between atoms: C_20  and  C_23
REMARK    9  A    between atoms: C_23  and  C_28
REMARK   10  A    between atoms: C_26  and  C_30
REMARK                            x       y       z     vdW  Elec       q    Type
REMARK                         _______ _______ _______ _____ _____    ______ ____
ROOT
ATOM      5  O   UNL     1      -2.243 -10.969  15.651  0.00  0.00    -0.252 OA
ATOM      6  N   UNL     1      -4.355 -11.722  16.213  0.00  0.00    -0.285 N 
ATOM      8  N   UNL     1      -3.718 -11.523  13.950  0.00  0.00    -0.269 N 
ATOM     10  C   UNL     1      -6.567 -11.124  17.979  0.00  0.00    +0.004 C 
ATOM     11  C   UNL     1      -6.790 -11.327  16.458  0.00  0.00    +0.010 C 
ATOM     12  C   UNL     1      -5.131 -10.665  18.291  0.00  0.00    +0.023 C 
ATOM     13  C   UNL     1      -5.692 -12.245  15.895  0.00  0.00    +0.113 C 
ATOM     14  C   UNL     1      -4.096 -11.585  17.646  0.00  0.00    +0.109 C 
ATOM     19  C   UNL     1      -3.347 -11.382  15.286  0.00  0.00    +0.306 C 
ATOM     31  H   UNL     1      -4.410 -12.224  13.713  0.00  0.00    +0.156 HD
ENDROOT
BRANCH   8  22
ATOM     22  C   UNL     1      -3.249 -10.775  12.843  0.00  0.00    +0.035 A 
ATOM     24  C   UNL     1      -4.155 -10.240  11.927  0.00  0.00    +0.035 A 
ATOM     25  C   UNL     1      -1.880 -10.573  12.668  0.00  0.00    +0.023 A 
ATOM     26  C   UNL     1      -3.692  -9.503  10.837  0.00  0.00    +0.057 A 
ATOM     27  C   UNL     1      -1.416  -9.835  11.578  0.00  0.00    +0.002 A 
ATOM     29  C   UNL     1      -2.322  -9.300  10.663  0.00  0.00    +0.012 A 
BRANCH  26  30
ATOM      1  F   UNL     1      -5.119  -7.692  10.201  0.00  0.00    -0.166 F 
ATOM      2  F   UNL     1      -4.144  -8.784   8.601  0.00  0.00    -0.166 F 
ATOM      3  F   UNL     1      -5.774  -9.706   9.707  0.00  0.00    -0.166 F 
ATOM     30  C   UNL     1      -4.659  -8.931   9.857  0.00  0.00    +0.417 C 
ENDBRANCH  26  30
ENDBRANCH   8  22
BRANCH  11  15
ATOM     15  C   UNL     1      -6.859 -10.021  15.657  0.00  0.00    +0.002 C 
ATOM     17  C   UNL     1      -7.169 -10.290  14.199  0.00  0.00    +0.004 C 
ENDBRANCH  11  15
BRANCH  10  16
ATOM     16  C   UNL     1      -7.585 -10.177  18.614  0.00  0.00    +0.100 C 
BRANCH  16  18
ATOM      4  O   UNL     1      -9.295 -11.836  18.883  0.00  0.00    -0.276 OA
ATOM      7  N   UNL     1      -9.941  -9.811  17.953  0.00  0.00    -0.304 N 
ATOM     18  C   UNL     1      -9.008 -10.697  18.503  0.00  0.00    +0.216 C 
ATOM     21  C   UNL     1     -11.345 -10.163  17.782  0.00  0.00    +0.132 C 
BRANCH   7  20
ATOM     20  C   UNL     1      -9.578  -8.468  17.508  0.00  0.00    +0.122 C 
BRANCH  20  23
ATOM     23  C   UNL     1     -10.026  -8.185  16.080  0.00  0.00    +0.137 C 
BRANCH  23  28
ATOM      9  N   UNL     1     -11.148  -5.817  15.853  0.00  0.00    -0.197 NA
ATOM     28  C   UNL     1     -10.653  -6.862  15.954  0.00  0.00    +0.064 C 
ENDBRANCH  23  28
ENDBRANCH  20  23
ENDBRANCH   7  20
ENDBRANCH  16  18
ENDBRANCH  10  16
TORSDOF 8
ENDMDL
MODEL 2
REMARK VINA RESULT:      -6.3      1.352      1.765
REMARK  Name = 11912401
REMARK  10 active torsions:
REMARK  status: ('A' for Active; 'I' for Inactive)
REMARK    1  A    between atoms: N_7  and  C_20
REMARK    2  A    between atoms: N_7  and  C_21
REMARK    3  A    between atoms: N_8  and  C_22
REMARK    4  A    between atoms: C_10  and  C_16
REMARK    5  A    between atoms: C_11  and  C_15
REMARK    6  A    between atoms: C_15  and  C_17
REMARK    7  A    between atoms: C_16  and  C_18
REMARK    8  A    between atoms: C_20  and  C_23
REMARK    9  A    between atoms: C_23  and  C_28
REMARK   10  A    between atoms: C_26  and  C_30
REMARK                            x       y       z     vdW  Elec       q    Type
REMARK                         _______ _______ _______ _____ _____    ______ ____
ROOT
ATOM      5  O   UNL     1      -2.421 -10.559  15.997  0.00  0.00    -0.252 OA
ATOM      6  N   UNL     1      -4.163 -11.864  16.777  0.00  0.00    -0.285 N 
ATOM      8  N   UNL     1      -3.694 -11.750  14.467  0.00  0.00    -0.269 N 
ATOM     10  C   UNL     1      -6.395 -11.782  18.617  0.00  0.00    +0.004 C 
ATOM     11  C   UNL     1      -6.588 -12.227  17.144  0.00  0.00    +0.010 C 
ATOM     12  C   UNL     1      -5.172 -10.861  18.781  0.00  0.00    +0.023 C 
ATOM     13  C   UNL     1      -5.272 -12.815  16.607  0.00  0.00    +0.113 C 
ATOM     14  C   UNL     1      -3.917 -11.481  18.167  0.00  0.00    +0.109 C 
ATOM     19  C   UNL     1      -3.346 -11.339  15.753  0.00  0.00    +0.306 C 
ATOM     31  H   UNL     1      -4.132 -12.656  14.353  0.00  0.00    +0.156 HD
ENDROOT
BRANCH   8  22
ATOM     22  C   UNL     1      -3.523 -11.032  13.259  0.00  0.00    +0.035 A 
ATOM     24  C   UNL     1      -4.600 -10.350  12.693  0.00  0.00    +0.035 A 
ATOM     25  C   UNL     1      -2.276 -11.005  12.634  0.00  0.00    +0.023 A 
ATOM     26  C   UNL     1      -4.431  -9.643  11.502  0.00  0.00    +0.057 A 
ATOM     27  C   UNL     1      -2.106 -10.297  11.444  0.00  0.00    +0.002 A 
ATOM     29  C   UNL     1      -3.184  -9.616  10.878  0.00  0.00    +0.012 A 
BRANCH  26  30
ATOM      1  F   UNL     1      -5.222  -7.790  10.213  0.00  0.00    -0.166 F 
ATOM      2  F   UNL     1      -6.293  -9.664  10.001  0.00  0.00    -0.166 F 
ATOM      3  F   UNL     1      -6.491  -8.502  11.828  0.00  0.00    -0.166 F 
ATOM     30  C   UNL     1      -5.583  -8.916  10.897  0.00  0.00    +0.417 C 
ENDBRANCH  26  30
ENDBRANCH   8  22
BRANCH  11  15
ATOM     15  C   UNL     1      -7.095 -11.116  16.216  0.00  0.00    +0.002 C 
ATOM     17  C   UNL     1      -7.362 -11.646  14.823  0.00  0.00    +0.004 C 
ENDBRANCH  11  15
BRANCH  10  16
ATOM     16  C   UNL     1      -7.642 -11.133  19.216  0.00  0.00    +0.100 C 
BRANCH  16  18
ATOM      4  O   UNL     1      -8.295 -13.331  19.916  0.00  0.00    -0.276 OA
ATOM      7  N   UNL     1      -9.928 -11.685  19.986  0.00  0.00    -0.304 N 
ATOM     18  C   UNL     1      -8.636 -12.159  19.736  0.00  0.00    +0.216 C 
ATOM     21  C   UNL     1     -10.991 -12.545  20.488  0.00  0.00    +0.132 C 
BRANCH   7  20
ATOM     20  C   UNL     1     -10.308 -10.292  19.764  0.00  0.00    +0.122 C 
BRANCH  20  23
ATOM     23  C   UNL     1     -10.865 -10.056  18.366  0.00  0.00    +0.137 C 
BRANCH  23  28
ATOM      9  N   UNL     1      -9.691  -8.025  17.174  0.00  0.00    -0.197 NA
ATOM     28  C   UNL     1     -10.209  -8.921  17.699  0.00  0.00    +0.064 C 
ENDBRANCH  23  28
ENDBRANCH  20  23
ENDBRANCH   7  20
ENDBRANCH  16  18
ENDBRANCH  10  16
TORSDOF 8
ENDMDL
MODEL 3
REMARK VINA RESULT:      -5.9     24.359     27.424
REMARK  Name = 11912401
REMARK  10 active torsions:
REMARK  status: ('A' for Active; 'I' for Inactive)
REMARK    1  A    between atoms: N_7  and  C_20
REMARK    2  A    between atoms: N_7  and  C_21
REMARK    3  A    between atoms: N_8  and  C_22
REMARK    4  A    between atoms: C_10  and  C_16
REMARK    5  A    between atoms: C_11  and  C_15
REMARK    6  A    between atoms: C_15  and  C_17
REMARK    7  A    between atoms: C_16  and  C_18
REMARK    8  A    between atoms: C_20  and  C_23
REMARK    9  A    between atoms: C_23  and  C_28
REMARK   10  A    between atoms: C_26  and  C_30
REMARK                            x       y       z     vdW  Elec       q    Type
REMARK                         _______ _______ _______ _____ _____    ______ ____
ROOT
ATOM      5  O   UNL     1       8.314   7.555   8.072  0.00  0.00    -0.252 OA
ATOM      6  N   UNL     1      10.124   6.696   6.918  0.00  0.00    -0.285 N 
ATOM      8  N   UNL     1      10.233   8.844   7.888  0.00  0.00    -0.269 N 
ATOM     10  C   UNL     1      10.783   5.308   4.466  0.00  0.00    +0.004 C 
ATOM     11  C   UNL     1      11.534   6.601   4.881  0.00  0.00    +0.010 C 
ATOM     12  C   UNL     1       9.376   5.240   5.085  0.00  0.00    +0.023 C 
ATOM     13  C   UNL     1      11.503   6.745   6.412  0.00  0.00    +0.113 C 
ATOM     14  C   UNL     1       9.416   5.456   6.598  0.00  0.00    +0.109 C 
ATOM     19  C   UNL     1       9.473   7.696   7.672  0.00  0.00    +0.306 C 
ATOM     31  H   UNL     1      11.241   8.754   7.928  0.00  0.00    +0.156 HD
ENDROOT
BRANCH   8  22
ATOM     22  C   UNL     1       9.762  10.170   8.049  0.00  0.00    +0.035 A 
ATOM     24  C   UNL     1       9.552  10.685   9.329  0.00  0.00    +0.035 A 
ATOM     25  C   UNL     1       9.510  10.962   6.930  0.00  0.00    +0.023 A 
ATOM     26  C   UNL     1       9.088  11.991   9.488  0.00  0.00    +0.057 A 
ATOM     27  C   UNL     1       9.046  12.269   7.088  0.00  0.00    +0.002 A 
ATOM     29  C   UNL     1       8.836  12.783   8.367  0.00  0.00    +0.012 A 
BRANCH  26  30
ATOM      1  F   UNL     1       7.543  12.672  11.182  0.00  0.00    -0.166 F 
ATOM      2  F   UNL     1       9.402  11.775  11.849  0.00  0.00    -0.166 F 
ATOM      3  F   UNL     1       9.404  13.785  11.016  0.00  0.00    -0.166 F 
ATOM     30  C   UNL     1       8.863  12.542  10.854  0.00  0.00    +0.417 C 
ENDBRANCH  26  30
ENDBRANCH   8  22
BRANCH  11  15
ATOM     15  C   UNL     1      11.000   7.874   4.213  0.00  0.00    +0.002 C 
ATOM     17  C   UNL     1      11.831   9.081   4.597  0.00  0.00    +0.004 C 
ENDBRANCH  11  15
BRANCH  10  16
ATOM     16  C   UNL     1      10.717   5.112   2.952  0.00  0.00    +0.100 C 
BRANCH  16  18
ATOM      4  O   UNL     1      11.400   2.840   2.614  0.00  0.00    -0.276 OA
ATOM      7  N   UNL     1      12.842   4.489   1.850  0.00  0.00    -0.304 N 
ATOM     18  C   UNL     1      11.670   4.035   2.464  0.00  0.00    +0.216 C 
ATOM     21  C   UNL     1      13.854   3.578   1.329  0.00  0.00    +0.132 C 
BRANCH   7  20
ATOM     20  C   UNL     1      13.140   5.909   1.685  0.00  0.00    +0.122 C 
BRANCH  20  23
ATOM     23  C   UNL     1      14.615   6.225   1.902  0.00  0.00    +0.137 C 
BRANCH  23  28
ATOM      9  N   UNL     1      15.042   7.351   4.240  0.00  0.00    -0.197 NA
ATOM     28  C   UNL     1      14.855   6.854   3.208  0.00  0.00    +0.064 C 
ENDBRANCH  23  28
ENDBRANCH  20  23
ENDBRANCH   7  20
ENDBRANCH  16  18
ENDBRANCH  10  16
TORSDOF 8
ENDMDL
MODEL 4
REMARK VINA RESULT:      -5.9     25.039     27.202
REMARK  Name = 11912401
REMARK  10 active torsions:
REMARK  status: ('A' for Active; 'I' for Inactive)
REMARK    1  A    between atoms: N_7  and  C_20
REMARK    2  A    between atoms: N_7  and  C_21
REMARK    3  A    between atoms: N_8  and  C_22
REMARK    4  A    between atoms: C_10  and  C_16
REMARK    5  A    between atoms: C_11  and  C_15
REMARK    6  A    between atoms: C_15  and  C_17
REMARK    7  A    between atoms: C_16  and  C_18
REMARK    8  A    between atoms: C_20  and  C_23
REMARK    9  A    between atoms: C_23  and  C_28
REMARK   10  A    between atoms: C_26  and  C_30
REMARK                            x       y       z     vdW  Elec       q    Type
REMARK                         _______ _______ _______ _____ _____    ______ ____
ROOT
ATOM      5  O   UNL     1       8.008   7.016   5.399  0.00  0.00    -0.252 OA
ATOM      6  N   UNL     1      10.033   6.788   4.308  0.00  0.00    -0.285 N 
ATOM      8  N   UNL     1       8.676   8.680   3.928  0.00  0.00    -0.269 N 
ATOM     10  C   UNL     1      11.613   4.838   2.867  0.00  0.00    +0.004 C 
ATOM     11  C   UNL     1      11.335   6.242   2.270  0.00  0.00    +0.010 C 
ATOM     12  C   UNL     1      10.527   4.420   3.875  0.00  0.00    +0.023 C 
ATOM     13  C   UNL     1      11.101   7.249   3.408  0.00  0.00    +0.113 C 
ATOM     14  C   UNL     1      10.303   5.495   4.938  0.00  0.00    +0.109 C 
ATOM     19  C   UNL     1       8.839   7.476   4.611  0.00  0.00    +0.306 C 
ATOM     31  H   UNL     1       9.504   9.197   3.657  0.00  0.00    +0.156 HD
ENDROOT
BRANCH   8  22
ATOM     22  C   UNL     1       7.459   9.290   3.537  0.00  0.00    +0.035 A 
ATOM     24  C   UNL     1       7.003   9.160   2.225  0.00  0.00    +0.035 A 
ATOM     25  C   UNL     1       6.715  10.018   4.464  0.00  0.00    +0.023 A 
ATOM     26  C   UNL     1       5.804   9.760   1.840  0.00  0.00    +0.057 A 
ATOM     27  C   UNL     1       5.515  10.619   4.080  0.00  0.00    +0.002 A 
ATOM     29  C   UNL     1       5.060  10.489   2.768  0.00  0.00    +0.012 A 
BRANCH  26  30
ATOM      1  F   UNL     1       6.281   9.212  -0.439  0.00  0.00    -0.166 F 
ATOM      2  F   UNL     1       4.301   8.721   0.297  0.00  0.00    -0.166 F 
ATOM      3  F   UNL     1       4.839  10.796  -0.070  0.00  0.00    -0.166 F 
ATOM     30  C   UNL     1       5.318   9.623   0.438  0.00  0.00    +0.417 C 
ENDBRANCH  26  30
ENDBRANCH   8  22
BRANCH  11  15
ATOM     15  C   UNL     1      10.167   6.278   1.276  0.00  0.00    +0.002 C 
ATOM     17  C   UNL     1      10.010   7.656   0.668  0.00  0.00    +0.004 C 
ENDBRANCH  11  15
BRANCH  10  16
ATOM     16  C   UNL     1      11.804   3.759   1.801  0.00  0.00    +0.100 C 
BRANCH  16  18
ATOM      4  O   UNL     1      14.185   4.023   1.731  0.00  0.00    -0.276 OA
ATOM      7  N   UNL     1      13.097   3.812  -0.307  0.00  0.00    -0.304 N 
ATOM     18  C   UNL     1      13.141   3.878   1.090  0.00  0.00    +0.216 C 
ATOM     21  C   UNL     1      14.295   3.908  -1.131  0.00  0.00    +0.132 C 
BRANCH   7  20
ATOM     20  C   UNL     1      11.847   3.641  -1.044  0.00  0.00    +0.122 C 
BRANCH  20  23
ATOM     23  C   UNL     1      12.010   2.749  -2.268  0.00  0.00    +0.137 C 
BRANCH  23  28
ATOM      9  N   UNL     1       9.719   1.702  -3.028  0.00  0.00    -0.197 NA
ATOM     28  C   UNL     1      10.730   2.163  -2.694  0.00  0.00    +0.064 C 
ENDBRANCH  23  28
ENDBRANCH  20  23
ENDBRANCH   7  20
ENDBRANCH  16  18
ENDBRANCH  10  16
TORSDOF 8
ENDMDL
MODEL 5
REMARK VINA RESULT:      -5.9      3.996      7.079
REMARK  Name = 11912401
REMARK  10 active torsions:
REMARK  status: ('A' for Active; 'I' for Inactive)
REMARK    1  A    between atoms: N_7  and  C_20
REMARK    2  A    between atoms: N_7  and  C_21
REMARK    3  A    between atoms: N_8  and  C_22
REMARK    4  A    between atoms: C_10  and  C_16
REMARK    5  A    between atoms: C_11  and  C_15
REMARK    6  A    between atoms: C_15  and  C_17
REMARK    7  A    between atoms: C_16  and  C_18
REMARK    8  A    between atoms: C_20  and  C_23
REMARK    9  A    between atoms: C_23  and  C_28
REMARK   10  A    between atoms: C_26  and  C_30
REMARK                            x       y       z     vdW  Elec       q    Type
REMARK                         _______ _______ _______ _____ _____    ______ ____
ROOT
ATOM      5  O   UNL     1      -8.931  -9.599   9.907  0.00  0.00    -0.252 OA
ATOM      6  N   UNL     1      -7.033  -9.093  11.126  0.00  0.00    -0.285 N 
ATOM      8  N   UNL     1      -7.331  -8.214   8.957  0.00  0.00    -0.269 N 
ATOM     10  C   UNL     1      -5.014 -10.344  12.779  0.00  0.00    +0.004 C 
ATOM     11  C   UNL     1      -4.621  -9.422  11.596  0.00  0.00    +0.010 C 
ATOM     12  C   UNL     1      -6.403 -10.975  12.577  0.00  0.00    +0.023 C 
ATOM     13  C   UNL     1      -5.748  -8.409  11.336  0.00  0.00    +0.113 C 
ATOM     14  C   UNL     1      -7.459  -9.917  12.258  0.00  0.00    +0.109 C 
ATOM     19  C   UNL     1      -7.854  -9.001   9.982  0.00  0.00    +0.306 C 
ATOM     31  H   UNL     1      -6.715  -7.449   9.203  0.00  0.00    +0.156 HD
ENDROOT
BRANCH   8  22
ATOM     22  C   UNL     1      -7.544  -8.363   7.565  0.00  0.00    +0.035 A 
ATOM     24  C   UNL     1      -7.009  -9.460   6.889  0.00  0.00    +0.035 A 
ATOM     25  C   UNL     1      -8.291  -7.413   6.869  0.00  0.00    +0.023 A 
ATOM     26  C   UNL     1      -7.219  -9.606   5.518  0.00  0.00    +0.057 A 
ATOM     27  C   UNL     1      -8.503  -7.559   5.497  0.00  0.00    +0.002 A 
ATOM     29  C   UNL     1      -7.967  -8.655   4.822  0.00  0.00    +0.012 A 
BRANCH  26  30
ATOM      1  F   UNL     1      -6.803 -10.715   3.440  0.00  0.00    -0.166 F 
ATOM      2  F   UNL     1      -5.303 -10.937   4.992  0.00  0.00    -0.166 F 
ATOM      3  F   UNL     1      -7.215 -11.958   5.176  0.00  0.00    -0.166 F 
ATOM     30  C   UNL     1      -6.646 -10.777   4.796  0.00  0.00    +0.417 C 
ENDBRANCH  26  30
ENDBRANCH   8  22
BRANCH  11  15
ATOM     15  C   UNL     1      -4.271 -10.175  10.306  0.00  0.00    +0.002 C 
ATOM     17  C   UNL     1      -3.957  -9.214   9.180  0.00  0.00    +0.004 C 
ENDBRANCH  11  15
BRANCH  10  16
ATOM     16  C   UNL     1      -3.970 -11.421  13.074  0.00  0.00    +0.100 C 
BRANCH  16  18
ATOM      4  O   UNL     1      -1.830 -10.347  12.960  0.00  0.00    -0.276 OA
ATOM      7  N   UNL     1      -2.597 -10.926  15.072  0.00  0.00    -0.304 N 
ATOM     18  C   UNL     1      -2.700 -10.847  13.679  0.00  0.00    +0.216 C 
ATOM     21  C   UNL     1      -1.441 -10.419  15.800  0.00  0.00    +0.132 C 
BRANCH   7  20
ATOM     20  C   UNL     1      -3.641 -11.524  15.901  0.00  0.00    +0.122 C 
BRANCH  20  23
ATOM     23  C   UNL     1      -4.222 -10.538  16.907  0.00  0.00    +0.137 C 
BRANCH  23  28
ATOM      9  N   UNL     1      -6.524  -9.555  16.099  0.00  0.00    -0.197 NA
ATOM     28  C   UNL     1      -5.509  -9.989  16.456  0.00  0.00    +0.064 C 
ENDBRANCH  23  28
ENDBRANCH  20  23
ENDBRANCH   7  20
ENDBRANCH  16  18
ENDBRANCH  10  16
TORSDOF 8
ENDMDL
MODEL 6
REMARK VINA RESULT:      -5.8      4.889      8.867
REMARK  Name = 11912401
REMARK  10 active torsions:
REMARK  status: ('A' for Active; 'I' for Inactive)
REMARK    1  A    between atoms: N_7  and  C_20
REMARK    2  A    between atoms: N_7  and  C_21
REMARK    3  A    between atoms: N_8  and  C_22
REMARK    4  A    between atoms: C_10  and  C_16
REMARK    5  A    between atoms: C_11  and  C_15
REMARK    6  A    between atoms: C_15  and  C_17
REMARK    7  A    between atoms: C_16  and  C_18
REMARK    8  A    between atoms: C_20  and  C_23
REMARK    9  A    between atoms: C_23  and  C_28
REMARK   10  A    between atoms: C_26  and  C_30
REMARK                            x       y       z     vdW  Elec       q    Type
REMARK                         _______ _______ _______ _____ _____    ______ ____
ROOT
ATOM      5  O   UNL     1      -6.861 -11.457  20.076  0.00  0.00    -0.252 OA
ATOM      6  N   UNL     1      -6.229 -10.317  18.167  0.00  0.00    -0.285 N 
ATOM      8  N   UNL     1      -8.493 -10.376  18.830  0.00  0.00    -0.269 N 
ATOM     10  C   UNL     1      -4.576 -10.608  15.809  0.00  0.00    +0.004 C 
ATOM     11  C   UNL     1      -6.061 -10.174  15.697  0.00  0.00    +0.010 C 
ATOM     12  C   UNL     1      -4.312 -11.417  17.092  0.00  0.00    +0.023 C 
ATOM     13  C   UNL     1      -6.491  -9.469  16.995  0.00  0.00    +0.113 C 
ATOM     14  C   UNL     1      -4.823 -10.684  18.333  0.00  0.00    +0.109 C 
ATOM     19  C   UNL     1      -7.182 -10.761  19.108  0.00  0.00    +0.306 C 
ATOM     31  H   UNL     1      -8.644  -9.512  18.323  0.00  0.00    +0.156 HD
ENDROOT
BRANCH   8  22
ATOM     22  C   UNL     1      -9.682 -11.070  19.162  0.00  0.00    +0.035 A 
ATOM     24  C   UNL     1     -10.724 -10.401  19.804  0.00  0.00    +0.035 A 
ATOM     25  C   UNL     1      -9.812 -12.422  18.847  0.00  0.00    +0.023 A 
ATOM     26  C   UNL     1     -11.895 -11.084  20.132  0.00  0.00    +0.057 A 
ATOM     27  C   UNL     1     -10.984 -13.106  19.173  0.00  0.00    +0.002 A 
ATOM     29  C   UNL     1     -12.025 -12.437  19.815  0.00  0.00    +0.012 A 
BRANCH  26  30
ATOM      1  F   UNL     1     -14.114 -10.195  20.035  0.00  0.00    -0.166 F 
ATOM      2  F   UNL     1     -13.463 -11.011  21.937  0.00  0.00    -0.166 F 
ATOM      3  F   UNL     1     -12.653  -9.118  21.233  0.00  0.00    -0.166 F 
ATOM     30  C   UNL     1     -13.009 -10.370  20.818  0.00  0.00    +0.417 C 
ENDBRANCH  26  30
ENDBRANCH   8  22
BRANCH  11  15
ATOM     15  C   UNL     1      -7.024 -11.321  15.368  0.00  0.00    +0.002 C 
ATOM     17  C   UNL     1      -8.454 -10.829  15.291  0.00  0.00    +0.004 C 
ENDBRANCH  11  15
BRANCH  10  16
ATOM     16  C   UNL     1      -4.079 -11.369  14.580  0.00  0.00    +0.100 C 
BRANCH  16  18
ATOM      4  O   UNL     1      -1.830 -10.556  14.742  0.00  0.00    -0.276 OA
ATOM      7  N   UNL     1      -2.807 -10.515  12.638  0.00  0.00    -0.304 N 
ATOM     18  C   UNL     1      -2.800 -10.778  14.012  0.00  0.00    +0.216 C 
ATOM     21  C   UNL     1      -1.655  -9.950  11.946  0.00  0.00    +0.132 C 
BRANCH   7  20
ATOM     20  C   UNL     1      -3.968 -10.786  11.795  0.00  0.00    +0.122 C 
BRANCH  20  23
ATOM     23  C   UNL     1      -4.621  -9.512  11.275  0.00  0.00    +0.137 C 
BRANCH  23  28
ATOM      9  N   UNL     1      -6.982  -9.104  12.361  0.00  0.00    -0.197 NA
ATOM     28  C   UNL     1      -5.941  -9.285  11.882  0.00  0.00    +0.064 C 
ENDBRANCH  23  28
ENDBRANCH  20  23
ENDBRANCH   7  20
ENDBRANCH  16  18
ENDBRANCH  10  16
TORSDOF 8
ENDMDL
MODEL 7
REMARK VINA RESULT:      -5.7      5.666      9.730
REMARK  Name = 11912401
REMARK  10 active torsions:
REMARK  status: ('A' for Active; 'I' for Inactive)
REMARK    1  A    between atoms: N_7  and  C_20
REMARK    2  A    between atoms: N_7  and  C_21
REMARK    3  A    between atoms: N_8  and  C_22
REMARK    4  A    between atoms: C_10  and  C_16
REMARK    5  A    between atoms: C_11  and  C_15
REMARK    6  A    between atoms: C_15  and  C_17
REMARK    7  A    between atoms: C_16  and  C_18
REMARK    8  A    between atoms: C_20  and  C_23
REMARK    9  A    between atoms: C_23  and  C_28
REMARK   10  A    between atoms: C_26  and  C_30
REMARK                            x       y       z     vdW  Elec       q    Type
REMARK                         _______ _______ _______ _____ _____    ______ ____
ROOT
ATOM      5  O   UNL     1      -6.361  -8.765  12.615  0.00  0.00    -0.252 OA
ATOM      6  N   UNL     1      -6.712 -10.179  10.820  0.00  0.00    -0.285 N 
ATOM      8  N   UNL     1      -5.591 -10.949  12.748  0.00  0.00    -0.269 N 
ATOM     10  C   UNL     1      -6.514 -10.252   7.934  0.00  0.00    +0.004 C 
ATOM     11  C   UNL     1      -5.870 -11.359   8.809  0.00  0.00    +0.010 C 
ATOM     12  C   UNL     1      -6.663  -8.928   8.705  0.00  0.00    +0.023 C 
ATOM     13  C   UNL     1      -6.638 -11.478  10.136  0.00  0.00    +0.113 C 
ATOM     14  C   UNL     1      -7.376  -9.134  10.041  0.00  0.00    +0.109 C 
ATOM     19  C   UNL     1      -6.234  -9.887  12.115  0.00  0.00    +0.306 C 
ATOM     31  H   UNL     1      -5.874 -11.893  12.513  0.00  0.00    +0.156 HD
ENDROOT
BRANCH   8  22
ATOM     22  C   UNL     1      -4.546 -10.878  13.701  0.00  0.00    +0.035 A 
ATOM     24  C   UNL     1      -4.813 -11.113  15.050  0.00  0.00    +0.035 A 
ATOM     25  C   UNL     1      -3.248 -10.575  13.290  0.00  0.00    +0.023 A 
ATOM     26  C   UNL     1      -3.783 -11.043  15.988  0.00  0.00    +0.057 A 
ATOM     27  C   UNL     1      -2.217 -10.505  14.228  0.00  0.00    +0.002 A 
ATOM     29  C   UNL     1      -2.485 -10.739  15.577  0.00  0.00    +0.012 A 
BRANCH  26  30
ATOM      1  F   UNL     1      -4.756 -12.450  17.660  0.00  0.00    -0.166 F 
ATOM      2  F   UNL     1      -2.945 -11.386  18.202  0.00  0.00    -0.166 F 
ATOM      3  F   UNL     1      -4.820 -10.302  17.995  0.00  0.00    -0.166 F 
ATOM     30  C   UNL     1      -4.068 -11.292  17.429  0.00  0.00    +0.417 C 
ENDBRANCH  26  30
ENDBRANCH   8  22
BRANCH  11  15
ATOM     15  C   UNL     1      -4.373 -11.155   9.073  0.00  0.00    +0.002 C 
ATOM     17  C   UNL     1      -3.814 -12.266   9.936  0.00  0.00    +0.004 C 
ENDBRANCH  11  15
BRANCH  10  16
ATOM     16  C   UNL     1      -5.778 -10.026   6.613  0.00  0.00    +0.100 C 
BRANCH  16  18
ATOM      4  O   UNL     1      -7.693  -9.391   5.320  0.00  0.00    -0.276 OA
ATOM      7  N   UNL     1      -6.353 -11.070   4.445  0.00  0.00    -0.304 N 
ATOM     18  C   UNL     1      -6.702 -10.121   5.411  0.00  0.00    +0.216 C 
ATOM     21  C   UNL     1      -7.138 -11.278   3.236  0.00  0.00    +0.132 C 
BRANCH   7  20
ATOM     20  C   UNL     1      -5.175 -11.923   4.576  0.00  0.00    +0.122 C 
BRANCH  20  23
ATOM     23  C   UNL     1      -4.835 -12.651   3.282  0.00  0.00    +0.137 C 
BRANCH  23  28
ATOM      9  N   UNL     1      -2.266 -12.521   2.730  0.00  0.00    -0.197 NA
ATOM     28  C   UNL     1      -3.400 -12.578   2.972  0.00  0.00    +0.064 C 
ENDBRANCH  23  28
ENDBRANCH  20  23
ENDBRANCH   7  20
ENDBRANCH  16  18
ENDBRANCH  10  16
TORSDOF 8
ENDMDL
MODEL 8
REMARK VINA RESULT:      -5.6     27.848     29.907
REMARK  Name = 11912401
REMARK  10 active torsions:
REMARK  status: ('A' for Active; 'I' for Inactive)
REMARK    1  A    between atoms: N_7  and  C_20
REMARK    2  A    between atoms: N_7  and  C_21
REMARK    3  A    between atoms: N_8  and  C_22
REMARK    4  A    between atoms: C_10  and  C_16
REMARK    5  A    between atoms: C_11  and  C_15
REMARK    6  A    between atoms: C_15  and  C_17
REMARK    7  A    between atoms: C_16  and  C_18
REMARK    8  A    between atoms: C_20  and  C_23
REMARK    9  A    between atoms: C_23  and  C_28
REMARK   10  A    between atoms: C_26  and  C_30
REMARK                            x       y       z     vdW  Elec       q    Type
REMARK                         _______ _______ _______ _____ _____    ______ ____
ROOT
ATOM      5  O   UNL     1      15.411  10.122  14.125  0.00  0.00    -0.252 OA
ATOM      6  N   UNL     1      14.066  10.294  15.997  0.00  0.00    -0.285 N 
ATOM      8  N   UNL     1      15.429  12.102  15.333  0.00  0.00    -0.269 N 
ATOM     10  C   UNL     1      13.298   8.819  18.365  0.00  0.00    +0.004 C 
ATOM     11  C   UNL     1      13.790  10.287  18.461  0.00  0.00    +0.010 C 
ATOM     12  C   UNL     1      13.841   8.114  17.109  0.00  0.00    +0.023 C 
ATOM     13  C   UNL     1      13.491  11.017  17.141  0.00  0.00    +0.113 C 
ATOM     14  C   UNL     1      13.566   8.928  15.845  0.00  0.00    +0.109 C 
ATOM     19  C   UNL     1      15.000  10.802  15.069  0.00  0.00    +0.306 C 
ATOM     31  H   UNL     1      14.795  12.731  15.812  0.00  0.00    +0.156 HD
ENDROOT
BRANCH   8  22
ATOM     22  C   UNL     1      16.687  12.673  15.022  0.00  0.00    +0.035 A 
ATOM     24  C   UNL     1      17.827  11.871  14.984  0.00  0.00    +0.035 A 
ATOM     25  C   UNL     1      16.786  14.037  14.751  0.00  0.00    +0.023 A 
ATOM     26  C   UNL     1      19.067  12.433  14.677  0.00  0.00    +0.057 A 
ATOM     27  C   UNL     1      18.025  14.601  14.443  0.00  0.00    +0.002 A 
ATOM     29  C   UNL     1      19.165  13.798  14.406  0.00  0.00    +0.012 A 
BRANCH  26  30
ATOM      1  F   UNL     1      20.060  10.323  14.143  0.00  0.00    -0.166 F 
ATOM      2  F   UNL     1      21.290  12.088  13.865  0.00  0.00    -0.166 F 
ATOM      3  F   UNL     1      20.835  11.388  15.873  0.00  0.00    -0.166 F 
ATOM     30  C   UNL     1      20.286  11.577  14.638  0.00  0.00    +0.417 C 
ENDBRANCH  26  30
ENDBRANCH   8  22
BRANCH  11  15
ATOM     15  C   UNL     1      15.273  10.425  18.826  0.00  0.00    +0.002 C 
ATOM     17  C   UNL     1      15.450  11.206  20.111  0.00  0.00    +0.004 C 
ENDBRANCH  11  15
BRANCH  10  16
ATOM     16  C   UNL     1      13.604   8.000  19.619  0.00  0.00    +0.100 C 
BRANCH  16  18
ATOM      4  O   UNL     1      11.871   6.344  19.661  0.00  0.00    -0.276 OA
ATOM      7  N   UNL     1      11.841   7.932  21.352  0.00  0.00    -0.304 N 
ATOM     18  C   UNL     1      12.364   7.340  20.198  0.00  0.00    +0.216 C 
ATOM     21  C   UNL     1      10.656   7.415  22.026  0.00  0.00    +0.132 C 
BRANCH   7  20
ATOM     20  C   UNL     1      12.442   9.112  21.969  0.00  0.00    +0.122 C 
BRANCH  20  23
ATOM     23  C   UNL     1      11.585  10.360  21.797  0.00  0.00    +0.137 C 
BRANCH  23  28
ATOM      9  N   UNL     1      10.631  11.218  24.094  0.00  0.00    -0.197 NA
ATOM     28  C   UNL     1      11.053  10.840  23.081  0.00  0.00    +0.064 C 
ENDBRANCH  23  28
ENDBRANCH  20  23
ENDBRANCH   7  20
ENDBRANCH  16  18
ENDBRANCH  10  16
TORSDOF 8
ENDMDL
MODEL 9
REMARK VINA RESULT:      -5.6     24.712     26.099
REMARK  Name = 11912401
REMARK  10 active torsions:
REMARK  status: ('A' for Active; 'I' for Inactive)
REMARK    1  A    between atoms: N_7  and  C_20
REMARK    2  A    between atoms: N_7  and  C_21
REMARK    3  A    between atoms: N_8  and  C_22
REMARK    4  A    between atoms: C_10  and  C_16
REMARK    5  A    between atoms: C_11  and  C_15
REMARK    6  A    between atoms: C_15  and  C_17
REMARK    7  A    between atoms: C_16  and  C_18
REMARK    8  A    between atoms: C_20  and  C_23
REMARK    9  A    between atoms: C_23  and  C_28
REMARK   10  A    between atoms: C_26  and  C_30
REMARK                            x       y       z     vdW  Elec       q    Type
REMARK                         _______ _______ _______ _____ _____    ______ ____
ROOT
ATOM      5  O   UNL     1      17.449  -2.664  28.880  0.00  0.00    -0.252 OA
ATOM      6  N   UNL     1      17.081  -4.872  29.456  0.00  0.00    -0.285 N 
ATOM      8  N   UNL     1      18.246  -4.330  27.477  0.00  0.00    -0.269 N 
ATOM     10  C   UNL     1      14.999  -6.635  30.420  0.00  0.00    +0.004 C 
ATOM     11  C   UNL     1      15.839  -6.998  29.167  0.00  0.00    +0.010 C 
ATOM     12  C   UNL     1      14.950  -5.115  30.656  0.00  0.00    +0.023 C 
ATOM     13  C   UNL     1      17.217  -6.323  29.258  0.00  0.00    +0.113 C 
ATOM     14  C   UNL     1      16.351  -4.504  30.669  0.00  0.00    +0.109 C 
ATOM     19  C   UNL     1      17.597  -3.861  28.618  0.00  0.00    +0.306 C 
ATOM     31  H   UNL     1      18.699  -5.235  27.518  0.00  0.00    +0.156 HD
ENDROOT
BRANCH   8  22
ATOM     22  C   UNL     1      18.343  -3.689  26.218  0.00  0.00    +0.035 A 
ATOM     24  C   UNL     1      17.211  -3.553  25.414  0.00  0.00    +0.035 A 
ATOM     25  C   UNL     1      19.571  -3.193  25.782  0.00  0.00    +0.023 A 
ATOM     26  C   UNL     1      17.308  -2.921  24.174  0.00  0.00    +0.057 A 
ATOM     27  C   UNL     1      19.669  -2.560  24.541  0.00  0.00    +0.002 A 
ATOM     29  C   UNL     1      18.537  -2.424  23.738  0.00  0.00    +0.012 A 
BRANCH  26  30
ATOM      1  F   UNL     1      16.044  -1.589  22.640  0.00  0.00    -0.166 F 
ATOM      2  F   UNL     1      15.994  -3.738  22.350  0.00  0.00    -0.166 F 
ATOM      3  F   UNL     1      14.936  -2.845  24.028  0.00  0.00    -0.166 F 
ATOM     30  C   UNL     1      16.099  -2.776  23.315  0.00  0.00    +0.417 C 
ENDBRANCH  26  30
ENDBRANCH   8  22
BRANCH  11  15
ATOM     15  C   UNL     1      15.159  -6.648  27.837  0.00  0.00    +0.002 C 
ATOM     17  C   UNL     1      16.021  -7.052  26.660  0.00  0.00    +0.004 C 
ENDBRANCH  11  15
BRANCH  10  16
ATOM     16  C   UNL     1      13.588  -7.222  30.387  0.00  0.00    +0.100 C 
BRANCH  16  18
ATOM      4  O   UNL     1      13.763  -9.128  31.829  0.00  0.00    -0.276 OA
ATOM      7  N   UNL     1      12.376  -7.409  32.535  0.00  0.00    -0.304 N 
ATOM     18  C   UNL     1      13.262  -8.017  31.640  0.00  0.00    +0.216 C 
ATOM     21  C   UNL     1      11.967  -8.044  33.782  0.00  0.00    +0.132 C 
BRANCH   7  20
ATOM     20  C   UNL     1      11.794  -6.092  32.289  0.00  0.00    +0.122 C 
BRANCH  20  23
ATOM     23  C   UNL     1      11.594  -5.293  33.570  0.00  0.00    +0.137 C 
BRANCH  23  28
ATOM      9  N   UNL     1       9.154  -4.326  33.752  0.00  0.00    -0.197 NA
ATOM     28  C   UNL     1      10.231  -4.753  33.673  0.00  0.00    +0.064 C 
ENDBRANCH  23  28
ENDBRANCH  20  23
ENDBRANCH   7  20
ENDBRANCH  16  18
ENDBRANCH  10  16
TORSDOF 8
ENDMDL
MODEL 10
REMARK VINA RESULT:      -5.5      2.762      4.374
REMARK  Name = 11912401
REMARK  10 active torsions:
REMARK  status: ('A' for Active; 'I' for Inactive)
REMARK    1  A    between atoms: N_7  and  C_20
REMARK    2  A    between atoms: N_7  and  C_21
REMARK    3  A    between atoms: N_8  and  C_22
REMARK    4  A    between atoms: C_10  and  C_16
REMARK    5  A    between atoms: C_11  and  C_15
REMARK    6  A    between atoms: C_15  and  C_17
REMARK    7  A    between atoms: C_16  and  C_18
REMARK    8  A    between atoms: C_20  and  C_23
REMARK    9  A    between atoms: C_23  and  C_28
REMARK   10  A    between atoms: C_26  and  C_30
REMARK                            x       y       z     vdW  Elec       q    Type
REMARK                         _______ _______ _______ _____ _____    ______ ____
ROOT
ATOM      5  O   UNL     1      -8.235 -10.805  13.522  0.00  0.00    -0.252 OA
ATOM      6  N   UNL     1      -8.147  -9.984  15.682  0.00  0.00    -0.285 N 
ATOM      8  N   UNL     1      -6.308  -9.722  14.227  0.00  0.00    -0.269 N 
ATOM     10  C   UNL     1      -8.758 -10.739  18.408  0.00  0.00    +0.004 C 
ATOM     11  C   UNL     1      -7.367 -10.168  18.028  0.00  0.00    +0.010 C 
ATOM     12  C   UNL     1      -9.451 -11.405  17.206  0.00  0.00    +0.023 C 
ATOM     13  C   UNL     1      -7.501  -9.265  16.790  0.00  0.00    +0.113 C 
ATOM     14  C   UNL     1      -9.490 -10.474  15.994  0.00  0.00    +0.109 C 
ATOM     19  C   UNL     1      -7.605 -10.205  14.398  0.00  0.00    +0.306 C 
ATOM     31  H   UNL     1      -6.019  -8.916  14.769  0.00  0.00    +0.156 HD
ENDROOT
BRANCH   8  22
ATOM     22  C   UNL     1      -5.303 -10.240  13.375  0.00  0.00    +0.035 A 
ATOM     24  C   UNL     1      -4.978  -9.573  12.193  0.00  0.00    +0.035 A 
ATOM     25  C   UNL     1      -4.636 -11.415  13.717  0.00  0.00    +0.023 A 
ATOM     26  C   UNL     1      -3.987 -10.083  11.354  0.00  0.00    +0.057 A 
ATOM     27  C   UNL     1      -3.644 -11.926  12.878  0.00  0.00    +0.002 A 
ATOM     29  C   UNL     1      -3.320 -11.259  11.697  0.00  0.00    +0.012 A 
BRANCH  26  30
ATOM      1  F   UNL     1      -4.392  -8.253   9.868  0.00  0.00    -0.166 F 
ATOM      2  F   UNL     1      -2.343  -8.945  10.041  0.00  0.00    -0.166 F 
ATOM      3  F   UNL     1      -3.812 -10.153   8.984  0.00  0.00    -0.166 F 
ATOM     30  C   UNL     1      -3.641  -9.372  10.091  0.00  0.00    +0.417 C 
ENDBRANCH  26  30
ENDBRANCH   8  22
BRANCH  11  15
ATOM     15  C   UNL     1      -6.294 -11.239  17.795  0.00  0.00    +0.002 C 
ATOM     17  C   UNL     1      -4.948 -10.611  17.504  0.00  0.00    +0.004 C 
ENDBRANCH  11  15
BRANCH  10  16
ATOM     16  C   UNL     1      -8.710 -11.694  19.600  0.00  0.00    +0.100 C 
BRANCH  16  18
ATOM      4  O   UNL     1     -10.949 -11.055  20.169  0.00  0.00    -0.276 OA
ATOM      7  N   UNL     1     -10.279 -13.186  20.797  0.00  0.00    -0.304 N 
ATOM     18  C   UNL     1     -10.082 -11.932  20.208  0.00  0.00    +0.216 C 
ATOM     21  C   UNL     1     -11.541 -13.565  21.420  0.00  0.00    +0.132 C 
BRANCH   7  20
ATOM     20  C   UNL     1      -9.237 -14.208  20.832  0.00  0.00    +0.122 C 
BRANCH  20  23
ATOM     23  C   UNL     1      -9.607 -15.446  20.026  0.00  0.00    +0.137 C 
BRANCH  23  28
ATOM      9  N   UNL     1      -9.279 -15.072  17.442  0.00  0.00    -0.197 NA
ATOM     28  C   UNL     1      -9.423 -15.236  18.582  0.00  0.00    +0.064 C 
ENDBRANCH  23  28
ENDBRANCH  20  23
ENDBRANCH   7  20
ENDBRANCH  16  18
ENDBRANCH  10  16
TORSDOF 8
ENDMDL
