MODEL 1
REMARK VINA RESULT:      -7.7      0.000      0.000
REMARK  Name = 11885915
REMARK  5 active torsions:
REMARK  status: ('A' for Active; 'I' for Inactive)
REMARK    1  A    between atoms: O_4  and  C_29
REMARK    2  A    between atoms: O_4  and  C_34
REMARK    3  A    between atoms: N_7  and  C_20
REMARK    4  A    between atoms: N_9  and  C_28
REMARK    5  A    between atoms: C_19  and  C_22
REMARK                            x       y       z     vdW  Elec       q    Type
REMARK                         _______ _______ _______ _____ _____    ______ ____
ROOT
ATOM      1  O   UNL     1      15.593   5.969  19.244  0.00  0.00    -0.266 OA
ATOM      2  O   UNL     1      12.769   9.855  17.321  0.00  0.00    -0.268 OA
ATOM      5  N   UNL     1      12.406   9.789  19.631  0.00  0.00    -0.295 N 
ATOM      6  N   UNL     1      14.366   7.470  20.548  0.00  0.00    -0.310 N 
ATOM     10  C   UNL     1      11.806   7.548  20.532  0.00  0.00    +0.027 C 
ATOM     11  C   UNL     1      13.070   9.131  21.932  0.00  0.00    +0.054 C 
ATOM     12  C   UNL     1      11.954   8.087  21.951  0.00  0.00    +0.018 C 
ATOM     13  C   UNL     1      11.447   8.687  19.560  0.00  0.00    +0.113 C 
ATOM     14  C   UNL     1      13.106   6.838  20.135  0.00  0.00    +0.130 C 
ATOM     15  C   UNL     1      12.681  10.287  20.989  0.00  0.00    +0.117 C 
ATOM     16  C   UNL     1      14.381   8.519  21.475  0.00  0.00    +0.027 A 
ATOM     17  C   UNL     1      15.549   9.005  21.927  0.00  0.00    +0.024 A 
ATOM     18  C   UNL     1      15.555   6.904  20.047  0.00  0.00    +0.273 A 
ATOM     19  C   UNL     1      12.994  10.267  18.457  0.00  0.00    +0.265 C 
ATOM     20  C   UNL     1      16.834   7.492  20.554  0.00  0.00    +0.100 A 
ATOM     21  C   UNL     1      16.799   8.480  21.455  0.00  0.00    +0.030 A 
ENDROOT
BRANCH  20   7
ATOM      3  O   UNL     1      18.899   6.301  22.107  0.00  0.00    -0.252 OA
ATOM      7  N   UNL     1      18.006   6.983  20.078  0.00  0.00    -0.265 N 
ATOM      9  N   UNL     1      20.071   5.981  20.099  0.00  0.00    -0.266 N 
ATOM     24  C   UNL     1      18.995   6.405  20.886  0.00  0.00    +0.308 C 
ATOM     35  H   UNL     1      18.278   7.254  19.138  0.00  0.00    +0.157 HD
ATOM     36  H   UNL     1      19.995   6.142  19.098  0.00  0.00    +0.156 HD
BRANCH   9  28
ATOM     28  C   UNL     1      21.264   5.351  20.524  0.00  0.00    +0.077 A 
ATOM     29  C   UNL     1      22.450   6.067  20.563  0.00  0.00    +0.141 A 
ATOM     30  C   UNL     1      21.216   4.017  20.898  0.00  0.00    +0.027 A 
ATOM     31  C   UNL     1      23.618   5.432  20.986  0.00  0.00    +0.047 A 
ATOM     32  C   UNL     1      22.384   3.382  21.320  0.00  0.00    +0.002 A 
ATOM     33  C   UNL     1      23.585   4.090  21.364  0.00  0.00    +0.004 A 
BRANCH  29   4
ATOM      4  O   UNL     1      22.503   7.379  20.196  0.00  0.00    -0.493 OA
ATOM     34  C   UNL     1      22.535   8.343  21.246  0.00  0.00    +0.277 C 
ENDBRANCH  29   4
ENDBRANCH   9  28
ENDBRANCH  20   7
BRANCH  19  22
ATOM      8  N   UNL     1      13.508  12.591  18.401  0.00  0.00    -0.250 NA
ATOM     22  C   UNL     1      13.985  11.342  18.573  0.00  0.00    +0.126 A 
ATOM     23  C   UNL     1      15.307  11.037  18.840  0.00  0.00    +0.033 A 
ATOM     25  C   UNL     1      16.205  12.093  18.938  0.00  0.00    +0.004 A 
ATOM     26  C   UNL     1      14.411  13.592  18.505  0.00  0.00    +0.111 A 
ATOM     27  C   UNL     1      15.757  13.398  18.769  0.00  0.00    +0.020 A 
ENDBRANCH  19  22
TORSDOF 4
ENDMDL
MODEL 2
REMARK VINA RESULT:      -7.7      4.532      8.661
REMARK  Name = 11885915
REMARK  5 active torsions:
REMARK  status: ('A' for Active; 'I' for Inactive)
REMARK    1  A    between atoms: O_4  and  C_29
REMARK    2  A    between atoms: O_4  and  C_34
REMARK    3  A    between atoms: N_7  and  C_20
REMARK    4  A    between atoms: N_9  and  C_28
REMARK    5  A    between atoms: C_19  and  C_22
REMARK                            x       y       z     vdW  Elec       q    Type
REMARK                         _______ _______ _______ _____ _____    ______ ____
ROOT
ATOM      1  O   UNL     1      13.046   9.076  16.708  0.00  0.00    -0.266 OA
ATOM      2  O   UNL     1      10.594   8.148  21.169  0.00  0.00    -0.268 OA
ATOM      5  N   UNL     1      12.893   8.117  21.602  0.00  0.00    -0.295 N 
ATOM      6  N   UNL     1      14.115   8.879  18.776  0.00  0.00    -0.310 N 
ATOM     10  C   UNL     1      14.225   6.673  20.074  0.00  0.00    +0.027 C 
ATOM     11  C   UNL     1      15.236   8.706  21.027  0.00  0.00    +0.054 C 
ATOM     12  C   UNL     1      15.509   7.247  20.663  0.00  0.00    +0.018 C 
ATOM     13  C   UNL     1      13.080   6.756  21.100  0.00  0.00    +0.113 C 
ATOM     14  C   UNL     1      13.896   7.426  18.779  0.00  0.00    +0.130 C 
ATOM     15  C   UNL     1      14.118   8.774  22.087  0.00  0.00    +0.117 C 
ATOM     16  C   UNL     1      14.828   9.506  19.803  0.00  0.00    +0.027 A 
ATOM     17  C   UNL     1      15.118  10.816  19.723  0.00  0.00    +0.024 A 
ATOM     18  C   UNL     1      13.662   9.587  17.645  0.00  0.00    +0.273 A 
ATOM     19  C   UNL     1      11.621   8.692  21.572  0.00  0.00    +0.265 C 
ATOM     20  C   UNL     1      13.981  11.049  17.607  0.00  0.00    +0.100 A 
ATOM     21  C   UNL     1      14.684  11.600  18.603  0.00  0.00    +0.030 A 
ENDROOT
BRANCH  20   7
ATOM      3  O   UNL     1      15.327  11.344  15.119  0.00  0.00    -0.252 OA
ATOM      7  N   UNL     1      13.543  11.772  16.538  0.00  0.00    -0.265 N 
ATOM      9  N   UNL     1      13.533  12.695  14.436  0.00  0.00    -0.266 N 
ATOM     24  C   UNL     1      14.245  11.888  15.330  0.00  0.00    +0.308 C 
ATOM     35  H   UNL     1      12.805  12.448  16.710  0.00  0.00    +0.157 HD
ATOM     36  H   UNL     1      12.649  13.071  14.767  0.00  0.00    +0.156 HD
BRANCH   9  28
ATOM     28  C   UNL     1      13.894  13.059  13.118  0.00  0.00    +0.077 A 
ATOM     29  C   UNL     1      13.150  12.600  12.042  0.00  0.00    +0.141 A 
ATOM     30  C   UNL     1      14.999  13.877  12.932  0.00  0.00    +0.027 A 
ATOM     31  C   UNL     1      13.518  12.969  10.749  0.00  0.00    +0.047 A 
ATOM     32  C   UNL     1      15.368  14.245  11.638  0.00  0.00    +0.002 A 
ATOM     33  C   UNL     1      14.627  13.791  10.546  0.00  0.00    +0.004 A 
BRANCH  29   4
ATOM      4  O   UNL     1      12.064  11.795  12.219  0.00  0.00    -0.493 OA
ATOM     34  C   UNL     1      10.840  12.220  11.624  0.00  0.00    +0.277 C 
ENDBRANCH  29   4
ENDBRANCH   9  28
ENDBRANCH  20   7
BRANCH  19  22
ATOM      8  N   UNL     1      11.082  10.215  23.322  0.00  0.00    -0.250 NA
ATOM     22  C   UNL     1      11.480  10.075  22.042  0.00  0.00    +0.126 A 
ATOM     23  C   UNL     1      11.750  11.126  21.185  0.00  0.00    +0.033 A 
ATOM     25  C   UNL     1      11.600  12.416  21.680  0.00  0.00    +0.004 A 
ATOM     26  C   UNL     1      10.949  11.484  23.768  0.00  0.00    +0.111 A 
ATOM     27  C   UNL     1      11.192  12.607  22.995  0.00  0.00    +0.020 A 
ENDBRANCH  19  22
TORSDOF 4
ENDMDL
MODEL 3
REMARK VINA RESULT:      -7.4     28.567     31.620
REMARK  Name = 11885915
REMARK  5 active torsions:
REMARK  status: ('A' for Active; 'I' for Inactive)
REMARK    1  A    between atoms: O_4  and  C_29
REMARK    2  A    between atoms: O_4  and  C_34
REMARK    3  A    between atoms: N_7  and  C_20
REMARK    4  A    between atoms: N_9  and  C_28
REMARK    5  A    between atoms: C_19  and  C_22
REMARK                            x       y       z     vdW  Elec       q    Type
REMARK                         _______ _______ _______ _____ _____    ______ ____
ROOT
ATOM      1  O   UNL     1      -6.402  -9.618  13.997  0.00  0.00    -0.266 OA
ATOM      2  O   UNL     1      -5.526 -14.492  12.499  0.00  0.00    -0.268 OA
ATOM      5  N   UNL     1      -3.451 -13.435  12.727  0.00  0.00    -0.295 N 
ATOM      6  N   UNL     1      -4.277 -10.571  13.808  0.00  0.00    -0.310 N 
ATOM     10  C   UNL     1      -3.257 -11.247  11.558  0.00  0.00    +0.027 C 
ATOM     11  C   UNL     1      -2.000 -11.638  13.639  0.00  0.00    +0.054 C 
ATOM     12  C   UNL     1      -1.921 -11.004  12.250  0.00  0.00    +0.018 C 
ATOM     13  C   UNL     1      -3.530 -12.758  11.434  0.00  0.00    +0.113 C 
ATOM     14  C   UNL     1      -4.359 -10.524  12.342  0.00  0.00    +0.130 C 
ATOM     15  C   UNL     1      -2.230 -13.156  13.501  0.00  0.00    +0.117 C 
ATOM     16  C   UNL     1      -3.122 -11.024  14.455  0.00  0.00    +0.027 A 
ATOM     17  C   UNL     1      -3.023 -10.950  15.793  0.00  0.00    +0.024 A 
ATOM     18  C   UNL     1      -5.372 -10.045  14.523  0.00  0.00    +0.273 A 
ATOM     19  C   UNL     1      -4.504 -14.255  13.140  0.00  0.00    +0.265 C 
ATOM     20  C   UNL     1      -5.233 -10.005  16.012  0.00  0.00    +0.100 A 
ATOM     21  C   UNL     1      -4.102 -10.430  16.585  0.00  0.00    +0.030 A 
ENDROOT
BRANCH  20   7
ATOM      3  O   UNL     1      -7.564 -11.452  16.765  0.00  0.00    -0.252 OA
ATOM      7  N   UNL     1      -6.279  -9.521  16.740  0.00  0.00    -0.265 N 
ATOM      9  N   UNL     1      -8.298  -9.495  17.832  0.00  0.00    -0.266 N 
ATOM     24  C   UNL     1      -7.409 -10.275  17.086  0.00  0.00    +0.308 C 
ATOM     35  H   UNL     1      -6.355  -8.511  16.823  0.00  0.00    +0.157 HD
ATOM     36  H   UNL     1      -8.020  -8.533  18.012  0.00  0.00    +0.156 HD
BRANCH   9  28
ATOM     28  C   UNL     1      -9.549  -9.877  18.371  0.00  0.00    +0.077 A 
ATOM     29  C   UNL     1      -9.604 -10.749  19.447  0.00  0.00    +0.141 A 
ATOM     30  C   UNL     1     -10.704  -9.363  17.801  0.00  0.00    +0.027 A 
ATOM     31  C   UNL     1     -10.845 -11.115  19.967  0.00  0.00    +0.047 A 
ATOM     32  C   UNL     1     -11.945  -9.731  18.321  0.00  0.00    +0.002 A 
ATOM     33  C   UNL     1     -12.015 -10.607  19.404  0.00  0.00    +0.004 A 
BRANCH  29   4
ATOM      4  O   UNL     1      -8.471 -11.257  20.010  0.00  0.00    -0.493 OA
ATOM     34  C   UNL     1      -8.269 -12.664  19.898  0.00  0.00    +0.277 C 
ENDBRANCH  29   4
ENDBRANCH   9  28
ENDBRANCH  20   7
BRANCH  19  22
ATOM      8  N   UNL     1      -3.819 -16.094  14.489  0.00  0.00    -0.250 NA
ATOM     22  C   UNL     1      -4.409 -14.882  14.463  0.00  0.00    +0.126 A 
ATOM     23  C   UNL     1      -4.909 -14.230  15.574  0.00  0.00    +0.033 A 
ATOM     25  C   UNL     1      -4.794 -14.868  16.803  0.00  0.00    +0.004 A 
ATOM     26  C   UNL     1      -3.724 -16.684  15.702  0.00  0.00    +0.111 A 
ATOM     27  C   UNL     1      -4.192 -16.119  16.877  0.00  0.00    +0.020 A 
ENDBRANCH  19  22
TORSDOF 4
ENDMDL
MODEL 4
REMARK VINA RESULT:      -7.0      2.135      4.126
REMARK  Name = 11885915
REMARK  5 active torsions:
REMARK  status: ('A' for Active; 'I' for Inactive)
REMARK    1  A    between atoms: O_4  and  C_29
REMARK    2  A    between atoms: O_4  and  C_34
REMARK    3  A    between atoms: N_7  and  C_20
REMARK    4  A    between atoms: N_9  and  C_28
REMARK    5  A    between atoms: C_19  and  C_22
REMARK                            x       y       z     vdW  Elec       q    Type
REMARK                         _______ _______ _______ _____ _____    ______ ____
ROOT
ATOM      1  O   UNL     1      17.427   9.841  21.584  0.00  0.00    -0.266 OA
ATOM      2  O   UNL     1      12.400  10.956  22.088  0.00  0.00    -0.268 OA
ATOM      5  N   UNL     1      12.804  10.500  19.829  0.00  0.00    -0.295 N 
ATOM      6  N   UNL     1      15.870   9.689  19.850  0.00  0.00    -0.310 N 
ATOM     10  C   UNL     1      14.719  11.741  18.837  0.00  0.00    +0.027 C 
ATOM     11  C   UNL     1      14.160   9.491  18.009  0.00  0.00    +0.054 C 
ATOM     12  C   UNL     1      14.613  10.886  17.580  0.00  0.00    +0.018 C 
ATOM     13  C   UNL     1      13.355  11.824  19.546  0.00  0.00    +0.113 C 
ATOM     14  C   UNL     1      15.806  11.153  19.745  0.00  0.00    +0.130 C 
ATOM     15  C   UNL     1      12.774   9.581  18.679  0.00  0.00    +0.117 C 
ATOM     16  C   UNL     1      15.152   8.868  18.973  0.00  0.00    +0.027 A 
ATOM     17  C   UNL     1      15.314   7.534  19.010  0.00  0.00    +0.024 A 
ATOM     18  C   UNL     1      16.762   9.159  20.804  0.00  0.00    +0.273 A 
ATOM     19  C   UNL     1      12.377  10.193  21.124  0.00  0.00    +0.265 C 
ATOM     20  C   UNL     1      16.892   7.668  20.832  0.00  0.00    +0.100 A 
ATOM     21  C   UNL     1      16.202   6.925  19.960  0.00  0.00    +0.030 A 
ENDROOT
BRANCH  20   7
ATOM      3  O   UNL     1      19.703   7.336  20.554  0.00  0.00    -0.252 OA
ATOM      7  N   UNL     1      17.731   7.116  21.754  0.00  0.00    -0.265 N 
ATOM      9  N   UNL     1      19.689   6.374  22.694  0.00  0.00    -0.266 N 
ATOM     24  C   UNL     1      19.114   6.974  21.569  0.00  0.00    +0.308 C 
ATOM     35  H   UNL     1      17.305   6.567  22.494  0.00  0.00    +0.157 HD
ATOM     36  H   UNL     1      19.059   6.132  23.455  0.00  0.00    +0.156 HD
BRANCH   9  28
ATOM     28  C   UNL     1      21.050   6.055  22.908  0.00  0.00    +0.077 A 
ATOM     29  C   UNL     1      21.843   6.883  23.687  0.00  0.00    +0.141 A 
ATOM     30  C   UNL     1      21.565   4.907  22.325  0.00  0.00    +0.027 A 
ATOM     31  C   UNL     1      23.183   6.555  23.890  0.00  0.00    +0.047 A 
ATOM     32  C   UNL     1      22.906   4.579  22.527  0.00  0.00    +0.002 A 
ATOM     33  C   UNL     1      23.715   5.403  23.309  0.00  0.00    +0.004 A 
BRANCH  29   4
ATOM      4  O   UNL     1      21.343   8.013  24.262  0.00  0.00    -0.493 OA
ATOM     34  C   UNL     1      21.719   9.258  23.678  0.00  0.00    +0.277 C 
ENDBRANCH  29   4
ENDBRANCH   9  28
ENDBRANCH  20   7
BRANCH  19  22
ATOM      8  N   UNL     1      10.572   8.761  21.725  0.00  0.00    -0.250 NA
ATOM     22  C   UNL     1      11.873   8.840  21.379  0.00  0.00    +0.126 A 
ATOM     23  C   UNL     1      12.720   7.753  21.260  0.00  0.00    +0.033 A 
ATOM     25  C   UNL     1      12.191   6.493  21.514  0.00  0.00    +0.004 A 
ATOM     26  C   UNL     1      10.094   7.520  21.964  0.00  0.00    +0.111 A 
ATOM     27  C   UNL     1      10.854   6.365  21.874  0.00  0.00    +0.020 A 
ENDBRANCH  19  22
TORSDOF 4
ENDMDL
MODEL 5
REMARK VINA RESULT:      -7.0     16.081     18.921
REMARK  Name = 11885915
REMARK  5 active torsions:
REMARK  status: ('A' for Active; 'I' for Inactive)
REMARK    1  A    between atoms: O_4  and  C_29
REMARK    2  A    between atoms: O_4  and  C_34
REMARK    3  A    between atoms: N_7  and  C_20
REMARK    4  A    between atoms: N_9  and  C_28
REMARK    5  A    between atoms: C_19  and  C_22
REMARK                            x       y       z     vdW  Elec       q    Type
REMARK                         _______ _______ _______ _____ _____    ______ ____
ROOT
ATOM      1  O   UNL     1      11.925   9.308   2.497  0.00  0.00    -0.266 OA
ATOM      2  O   UNL     1      12.753   7.410   7.238  0.00  0.00    -0.268 OA
ATOM      5  N   UNL     1      10.732   8.588   7.287  0.00  0.00    -0.295 N 
ATOM      6  N   UNL     1      10.400   9.470   4.259  0.00  0.00    -0.310 N 
ATOM     10  C   UNL     1      10.839  10.889   6.346  0.00  0.00    +0.027 C 
ATOM     11  C   UNL     1       8.756   9.589   6.165  0.00  0.00    +0.054 C 
ATOM     12  C   UNL     1       9.320  10.985   6.428  0.00  0.00    +0.018 C 
ATOM     13  C   UNL     1      11.372   9.898   7.398  0.00  0.00    +0.113 C 
ATOM     14  C   UNL     1      11.233  10.484   4.920  0.00  0.00    +0.130 C 
ATOM     15  C   UNL     1       9.261   8.616   7.250  0.00  0.00    +0.117 C 
ATOM     16  C   UNL     1       9.166   9.084   4.795  0.00  0.00    +0.027 A 
ATOM     17  C   UNL     1       8.368   8.243   4.117  0.00  0.00    +0.024 A 
ATOM     18  C   UNL     1      10.856   8.985   3.017  0.00  0.00    +0.273 A 
ATOM     19  C   UNL     1      11.524   7.440   7.207  0.00  0.00    +0.265 C 
ATOM     20  C   UNL     1       9.950   8.029   2.306  0.00  0.00    +0.100 A 
ATOM     21  C   UNL     1       8.770   7.706   2.848  0.00  0.00    +0.030 A 
ENDROOT
BRANCH  20   7
ATOM      3  O   UNL     1      10.244   5.274   1.663  0.00  0.00    -0.252 OA
ATOM      7  N   UNL     1      10.364   7.523   1.110  0.00  0.00    -0.265 N 
ATOM      9  N   UNL     1      10.938   5.962  -0.472  0.00  0.00    -0.266 N 
ATOM     24  C   UNL     1      10.494   6.154   0.841  0.00  0.00    +0.308 C 
ATOM     35  H   UNL     1      10.829   8.165   0.474  0.00  0.00    +0.157 HD
ATOM     36  H   UNL     1      11.100   6.799  -1.025  0.00  0.00    +0.156 HD
BRANCH   9  28
ATOM     28  C   UNL     1      11.194   4.737  -1.131  0.00  0.00    +0.077 A 
ATOM     29  C   UNL     1      12.278   3.959  -0.755  0.00  0.00    +0.141 A 
ATOM     30  C   UNL     1      10.344   4.340  -2.152  0.00  0.00    +0.027 A 
ATOM     31  C   UNL     1      12.517   2.755  -1.415  0.00  0.00    +0.047 A 
ATOM     32  C   UNL     1      10.583   3.135  -2.813  0.00  0.00    +0.002 A 
ATOM     33  C   UNL     1      11.671   2.342  -2.444  0.00  0.00    +0.004 A 
BRANCH  29   4
ATOM      4  O   UNL     1      13.118   4.345   0.247  0.00  0.00    -0.493 OA
ATOM     34  C   UNL     1      13.322   3.420   1.312  0.00  0.00    +0.277 C 
ENDBRANCH  29   4
ENDBRANCH   9  28
ENDBRANCH  20   7
BRANCH  19  22
ATOM      8  N   UNL     1      10.610   5.476   8.196  0.00  0.00    -0.250 NA
ATOM     22  C   UNL     1      10.848   6.148   7.051  0.00  0.00    +0.126 A 
ATOM     23  C   UNL     1      10.502   5.696   5.791  0.00  0.00    +0.033 A 
ATOM     25  C   UNL     1       9.864   4.465   5.700  0.00  0.00    +0.004 A 
ATOM     26  C   UNL     1       9.988   4.283   8.068  0.00  0.00    +0.111 A 
ATOM     27  C   UNL     1       9.598   3.738   6.855  0.00  0.00    +0.020 A 
ENDBRANCH  19  22
TORSDOF 4
ENDMDL
MODEL 6
REMARK VINA RESULT:      -6.8     26.858     29.998
REMARK  Name = 11885915
REMARK  5 active torsions:
REMARK  status: ('A' for Active; 'I' for Inactive)
REMARK    1  A    between atoms: O_4  and  C_29
REMARK    2  A    between atoms: O_4  and  C_34
REMARK    3  A    between atoms: N_7  and  C_20
REMARK    4  A    between atoms: N_9  and  C_28
REMARK    5  A    between atoms: C_19  and  C_22
REMARK                            x       y       z     vdW  Elec       q    Type
REMARK                         _______ _______ _______ _____ _____    ______ ____
ROOT
ATOM      1  O   UNL     1     -13.787   8.513  17.517  0.00  0.00    -0.266 OA
ATOM      2  O   UNL     1     -16.141  10.522  21.663  0.00  0.00    -0.268 OA
ATOM      5  N   UNL     1     -15.509   8.333  22.196  0.00  0.00    -0.295 N 
ATOM      6  N   UNL     1     -13.960   7.431  19.580  0.00  0.00    -0.310 N 
ATOM     10  C   UNL     1     -16.192   6.613  20.533  0.00  0.00    +0.027 C 
ATOM     11  C   UNL     1     -14.122   6.306  21.830  0.00  0.00    +0.054 C 
ATOM     12  C   UNL     1     -15.342   5.580  21.263  0.00  0.00    +0.018 C 
ATOM     13  C   UNL     1     -16.642   7.720  21.504  0.00  0.00    +0.113 C 
ATOM     14  C   UNL     1     -15.388   7.171  19.353  0.00  0.00    +0.130 C 
ATOM     15  C   UNL     1     -14.582   7.383  22.833  0.00  0.00    +0.117 C 
ATOM     16  C   UNL     1     -13.310   6.953  20.724  0.00  0.00    +0.027 A 
ATOM     17  C   UNL     1     -11.981   7.100  20.857  0.00  0.00    +0.024 A 
ATOM     18  C   UNL     1     -13.262   8.091  18.549  0.00  0.00    +0.273 A 
ATOM     19  C   UNL     1     -15.371   9.723  22.193  0.00  0.00    +0.265 C 
ATOM     20  C   UNL     1     -11.789   8.259  18.748  0.00  0.00    +0.100 A 
ATOM     21  C   UNL     1     -11.207   7.767  19.848  0.00  0.00    +0.030 A 
ENDROOT
BRANCH  20   7
ATOM      3  O   UNL     1     -11.525  11.077  18.474  0.00  0.00    -0.252 OA
ATOM      7  N   UNL     1     -11.082   8.909  17.781  0.00  0.00    -0.265 N 
ATOM      9  N   UNL     1     -10.189  10.657  16.591  0.00  0.00    -0.266 N 
ATOM     24  C   UNL     1     -10.982  10.304  17.687  0.00  0.00    +0.308 C 
ATOM     35  H   UNL     1     -10.823   8.371  16.959  0.00  0.00    +0.157 HD
ATOM     36  H   UNL     1      -9.813   9.892  16.036  0.00  0.00    +0.156 HD
BRANCH   9  28
ATOM     28  C   UNL     1      -9.844  11.955  16.150  0.00  0.00    +0.077 A 
ATOM     29  C   UNL     1     -10.602  12.582  15.173  0.00  0.00    +0.141 A 
ATOM     30  C   UNL     1      -8.740  12.579  16.714  0.00  0.00    +0.027 A 
ATOM     31  C   UNL     1     -10.249  13.863  14.750  0.00  0.00    +0.047 A 
ATOM     32  C   UNL     1      -8.387  13.860  16.290  0.00  0.00    +0.002 A 
ATOM     33  C   UNL     1      -9.142  14.502  15.307  0.00  0.00    +0.004 A 
BRANCH  29   4
ATOM      4  O   UNL     1     -11.687  11.974  14.615  0.00  0.00    -0.493 OA
ATOM     34  C   UNL     1     -12.970  12.396  15.069  0.00  0.00    +0.277 C 
ENDBRANCH  29   4
ENDBRANCH   9  28
ENDBRANCH  20   7
BRANCH  19  22
ATOM      8  N   UNL     1     -14.349  10.568  24.172  0.00  0.00    -0.250 NA
ATOM     22  C   UNL     1     -14.197  10.299  22.859  0.00  0.00    +0.126 A 
ATOM     23  C   UNL     1     -13.039  10.531  22.140  0.00  0.00    +0.033 A 
ATOM     25  C   UNL     1     -11.957  11.078  22.819  0.00  0.00    +0.004 A 
ATOM     26  C   UNL     1     -13.275  11.099  24.798  0.00  0.00    +0.111 A 
ATOM     27  C   UNL     1     -12.069  11.371  24.174  0.00  0.00    +0.020 A 
ENDBRANCH  19  22
TORSDOF 4
ENDMDL
MODEL 7
REMARK VINA RESULT:      -6.7     14.351     15.986
REMARK  Name = 11885915
REMARK  5 active torsions:
REMARK  status: ('A' for Active; 'I' for Inactive)
REMARK    1  A    between atoms: O_4  and  C_29
REMARK    2  A    between atoms: O_4  and  C_34
REMARK    3  A    between atoms: N_7  and  C_20
REMARK    4  A    between atoms: N_9  and  C_28
REMARK    5  A    between atoms: C_19  and  C_22
REMARK                            x       y       z     vdW  Elec       q    Type
REMARK                         _______ _______ _______ _____ _____    ______ ____
ROOT
ATOM      1  O   UNL     1      13.983   6.590   7.347  0.00  0.00    -0.266 OA
ATOM      2  O   UNL     1      10.900   4.396   3.819  0.00  0.00    -0.268 OA
ATOM      5  N   UNL     1       9.612   5.925   5.035  0.00  0.00    -0.295 N 
ATOM      6  N   UNL     1      11.766   7.223   6.967  0.00  0.00    -0.310 N 
ATOM     10  C   UNL     1       9.780   5.699   7.508  0.00  0.00    +0.027 C 
ATOM     11  C   UNL     1       9.387   7.913   6.506  0.00  0.00    +0.054 C 
ATOM     12  C   UNL     1       9.006   7.002   7.672  0.00  0.00    +0.018 C 
ATOM     13  C   UNL     1       9.418   5.025   6.171  0.00  0.00    +0.113 C 
ATOM     14  C   UNL     1      11.280   5.998   7.617  0.00  0.00    +0.130 C 
ATOM     15  C   UNL     1       8.981   7.247   5.175  0.00  0.00    +0.117 C 
ATOM     16  C   UNL     1      10.877   8.197   6.500  0.00  0.00    +0.027 A 
ATOM     17  C   UNL     1      11.343   9.360   6.016  0.00  0.00    +0.024 A 
ATOM     18  C   UNL     1      13.163   7.411   6.932  0.00  0.00    +0.273 A 
ATOM     19  C   UNL     1      10.370   5.499   3.942  0.00  0.00    +0.265 C 
ATOM     20  C   UNL     1      13.642   8.708   6.360  0.00  0.00    +0.100 A 
ATOM     21  C   UNL     1      12.754   9.618   5.944  0.00  0.00    +0.030 A 
ENDROOT
BRANCH  20   7
ATOM      3  O   UNL     1      15.415   7.608   4.427  0.00  0.00    -0.252 OA
ATOM      7  N   UNL     1      14.987   8.920   6.291  0.00  0.00    -0.265 N 
ATOM      9  N   UNL     1      17.142   8.763   5.517  0.00  0.00    -0.266 N 
ATOM     24  C   UNL     1      15.820   8.353   5.316  0.00  0.00    +0.308 C 
ATOM     35  H   UNL     1      15.436   9.302   7.117  0.00  0.00    +0.157 HD
ATOM     36  H   UNL     1      17.312   9.384   6.305  0.00  0.00    +0.156 HD
BRANCH   9  28
ATOM     28  C   UNL     1      18.284   8.417   4.758  0.00  0.00    +0.077 A 
ATOM     29  C   UNL     1      19.467   8.080   5.397  0.00  0.00    +0.141 A 
ATOM     30  C   UNL     1      18.191   8.424   3.374  0.00  0.00    +0.027 A 
ATOM     31  C   UNL     1      20.584   7.741   4.635  0.00  0.00    +0.047 A 
ATOM     32  C   UNL     1      19.308   8.086   2.611  0.00  0.00    +0.002 A 
ATOM     33  C   UNL     1      20.505   7.744   3.242  0.00  0.00    +0.004 A 
BRANCH  29   4
ATOM      4  O   UNL     1      19.564   8.072   6.757  0.00  0.00    -0.493 OA
ATOM     34  C   UNL     1      20.563   8.906   7.339  0.00  0.00    +0.277 C 
ENDBRANCH  29   4
ENDBRANCH   9  28
ENDBRANCH  20   7
BRANCH  19  22
ATOM      8  N   UNL     1      11.567   7.346   3.032  0.00  0.00    -0.250 NA
ATOM     22  C   UNL     1      10.581   6.446   2.841  0.00  0.00    +0.126 A 
ATOM     23  C   UNL     1       9.792   6.375   1.708  0.00  0.00    +0.033 A 
ATOM     25  C   UNL     1      10.032   7.297   0.696  0.00  0.00    +0.004 A 
ATOM     26  C   UNL     1      11.772   8.225   2.026  0.00  0.00    +0.111 A 
ATOM     27  C   UNL     1      11.040   8.243   0.850  0.00  0.00    +0.020 A 
ENDBRANCH  19  22
TORSDOF 4
ENDMDL
MODEL 8
REMARK VINA RESULT:      -6.6     13.037     15.050
REMARK  Name = 11885915
REMARK  5 active torsions:
REMARK  status: ('A' for Active; 'I' for Inactive)
REMARK    1  A    between atoms: O_4  and  C_29
REMARK    2  A    between atoms: O_4  and  C_34
REMARK    3  A    between atoms: N_7  and  C_20
REMARK    4  A    between atoms: N_9  and  C_28
REMARK    5  A    between atoms: C_19  and  C_22
REMARK                            x       y       z     vdW  Elec       q    Type
REMARK                         _______ _______ _______ _____ _____    ______ ____
ROOT
ATOM      1  O   UNL     1      12.716   7.402   3.654  0.00  0.00    -0.266 OA
ATOM      2  O   UNL     1       9.395  11.053   5.206  0.00  0.00    -0.268 OA
ATOM      5  N   UNL     1       8.694   9.019   6.123  0.00  0.00    -0.295 N 
ATOM      6  N   UNL     1      10.976   7.034   5.168  0.00  0.00    -0.310 N 
ATOM     10  C   UNL     1       8.507   7.146   4.495  0.00  0.00    +0.027 C 
ATOM     11  C   UNL     1       9.118   6.677   6.834  0.00  0.00    +0.054 C 
ATOM     12  C   UNL     1       8.293   6.174   5.649  0.00  0.00    +0.018 C 
ATOM     13  C   UNL     1       8.048   8.561   4.894  0.00  0.00    +0.113 C 
ATOM     14  C   UNL     1       9.984   7.112   4.086  0.00  0.00    +0.130 C 
ATOM     15  C   UNL     1       8.621   8.076   7.252  0.00  0.00    +0.117 C 
ATOM     16  C   UNL     1      10.593   6.744   6.483  0.00  0.00    +0.027 A 
ATOM     17  C   UNL     1      11.524   6.562   7.434  0.00  0.00    +0.024 A 
ATOM     18  C   UNL     1      12.329   7.164   4.799  0.00  0.00    +0.273 A 
ATOM     19  C   UNL     1       9.331  10.262   6.144  0.00  0.00    +0.265 C 
ATOM     20  C   UNL     1      13.334   6.982   5.893  0.00  0.00    +0.100 A 
ATOM     21  C   UNL     1      12.922   6.685   7.131  0.00  0.00    +0.030 A 
ENDROOT
BRANCH  20   7
ATOM      3  O   UNL     1      14.981   9.217   6.513  0.00  0.00    -0.252 OA
ATOM      7  N   UNL     1      14.654   7.119   5.580  0.00  0.00    -0.265 N 
ATOM      9  N   UNL     1      16.736   8.078   5.449  0.00  0.00    -0.266 N 
ATOM     24  C   UNL     1      15.425   8.244   5.908  0.00  0.00    +0.308 C 
ATOM     35  H   UNL     1      15.027   6.494   4.871  0.00  0.00    +0.157 HD
ATOM     36  H   UNL     1      16.942   7.209   4.963  0.00  0.00    +0.156 HD
BRANCH   9  28
ATOM     28  C   UNL     1      17.820   8.976   5.576  0.00  0.00    +0.077 A 
ATOM     29  C   UNL     1      17.944  10.044   4.700  0.00  0.00    +0.141 A 
ATOM     30  C   UNL     1      18.746   8.764   6.586  0.00  0.00    +0.027 A 
ATOM     31  C   UNL     1      19.018  10.921   4.838  0.00  0.00    +0.047 A 
ATOM     32  C   UNL     1      19.822   9.642   6.724  0.00  0.00    +0.002 A 
ATOM     33  C   UNL     1      19.957  10.721   5.850  0.00  0.00    +0.004 A 
BRANCH  29   4
ATOM      4  O   UNL     1      17.037  10.256   3.704  0.00  0.00    -0.493 OA
ATOM     34  C   UNL     1      16.160  11.370   3.855  0.00  0.00    +0.277 C 
ENDBRANCH  29   4
ENDBRANCH   9  28
ENDBRANCH  20   7
BRANCH  19  22
ATOM      8  N   UNL     1       9.226  11.280   8.294  0.00  0.00    -0.250 NA
ATOM     22  C   UNL     1      10.007  10.667   7.381  0.00  0.00    +0.126 A 
ATOM     23  C   UNL     1      11.356  10.414   7.547  0.00  0.00    +0.033 A 
ATOM     25  C   UNL     1      11.947  10.819   8.737  0.00  0.00    +0.004 A 
ATOM     26  C   UNL     1       9.836  11.660   9.440  0.00  0.00    +0.111 A 
ATOM     27  C   UNL     1      11.180  11.455   9.707  0.00  0.00    +0.020 A 
ENDBRANCH  19  22
TORSDOF 4
ENDMDL
MODEL 9
REMARK VINA RESULT:      -6.6     15.202     17.704
REMARK  Name = 11885915
REMARK  5 active torsions:
REMARK  status: ('A' for Active; 'I' for Inactive)
REMARK    1  A    between atoms: O_4  and  C_29
REMARK    2  A    between atoms: O_4  and  C_34
REMARK    3  A    between atoms: N_7  and  C_20
REMARK    4  A    between atoms: N_9  and  C_28
REMARK    5  A    between atoms: C_19  and  C_22
REMARK                            x       y       z     vdW  Elec       q    Type
REMARK                         _______ _______ _______ _____ _____    ______ ____
ROOT
ATOM      1  O   UNL     1       9.034   7.822   3.634  0.00  0.00    -0.266 OA
ATOM      2  O   UNL     1      12.576  11.491   4.503  0.00  0.00    -0.268 OA
ATOM      5  N   UNL     1      11.770  10.776   6.580  0.00  0.00    -0.295 N 
ATOM      6  N   UNL     1       9.784   8.445   5.757  0.00  0.00    -0.310 N 
ATOM     10  C   UNL     1       9.291  10.740   6.783  0.00  0.00    +0.027 C 
ATOM     11  C   UNL     1      10.644   9.106   8.032  0.00  0.00    +0.054 C 
ATOM     12  C   UNL     1       9.418  10.014   8.117  0.00  0.00    +0.018 C 
ATOM     13  C   UNL     1      10.551  11.580   6.507  0.00  0.00    +0.113 C 
ATOM     14  C   UNL     1       9.033   9.705   5.680  0.00  0.00    +0.130 C 
ATOM     15  C   UNL     1      11.905   9.962   7.799  0.00  0.00    +0.117 C 
ATOM     16  C   UNL     1      10.498   8.096   6.909  0.00  0.00    +0.027 A 
ATOM     17  C   UNL     1      11.081   6.890   7.004  0.00  0.00    +0.024 A 
ATOM     18  C   UNL     1       9.665   7.567   4.661  0.00  0.00    +0.273 A 
ATOM     19  C   UNL     1      12.684  10.814   5.523  0.00  0.00    +0.265 C 
ATOM     20  C   UNL     1      10.352   6.244   4.795  0.00  0.00    +0.100 A 
ATOM     21  C   UNL     1      11.006   5.947   5.924  0.00  0.00    +0.030 A 
ENDROOT
BRANCH  20   7
ATOM      3  O   UNL     1      11.974   6.289   2.459  0.00  0.00    -0.252 OA
ATOM      7  N   UNL     1      10.277   5.375   3.748  0.00  0.00    -0.265 N 
ATOM      9  N   UNL     1      10.775   4.409   1.726  0.00  0.00    -0.266 N 
ATOM     24  C   UNL     1      11.100   5.439   2.615  0.00  0.00    +0.308 C 
ATOM     35  H   UNL     1       9.433   4.814   3.675  0.00  0.00    +0.157 HD
ATOM     36  H   UNL     1      10.021   3.787   2.005  0.00  0.00    +0.156 HD
BRANCH   9  28
ATOM     28  C   UNL     1      11.365   4.125   0.473  0.00  0.00    +0.077 A 
ATOM     29  C   UNL     1      12.586   3.471   0.413  0.00  0.00    +0.141 A 
ATOM     30  C   UNL     1      10.699   4.512  -0.681  0.00  0.00    +0.027 A 
ATOM     31  C   UNL     1      13.155   3.197  -0.830  0.00  0.00    +0.047 A 
ATOM     32  C   UNL     1      11.269   4.239  -1.924  0.00  0.00    +0.002 A 
ATOM     33  C   UNL     1      12.497   3.581  -1.999  0.00  0.00    +0.004 A 
BRANCH  29   4
ATOM      4  O   UNL     1      13.246   3.089   1.543  0.00  0.00    -0.493 OA
ATOM     34  C   UNL     1      14.573   3.579   1.715  0.00  0.00    +0.277 C 
ENDBRANCH  29   4
ENDBRANCH   9  28
ENDBRANCH  20   7
BRANCH  19  22
ATOM      8  N   UNL     1      14.972  10.548   6.126  0.00  0.00    -0.250 NA
ATOM     22  C   UNL     1      13.873   9.959   5.612  0.00  0.00    +0.126 A 
ATOM     23  C   UNL     1      13.815   8.647   5.181  0.00  0.00    +0.033 A 
ATOM     25  C   UNL     1      14.970   7.882   5.287  0.00  0.00    +0.004 A 
ATOM     26  C   UNL     1      16.076   9.772   6.214  0.00  0.00    +0.111 A 
ATOM     27  C   UNL     1      16.127   8.447   5.812  0.00  0.00    +0.020 A 
ENDBRANCH  19  22
TORSDOF 4
ENDMDL
MODEL 10
REMARK VINA RESULT:      -6.6     28.834     33.131
REMARK  Name = 11885915
REMARK  5 active torsions:
REMARK  status: ('A' for Active; 'I' for Inactive)
REMARK    1  A    between atoms: O_4  and  C_29
REMARK    2  A    between atoms: O_4  and  C_34
REMARK    3  A    between atoms: N_7  and  C_20
REMARK    4  A    between atoms: N_9  and  C_28
REMARK    5  A    between atoms: C_19  and  C_22
REMARK                            x       y       z     vdW  Elec       q    Type
REMARK                         _______ _______ _______ _____ _____    ______ ____
ROOT
ATOM      1  O   UNL     1     -11.047  -8.889  18.213  0.00  0.00    -0.266 OA
ATOM      2  O   UNL     1      -6.631 -10.706  20.203  0.00  0.00    -0.268 OA
ATOM      5  N   UNL     1      -7.593 -12.416  18.928  0.00  0.00    -0.295 N 
ATOM      6  N   UNL     1     -10.146 -10.984  17.708  0.00  0.00    -0.310 N 
ATOM     10  C   UNL     1      -9.986 -12.874  19.430  0.00  0.00    +0.027 C 
ATOM     11  C   UNL     1      -9.127 -13.220  17.148  0.00  0.00    +0.054 C 
ATOM     12  C   UNL     1     -10.057 -13.795  18.216  0.00  0.00    +0.018 C 
ATOM     13  C   UNL     1      -8.545 -12.805  19.967  0.00  0.00    +0.113 C 
ATOM     14  C   UNL     1     -10.523 -11.493  19.034  0.00  0.00    +0.130 C 
ATOM     15  C   UNL     1      -7.680 -13.195  17.682  0.00  0.00    +0.117 C 
ATOM     16  C   UNL     1      -9.549 -11.817  16.755  0.00  0.00    +0.027 A 
ATOM     17  C   UNL     1      -9.319 -11.364  15.511  0.00  0.00    +0.024 A 
ATOM     18  C   UNL     1     -10.505  -9.654  17.414  0.00  0.00    +0.273 A 
ATOM     19  C   UNL     1      -6.709 -11.360  19.165  0.00  0.00    +0.265 C 
ATOM     20  C   UNL     1     -10.207  -9.179  16.026  0.00  0.00    +0.100 A 
ATOM     21  C   UNL     1      -9.654 -10.018  15.142  0.00  0.00    +0.030 A 
ENDROOT
BRANCH  20   7
ATOM      3  O   UNL     1     -12.233  -8.350  14.210  0.00  0.00    -0.252 OA
ATOM      7  N   UNL     1     -10.523  -7.892  15.708  0.00  0.00    -0.265 N 
ATOM      9  N   UNL     1     -11.608  -6.141  14.695  0.00  0.00    -0.266 N 
ATOM     24  C   UNL     1     -11.532  -7.533  14.804  0.00  0.00    +0.308 C 
ATOM     35  H   UNL     1      -9.841  -7.177  15.946  0.00  0.00    +0.157 HD
ATOM     36  H   UNL     1     -10.952  -5.604  15.257  0.00  0.00    +0.156 HD
BRANCH   9  28
ATOM     28  C   UNL     1     -12.488  -5.378  13.893  0.00  0.00    +0.077 A 
ATOM     29  C   UNL     1     -13.853  -5.413  14.134  0.00  0.00    +0.141 A 
ATOM     30  C   UNL     1     -11.957  -4.605  12.872  0.00  0.00    +0.027 A 
ATOM     31  C   UNL     1     -14.708  -4.655  13.335  0.00  0.00    +0.047 A 
ATOM     32  C   UNL     1     -12.813  -3.847  12.072  0.00  0.00    +0.002 A 
ATOM     33  C   UNL     1     -14.189  -3.873  12.304  0.00  0.00    +0.004 A 
BRANCH  29   4
ATOM      4  O   UNL     1     -14.380  -6.172  15.136  0.00  0.00    -0.493 OA
ATOM     34  C   UNL     1     -15.588  -6.873  14.850  0.00  0.00    +0.277 C 
ENDBRANCH  29   4
ENDBRANCH   9  28
ENDBRANCH  20   7
BRANCH  19  22
ATOM      8  N   UNL     1      -4.559 -11.496  18.149  0.00  0.00    -0.250 NA
ATOM     22  C   UNL     1      -5.799 -10.970  18.082  0.00  0.00    +0.126 A 
ATOM     23  C   UNL     1      -6.236 -10.116  17.087  0.00  0.00    +0.033 A 
ATOM     25  C   UNL     1      -5.333  -9.777  16.086  0.00  0.00    +0.004 A 
ATOM     26  C   UNL     1      -3.710 -11.144  17.158  0.00  0.00    +0.111 A 
ATOM     27  C   UNL     1      -4.044 -10.297  16.114  0.00  0.00    +0.020 A 
ENDBRANCH  19  22
TORSDOF 4
ENDMDL
