MODEL 1
REMARK VINA RESULT:      -7.7      0.000      0.000
REMARK  Name = 7144202
REMARK  5 active torsions:
REMARK  status: ('A' for Active; 'I' for Inactive)
REMARK    1  A    between atoms: S_1  and  N_9
REMARK    2  A    between atoms: S_1  and  C_22
REMARK    3  A    between atoms: O_8  and  C_32
REMARK    4  A    between atoms: O_8  and  C_34
REMARK    5  A    between atoms: C_18  and  C_23
REMARK                            x       y       z     vdW  Elec       q    Type
REMARK                         _______ _______ _______ _____ _____    ______ ____
ROOT
ATOM      7  O   UNL     1      11.252   8.176  17.095  0.00  0.00    -0.268 OA
ATOM      9  N   UNL     1      12.208  10.406  21.413  0.00  0.00    -0.176 NA
ATOM     10  N   UNL     1      12.233   8.144  19.222  0.00  0.00    -0.311 N 
ATOM     11  C   UNL     1      10.822   8.338  21.355  0.00  0.00    +0.025 C 
ATOM     12  C   UNL     1      13.265   8.155  21.515  0.00  0.00    +0.053 C 
ATOM     13  C   UNL     1      11.950   7.548  21.998  0.00  0.00    +0.017 C 
ATOM     14  C   UNL     1      10.886   9.817  21.765  0.00  0.00    +0.114 C 
ATOM     15  C   UNL     1      13.349   9.625  21.973  0.00  0.00    +0.119 C 
ATOM     16  C   UNL     1      10.899   8.152  19.839  0.00  0.00    +0.130 C 
ATOM     17  C   UNL     1      13.408   8.051  19.994  0.00  0.00    +0.034 A 
ATOM     18  C   UNL     1      14.610   7.899  19.379  0.00  0.00    +0.002 A 
ATOM     19  C   UNL     1      12.250   8.114  17.816  0.00  0.00    +0.252 A 
ATOM     20  C   UNL     1      14.667   7.869  17.930  0.00  0.00    +0.015 A 
ATOM     21  C   UNL     1      13.576   7.981  17.173  0.00  0.00    +0.071 A 
ENDROOT
BRANCH  18  23
ATOM     23  C   UNL     1      15.869   7.777  20.147  0.00  0.00    -0.016 A 
ATOM     26  C   UNL     1      16.320   6.521  20.540  0.00  0.00    +0.012 A 
ATOM     27  C   UNL     1      16.592   8.921  20.473  0.00  0.00    +0.012 A 
ATOM     28  C   UNL     1      17.506   6.408  21.265  0.00  0.00    +0.046 A 
ATOM     29  C   UNL     1      17.777   8.808  21.198  0.00  0.00    +0.046 A 
ATOM     32  C   UNL     1      18.235   7.550  21.594  0.00  0.00    +0.130 A 
BRANCH  32   8
ATOM      8  O   UNL     1      19.392   7.438  22.302  0.00  0.00    -0.406 OA
BRANCH   8  34
ATOM      2  F   UNL     1      20.796   5.666  21.965  0.00  0.00    -0.133 F 
ATOM      3  F   UNL     1      21.615   7.691  22.007  0.00  0.00    -0.133 F 
ATOM      4  F   UNL     1      20.416   7.059  20.292  0.00  0.00    -0.133 F 
ATOM     34  C   UNL     1      20.549   6.950  21.631  0.00  0.00    +0.575 C 
ENDBRANCH   8  34
ENDBRANCH  32   8
ENDBRANCH  18  23
BRANCH   9   1
ATOM      1  S   UNL     1      12.328  12.105  21.568  0.00  0.00    +0.061 S 
ATOM      5  O   UNL     1      13.361  12.422  22.531  0.00  0.00    -0.153 OA
ATOM      6  O   UNL     1      10.997  12.663  21.693  0.00  0.00    -0.153 OA
BRANCH   1  22
ATOM     22  C   UNL     1      12.941  12.519  19.964  0.00  0.00    +0.105 A 
ATOM     24  C   UNL     1      12.883  13.834  19.535  0.00  0.00    +0.028 A 
ATOM     25  C   UNL     1      13.469  11.520  19.163  0.00  0.00    +0.028 A 
ATOM     30  C   UNL     1      13.366  14.161  18.268  0.00  0.00    +0.002 A 
ATOM     31  C   UNL     1      13.952  11.847  17.895  0.00  0.00    +0.002 A 
ATOM     33  C   UNL     1      13.900  13.167  17.448  0.00  0.00    +0.000 A 
ENDBRANCH   1  22
ENDBRANCH   9   1
TORSDOF 5
ENDMDL
MODEL 2
REMARK VINA RESULT:      -7.4      1.837      2.933
REMARK  Name = 7144202
REMARK  5 active torsions:
REMARK  status: ('A' for Active; 'I' for Inactive)
REMARK    1  A    between atoms: S_1  and  N_9
REMARK    2  A    between atoms: S_1  and  C_22
REMARK    3  A    between atoms: O_8  and  C_32
REMARK    4  A    between atoms: O_8  and  C_34
REMARK    5  A    between atoms: C_18  and  C_23
REMARK                            x       y       z     vdW  Elec       q    Type
REMARK                         _______ _______ _______ _____ _____    ______ ____
ROOT
ATOM      7  O   UNL     1      11.206   8.183  17.159  0.00  0.00    -0.268 OA
ATOM      9  N   UNL     1      12.425  10.549  21.337  0.00  0.00    -0.176 NA
ATOM     10  N   UNL     1      12.248   8.190  19.257  0.00  0.00    -0.311 N 
ATOM     11  C   UNL     1      10.917   8.569  21.417  0.00  0.00    +0.025 C 
ATOM     12  C   UNL     1      13.348   8.245  21.517  0.00  0.00    +0.053 C 
ATOM     13  C   UNL     1      12.015   7.742  22.065  0.00  0.00    +0.017 C 
ATOM     14  C   UNL     1      11.082  10.058  21.753  0.00  0.00    +0.114 C 
ATOM     15  C   UNL     1      13.534   9.726  21.902  0.00  0.00    +0.119 C 
ATOM     16  C   UNL     1      10.936   8.308  19.910  0.00  0.00    +0.130 C 
ATOM     17  C   UNL     1      13.439   8.062  20.000  0.00  0.00    +0.034 A 
ATOM     18  C   UNL     1      14.610   7.808  19.359  0.00  0.00    +0.002 A 
ATOM     19  C   UNL     1      12.219   8.094  17.854  0.00  0.00    +0.252 A 
ATOM     20  C   UNL     1      14.620   7.708  17.913  0.00  0.00    +0.015 A 
ATOM     21  C   UNL     1      13.515   7.851  17.182  0.00  0.00    +0.071 A 
ENDROOT
BRANCH  18  23
ATOM     23  C   UNL     1      15.882   7.646  20.097  0.00  0.00    -0.016 A 
ATOM     26  C   UNL     1      16.590   8.771  20.510  0.00  0.00    +0.012 A 
ATOM     27  C   UNL     1      16.363   6.370  20.373  0.00  0.00    +0.012 A 
ATOM     28  C   UNL     1      17.790   8.618  21.204  0.00  0.00    +0.046 A 
ATOM     29  C   UNL     1      17.562   6.216  21.068  0.00  0.00    +0.046 A 
ATOM     32  C   UNL     1      18.276   7.341  21.484  0.00  0.00    +0.130 A 
BRANCH  32   8
ATOM      8  O   UNL     1      19.446   7.192  22.161  0.00  0.00    -0.406 OA
BRANCH   8  34
ATOM      2  F   UNL     1      21.082   8.511  21.259  0.00  0.00    -0.133 F 
ATOM      3  F   UNL     1      20.450   6.709  20.199  0.00  0.00    -0.133 F 
ATOM      4  F   UNL     1      21.627   6.513  22.030  0.00  0.00    -0.133 F 
ATOM     34  C   UNL     1      20.663   7.238  21.424  0.00  0.00    +0.575 C 
ENDBRANCH   8  34
ENDBRANCH  32   8
ENDBRANCH  18  23
BRANCH   9   1
ATOM      1  S   UNL     1      12.650  12.243  21.406  0.00  0.00    +0.061 S 
ATOM      5  O   UNL     1      11.882  12.867  20.349  0.00  0.00    -0.153 OA
ATOM      6  O   UNL     1      14.062  12.525  21.565  0.00  0.00    -0.153 OA
BRANCH   1  22
ATOM     22  C   UNL     1      11.849  12.600  22.938  0.00  0.00    +0.105 A 
ATOM     24  C   UNL     1      10.660  13.308  22.932  0.00  0.00    +0.028 A 
ATOM     25  C   UNL     1      12.424  12.165  24.121  0.00  0.00    +0.028 A 
ATOM     30  C   UNL     1      10.027  13.591  24.142  0.00  0.00    +0.002 A 
ATOM     31  C   UNL     1      11.792  12.449  25.332  0.00  0.00    +0.002 A 
ATOM     33  C   UNL     1      10.593  13.162  25.342  0.00  0.00    +0.000 A 
ENDBRANCH   1  22
ENDBRANCH   9   1
TORSDOF 5
ENDMDL
MODEL 3
REMARK VINA RESULT:      -7.1     15.923     19.013
REMARK  Name = 7144202
REMARK  5 active torsions:
REMARK  status: ('A' for Active; 'I' for Inactive)
REMARK    1  A    between atoms: S_1  and  N_9
REMARK    2  A    between atoms: S_1  and  C_22
REMARK    3  A    between atoms: O_8  and  C_32
REMARK    4  A    between atoms: O_8  and  C_34
REMARK    5  A    between atoms: C_18  and  C_23
REMARK                            x       y       z     vdW  Elec       q    Type
REMARK                         _______ _______ _______ _____ _____    ______ ____
ROOT
ATOM      7  O   UNL     1       9.328   9.185   0.044  0.00  0.00    -0.268 OA
ATOM      9  N   UNL     1      12.690   5.733   1.189  0.00  0.00    -0.176 NA
ATOM     10  N   UNL     1      10.850   8.262   1.566  0.00  0.00    -0.311 N 
ATOM     11  C   UNL     1      13.357   8.128   1.044  0.00  0.00    +0.025 C 
ATOM     12  C   UNL     1      12.498   7.236   3.163  0.00  0.00    +0.053 C 
ATOM     13  C   UNL     1      13.526   8.186   2.553  0.00  0.00    +0.017 C 
ATOM     14  C   UNL     1      13.600   6.704   0.520  0.00  0.00    +0.114 C 
ATOM     15  C   UNL     1      12.777   5.800   2.677  0.00  0.00    +0.119 C 
ATOM     16  C   UNL     1      11.964   8.647   0.688  0.00  0.00    +0.130 C 
ATOM     17  C   UNL     1      11.067   7.658   2.821  0.00  0.00    +0.034 A 
ATOM     18  C   UNL     1      10.019   7.452   3.661  0.00  0.00    +0.002 A 
ATOM     19  C   UNL     1       9.570   8.642   1.123  0.00  0.00    +0.252 A 
ATOM     20  C   UNL     1       8.685   7.827   3.236  0.00  0.00    +0.015 A 
ATOM     21  C   UNL     1       8.444   8.375   2.045  0.00  0.00    +0.071 A 
ENDROOT
BRANCH  18  23
ATOM     23  C   UNL     1      10.201   6.841   4.996  0.00  0.00    -0.016 A 
ATOM     26  C   UNL     1       9.949   5.484   5.174  0.00  0.00    +0.012 A 
ATOM     27  C   UNL     1      10.620   7.627   6.065  0.00  0.00    +0.012 A 
ATOM     28  C   UNL     1      10.119   4.908   6.433  0.00  0.00    +0.046 A 
ATOM     29  C   UNL     1      10.790   7.051   7.324  0.00  0.00    +0.046 A 
ATOM     32  C   UNL     1      10.540   5.690   7.508  0.00  0.00    +0.130 A 
BRANCH  32   8
ATOM      8  O   UNL     1      10.705   5.128   8.736  0.00  0.00    -0.406 OA
BRANCH   8  34
ATOM      2  F   UNL     1       9.040   3.590   9.040  0.00  0.00    -0.133 F 
ATOM      3  F   UNL     1       8.598   5.714   9.291  0.00  0.00    -0.133 F 
ATOM      4  F   UNL     1       9.810   4.691  10.795  0.00  0.00    -0.133 F 
ATOM     34  C   UNL     1       9.543   4.765   9.474  0.00  0.00    +0.575 C 
ENDBRANCH   8  34
ENDBRANCH  32   8
ENDBRANCH  18  23
BRANCH   9   1
ATOM      1  S   UNL     1      12.661   4.159   0.519  0.00  0.00    +0.061 S 
ATOM      5  O   UNL     1      12.144   3.234   1.505  0.00  0.00    -0.153 OA
ATOM      6  O   UNL     1      13.922   3.908  -0.149  0.00  0.00    -0.153 OA
BRANCH   1  22
ATOM     22  C   UNL     1      11.423   4.374  -0.721  0.00  0.00    +0.105 A 
ATOM     24  C   UNL     1      10.406   5.289  -0.512  0.00  0.00    +0.028 A 
ATOM     25  C   UNL     1      11.490   3.622  -1.882  0.00  0.00    +0.028 A 
ATOM     30  C   UNL     1       9.427   5.459  -1.491  0.00  0.00    +0.002 A 
ATOM     31  C   UNL     1      10.511   3.790  -2.861  0.00  0.00    +0.002 A 
ATOM     33  C   UNL     1       9.479   4.708  -2.666  0.00  0.00    +0.000 A 
ENDBRANCH   1  22
ENDBRANCH   9   1
TORSDOF 5
ENDMDL
MODEL 4
REMARK VINA RESULT:      -7.1      1.725      4.717
REMARK  Name = 7144202
REMARK  5 active torsions:
REMARK  status: ('A' for Active; 'I' for Inactive)
REMARK    1  A    between atoms: S_1  and  N_9
REMARK    2  A    between atoms: S_1  and  C_22
REMARK    3  A    between atoms: O_8  and  C_32
REMARK    4  A    between atoms: O_8  and  C_34
REMARK    5  A    between atoms: C_18  and  C_23
REMARK                            x       y       z     vdW  Elec       q    Type
REMARK                         _______ _______ _______ _____ _____    ______ ____
ROOT
ATOM      7  O   UNL     1      12.446  12.596  22.080  0.00  0.00    -0.268 OA
ATOM      9  N   UNL     1      13.375   9.590  18.255  0.00  0.00    -0.176 NA
ATOM     10  N   UNL     1      13.974  11.560  20.639  0.00  0.00    -0.311 N 
ATOM     11  C   UNL     1      13.954  12.008  18.113  0.00  0.00    +0.025 C 
ATOM     12  C   UNL     1      15.574  10.428  19.064  0.00  0.00    +0.053 C 
ATOM     13  C   UNL     1      15.434  11.672  18.190  0.00  0.00    +0.017 C 
ATOM     14  C   UNL     1      13.161  10.850  17.490  0.00  0.00    +0.114 C 
ATOM     15  C   UNL     1      14.821   9.254  18.409  0.00  0.00    +0.119 C 
ATOM     16  C   UNL     1      13.460  12.360  19.517  0.00  0.00    +0.130 C 
ATOM     17  C   UNL     1      15.062  10.677  20.485  0.00  0.00    +0.034 A 
ATOM     18  C   UNL     1      15.597  10.069  21.576  0.00  0.00    +0.002 A 
ATOM     19  C   UNL     1      13.386  11.823  21.889  0.00  0.00    +0.252 A 
ATOM     20  C   UNL     1      15.014  10.313  22.882  0.00  0.00    +0.015 A 
ATOM     21  C   UNL     1      13.969  11.121  23.054  0.00  0.00    +0.071 A 
ENDROOT
BRANCH  18  23
ATOM     23  C   UNL     1      16.751   9.150  21.468  0.00  0.00    -0.016 A 
ATOM     26  C   UNL     1      16.536   7.791  21.261  0.00  0.00    +0.012 A 
ATOM     27  C   UNL     1      18.045   9.651  21.575  0.00  0.00    +0.012 A 
ATOM     28  C   UNL     1      17.624   6.925  21.160  0.00  0.00    +0.046 A 
ATOM     29  C   UNL     1      19.134   8.785  21.474  0.00  0.00    +0.046 A 
ATOM     32  C   UNL     1      18.924   7.422  21.266  0.00  0.00    +0.130 A 
BRANCH  32   8
ATOM      8  O   UNL     1      19.985   6.576  21.167  0.00  0.00    -0.406 OA
BRANCH   8  34
ATOM      2  F   UNL     1      19.921   6.468  23.450  0.00  0.00    -0.133 F 
ATOM      3  F   UNL     1      21.799   6.967  22.452  0.00  0.00    -0.133 F 
ATOM      4  F   UNL     1      21.041   4.920  22.340  0.00  0.00    -0.133 F 
ATOM     34  C   UNL     1      20.676   6.220  22.360  0.00  0.00    +0.575 C 
ENDBRANCH   8  34
ENDBRANCH  32   8
ENDBRANCH  18  23
BRANCH   9   1
ATOM      1  S   UNL     1      12.352   8.284  17.837  0.00  0.00    +0.061 S 
ATOM      5  O   UNL     1      13.157   7.197  17.322  0.00  0.00    -0.153 OA
ATOM      6  O   UNL     1      11.220   8.792  17.090  0.00  0.00    -0.153 OA
BRANCH   1  22
ATOM     22  C   UNL     1      11.778   7.817  19.440  0.00  0.00    +0.105 A 
ATOM     24  C   UNL     1      10.996   8.701  20.164  0.00  0.00    +0.028 A 
ATOM     25  C   UNL     1      12.120   6.574  19.947  0.00  0.00    +0.028 A 
ATOM     30  C   UNL     1      10.543   8.332  21.431  0.00  0.00    +0.002 A 
ATOM     31  C   UNL     1      11.668   6.206  21.214  0.00  0.00    +0.002 A 
ATOM     33  C   UNL     1      10.879   7.085  21.956  0.00  0.00    +0.000 A 
ENDBRANCH   1  22
ENDBRANCH   9   1
TORSDOF 5
ENDMDL
MODEL 5
REMARK VINA RESULT:      -7.0      4.496      6.393
REMARK  Name = 7144202
REMARK  5 active torsions:
REMARK  status: ('A' for Active; 'I' for Inactive)
REMARK    1  A    between atoms: S_1  and  N_9
REMARK    2  A    between atoms: S_1  and  C_22
REMARK    3  A    between atoms: O_8  and  C_32
REMARK    4  A    between atoms: O_8  and  C_34
REMARK    5  A    between atoms: C_18  and  C_23
REMARK                            x       y       z     vdW  Elec       q    Type
REMARK                         _______ _______ _______ _____ _____    ______ ____
ROOT
ATOM      7  O   UNL     1      16.161   6.170  18.800  0.00  0.00    -0.268 OA
ATOM      9  N   UNL     1      14.382  10.653  17.675  0.00  0.00    -0.176 NA
ATOM     10  N   UNL     1      14.431   7.746  18.886  0.00  0.00    -0.311 N 
ATOM     11  C   UNL     1      13.294   8.611  16.756  0.00  0.00    +0.025 C 
ATOM     12  C   UNL     1      12.602   9.469  18.948  0.00  0.00    +0.053 C 
ATOM     13  C   UNL     1      12.093   8.828  17.660  0.00  0.00    +0.017 C 
ATOM     14  C   UNL     1      13.981   9.945  16.428  0.00  0.00    +0.114 C 
ATOM     15  C   UNL     1      13.243  10.833  18.622  0.00  0.00    +0.119 C 
ATOM     16  C   UNL     1      14.243   7.621  17.433  0.00  0.00    +0.130 C 
ATOM     17  C   UNL     1      13.596   8.561  19.676  0.00  0.00    +0.034 A 
ATOM     18  C   UNL     1      13.711   8.534  21.030  0.00  0.00    +0.002 A 
ATOM     19  C   UNL     1      15.417   6.911  19.442  0.00  0.00    +0.252 A 
ATOM     20  C   UNL     1      14.719   7.689  21.639  0.00  0.00    +0.015 A 
ATOM     21  C   UNL     1      15.542   6.928  20.917  0.00  0.00    +0.071 A 
ENDROOT
BRANCH  18  23
ATOM     23  C   UNL     1      12.843   9.356  21.902  0.00  0.00    -0.016 A 
ATOM     26  C   UNL     1      11.584   8.888  22.263  0.00  0.00    +0.012 A 
ATOM     27  C   UNL     1      13.293  10.593  22.354  0.00  0.00    +0.012 A 
ATOM     28  C   UNL     1      10.766   9.665  23.083  0.00  0.00    +0.046 A 
ATOM     29  C   UNL     1      12.476  11.369  23.175  0.00  0.00    +0.046 A 
ATOM     32  C   UNL     1      11.211  10.905  23.540  0.00  0.00    +0.130 A 
BRANCH  32   8
ATOM      8  O   UNL     1      10.413  11.661  24.341  0.00  0.00    -0.406 OA
BRANCH   8  34
ATOM      2  F   UNL     1      12.134  12.174  25.757  0.00  0.00    -0.133 F 
ATOM      3  F   UNL     1      10.153  13.019  26.125  0.00  0.00    -0.133 F 
ATOM      4  F   UNL     1      11.331  13.754  24.438  0.00  0.00    -0.133 F 
ATOM     34  C   UNL     1      11.024  12.655  25.158  0.00  0.00    +0.575 C 
ENDBRANCH   8  34
ENDBRANCH  32   8
ENDBRANCH  18  23
BRANCH   9   1
ATOM      1  S   UNL     1      15.390  12.019  17.462  0.00  0.00    +0.061 S 
ATOM      5  O   UNL     1      14.618  13.220  17.706  0.00  0.00    -0.153 OA
ATOM      6  O   UNL     1      16.150  11.858  16.240  0.00  0.00    -0.153 OA
BRANCH   1  22
ATOM     22  C   UNL     1      16.495  11.803  18.822  0.00  0.00    +0.105 A 
ATOM     24  C   UNL     1      17.640  12.578  18.894  0.00  0.00    +0.028 A 
ATOM     25  C   UNL     1      16.199  10.860  19.793  0.00  0.00    +0.028 A 
ATOM     30  C   UNL     1      18.514  12.406  19.967  0.00  0.00    +0.002 A 
ATOM     31  C   UNL     1      17.073  10.688  20.866  0.00  0.00    +0.002 A 
ATOM     33  C   UNL     1      18.231  11.461  20.953  0.00  0.00    +0.000 A 
ENDBRANCH   1  22
ENDBRANCH   9   1
TORSDOF 5
ENDMDL
MODEL 6
REMARK VINA RESULT:      -6.9     27.681     30.058
REMARK  Name = 7144202
REMARK  5 active torsions:
REMARK  status: ('A' for Active; 'I' for Inactive)
REMARK    1  A    between atoms: S_1  and  N_9
REMARK    2  A    between atoms: S_1  and  C_22
REMARK    3  A    between atoms: O_8  and  C_32
REMARK    4  A    between atoms: O_8  and  C_34
REMARK    5  A    between atoms: C_18  and  C_23
REMARK                            x       y       z     vdW  Elec       q    Type
REMARK                         _______ _______ _______ _____ _____    ______ ____
ROOT
ATOM      7  O   UNL     1      -0.912 -11.958  14.139  0.00  0.00    -0.268 OA
ATOM      9  N   UNL     1      -5.700 -12.468  12.977  0.00  0.00    -0.176 NA
ATOM     10  N   UNL     1      -3.085 -12.606  14.728  0.00  0.00    -0.311 N 
ATOM     11  C   UNL     1      -4.314 -14.476  13.475  0.00  0.00    +0.025 C 
ATOM     12  C   UNL     1      -5.432 -13.291  15.311  0.00  0.00    +0.053 C 
ATOM     13  C   UNL     1      -5.049 -14.674  14.790  0.00  0.00    +0.017 C 
ATOM     14  C   UNL     1      -5.211 -13.771  12.447  0.00  0.00    +0.114 C 
ATOM     15  C   UNL     1      -6.375 -12.607  14.301  0.00  0.00    +0.119 C 
ATOM     16  C   UNL     1      -3.024 -13.701  13.749  0.00  0.00    +0.130 C 
ATOM     17  C   UNL     1      -4.197 -12.425  15.574  0.00  0.00    +0.034 A 
ATOM     18  C   UNL     1      -4.150 -11.494  16.561  0.00  0.00    +0.002 A 
ATOM     19  C   UNL     1      -1.916 -11.831  14.841  0.00  0.00    +0.252 A 
ATOM     20  C   UNL     1      -2.963 -10.673  16.706  0.00  0.00    +0.015 A 
ATOM     21  C   UNL     1      -1.906 -10.801  15.904  0.00  0.00    +0.071 A 
ENDROOT
BRANCH  18  23
ATOM     23  C   UNL     1      -5.284 -11.282  17.487  0.00  0.00    -0.016 A 
ATOM     26  C   UNL     1      -6.201 -10.265  17.235  0.00  0.00    +0.012 A 
ATOM     27  C   UNL     1      -5.427 -12.099  18.603  0.00  0.00    +0.012 A 
ATOM     28  C   UNL     1      -7.270 -10.065  18.108  0.00  0.00    +0.046 A 
ATOM     29  C   UNL     1      -6.496 -11.899  19.477  0.00  0.00    +0.046 A 
ATOM     32  C   UNL     1      -7.418 -10.882  19.229  0.00  0.00    +0.130 A 
BRANCH  32   8
ATOM      8  O   UNL     1      -8.461 -10.686  20.080  0.00  0.00    -0.406 OA
BRANCH   8  34
ATOM      2  F   UNL     1     -10.441  -9.902  19.247  0.00  0.00    -0.133 F 
ATOM      3  F   UNL     1     -10.454 -11.580  20.646  0.00  0.00    -0.133 F 
ATOM      4  F   UNL     1      -9.728 -11.894  18.609  0.00  0.00    -0.133 F 
ATOM     34  C   UNL     1      -9.771 -11.011  19.628  0.00  0.00    +0.575 C 
ENDBRANCH   8  34
ENDBRANCH  32   8
ENDBRANCH  18  23
BRANCH   9   1
ATOM      1  S   UNL     1      -6.488 -11.455  11.847  0.00  0.00    +0.061 S 
ATOM      5  O   UNL     1      -7.326 -10.513  12.558  0.00  0.00    -0.153 OA
ATOM      6  O   UNL     1      -7.026 -12.270  10.778  0.00  0.00    -0.153 OA
BRANCH   1  22
ATOM     22  C   UNL     1      -5.102 -10.568  11.207  0.00  0.00    +0.105 A 
ATOM     24  C   UNL     1      -3.893 -10.624  11.880  0.00  0.00    +0.028 A 
ATOM     25  C   UNL     1      -5.247  -9.831  10.044  0.00  0.00    +0.028 A 
ATOM     30  C   UNL     1      -2.798  -9.922  11.376  0.00  0.00    +0.002 A 
ATOM     31  C   UNL     1      -4.152  -9.129   9.540  0.00  0.00    +0.002 A 
ATOM     33  C   UNL     1      -2.927  -9.175  10.206  0.00  0.00    +0.000 A 
ENDBRANCH   1  22
ENDBRANCH   9   1
TORSDOF 5
ENDMDL
MODEL 7
REMARK VINA RESULT:      -6.8      4.524      7.237
REMARK  Name = 7144202
REMARK  5 active torsions:
REMARK  status: ('A' for Active; 'I' for Inactive)
REMARK    1  A    between atoms: S_1  and  N_9
REMARK    2  A    between atoms: S_1  and  C_22
REMARK    3  A    between atoms: O_8  and  C_32
REMARK    4  A    between atoms: O_8  and  C_34
REMARK    5  A    between atoms: C_18  and  C_23
REMARK                            x       y       z     vdW  Elec       q    Type
REMARK                         _______ _______ _______ _____ _____    ______ ____
ROOT
ATOM      7  O   UNL     1      13.318   8.342  17.192  0.00  0.00    -0.268 OA
ATOM      9  N   UNL     1      15.975  11.326  20.119  0.00  0.00    -0.176 NA
ATOM     10  N   UNL     1      13.467  10.245  18.550  0.00  0.00    -0.311 N 
ATOM     11  C   UNL     1      15.044  12.184  17.975  0.00  0.00    +0.025 C 
ATOM     12  C   UNL     1      13.679  12.278  20.013  0.00  0.00    +0.053 C 
ATOM     13  C   UNL     1      14.040  13.034  18.736  0.00  0.00    +0.017 C 
ATOM     14  C   UNL     1      16.312  11.954  18.811  0.00  0.00    +0.114 C 
ATOM     15  C   UNL     1      14.944  12.095  20.874  0.00  0.00    +0.119 C 
ATOM     16  C   UNL     1      14.368  10.872  17.573  0.00  0.00    +0.130 C 
ATOM     17  C   UNL     1      13.031  10.926  19.704  0.00  0.00    +0.034 A 
ATOM     18  C   UNL     1      12.086  10.365  20.503  0.00  0.00    +0.002 A 
ATOM     19  C   UNL     1      12.982   8.973  18.195  0.00  0.00    +0.252 A 
ATOM     20  C   UNL     1      11.566   9.052  20.171  0.00  0.00    +0.015 A 
ATOM     21  C   UNL     1      11.979   8.372  19.102  0.00  0.00    +0.071 A 
ENDROOT
BRANCH  18  23
ATOM     23  C   UNL     1      11.583  11.050  21.713  0.00  0.00    -0.016 A 
ATOM     26  C   UNL     1      11.524  10.364  22.922  0.00  0.00    +0.012 A 
ATOM     27  C   UNL     1      11.170  12.377  21.634  0.00  0.00    +0.012 A 
ATOM     28  C   UNL     1      11.048  11.010  24.062  0.00  0.00    +0.046 A 
ATOM     29  C   UNL     1      10.694  13.023  22.775  0.00  0.00    +0.046 A 
ATOM     32  C   UNL     1      10.633  12.340  23.990  0.00  0.00    +0.130 A 
BRANCH  32   8
ATOM      8  O   UNL     1      10.169  12.969  25.103  0.00  0.00    -0.406 OA
BRANCH   8  34
ATOM      2  F   UNL     1      10.488  14.296  26.938  0.00  0.00    -0.133 F 
ATOM      3  F   UNL     1      11.262  14.941  24.999  0.00  0.00    -0.133 F 
ATOM      4  F   UNL     1      12.233  13.282  26.038  0.00  0.00    -0.133 F 
ATOM     34  C   UNL     1      11.042  13.864  25.785  0.00  0.00    +0.575 C 
ENDBRANCH   8  34
ENDBRANCH  32   8
ENDBRANCH  18  23
BRANCH   9   1
ATOM      1  S   UNL     1      17.306  10.770  21.039  0.00  0.00    +0.061 S 
ATOM      5  O   UNL     1      17.066  11.054  22.438  0.00  0.00    -0.153 OA
ATOM      6  O   UNL     1      18.533  11.188  20.395  0.00  0.00    -0.153 OA
BRANCH   1  22
ATOM     22  C   UNL     1      17.136   9.028  20.807  0.00  0.00    +0.105 A 
ATOM     24  C   UNL     1      15.968   8.528  20.257  0.00  0.00    +0.028 A 
ATOM     25  C   UNL     1      18.174   8.190  21.179  0.00  0.00    +0.028 A 
ATOM     30  C   UNL     1      15.833   7.152  20.074  0.00  0.00    +0.002 A 
ATOM     31  C   UNL     1      18.039   6.814  20.997  0.00  0.00    +0.002 A 
ATOM     33  C   UNL     1      16.868   6.295  20.444  0.00  0.00    +0.000 A 
ENDBRANCH   1  22
ENDBRANCH   9   1
TORSDOF 5
ENDMDL
MODEL 8
REMARK VINA RESULT:      -6.7     15.485     18.304
REMARK  Name = 7144202
REMARK  5 active torsions:
REMARK  status: ('A' for Active; 'I' for Inactive)
REMARK    1  A    between atoms: S_1  and  N_9
REMARK    2  A    between atoms: S_1  and  C_22
REMARK    3  A    between atoms: O_8  and  C_32
REMARK    4  A    between atoms: O_8  and  C_34
REMARK    5  A    between atoms: C_18  and  C_23
REMARK                            x       y       z     vdW  Elec       q    Type
REMARK                         _______ _______ _______ _____ _____    ______ ____
ROOT
ATOM      7  O   UNL     1       7.145   9.427   5.044  0.00  0.00    -0.268 OA
ATOM      9  N   UNL     1      11.359   6.994   5.967  0.00  0.00    -0.176 NA
ATOM     10  N   UNL     1       8.571   7.614   4.639  0.00  0.00    -0.311 N 
ATOM     11  C   UNL     1       9.166   5.934   6.483  0.00  0.00    +0.025 C 
ATOM     12  C   UNL     1      10.134   5.685   4.242  0.00  0.00    +0.053 C 
ATOM     13  C   UNL     1       9.351   4.959   5.333  0.00  0.00    +0.017 C 
ATOM     14  C   UNL     1      10.523   6.388   7.041  0.00  0.00    +0.114 C 
ATOM     15  C   UNL     1      11.516   6.093   4.788  0.00  0.00    +0.119 C 
ATOM     16  C   UNL     1       8.316   7.109   5.995  0.00  0.00    +0.130 C 
ATOM     17  C   UNL     1       9.373   6.907   3.720  0.00  0.00    +0.034 A 
ATOM     18  C   UNL     1       9.463   7.334   2.434  0.00  0.00    +0.002 A 
ATOM     19  C   UNL     1       7.869   8.781   4.286  0.00  0.00    +0.252 A 
ATOM     20  C   UNL     1       8.757   8.536   2.034  0.00  0.00    +0.015 A 
ATOM     21  C   UNL     1       8.013   9.241   2.887  0.00  0.00    +0.071 A 
ENDROOT
BRANCH  18  23
ATOM     23  C   UNL     1      10.275   6.614   1.429  0.00  0.00    -0.016 A 
ATOM     26  C   UNL     1      11.572   7.038   1.157  0.00  0.00    +0.012 A 
ATOM     27  C   UNL     1       9.737   5.518   0.762  0.00  0.00    +0.012 A 
ATOM     28  C   UNL     1      12.338   6.360   0.208  0.00  0.00    +0.046 A 
ATOM     29  C   UNL     1      10.502   4.839  -0.186  0.00  0.00    +0.046 A 
ATOM     32  C   UNL     1      11.803   5.260  -0.463  0.00  0.00    +0.130 A 
BRANCH  32   8
ATOM      8  O   UNL     1      12.551   4.599  -1.388  0.00  0.00    -0.406 OA
BRANCH   8  34
ATOM      2  F   UNL     1      13.218   3.286   0.362  0.00  0.00    -0.133 F 
ATOM      3  F   UNL     1      14.534   3.522  -1.366  0.00  0.00    -0.133 F 
ATOM      4  F   UNL     1      12.717   2.324  -1.563  0.00  0.00    -0.133 F 
ATOM     34  C   UNL     1      13.242   3.422  -0.980  0.00  0.00    +0.575 C 
ENDBRANCH   8  34
ENDBRANCH  32   8
ENDBRANCH  18  23
BRANCH   9   1
ATOM      1  S   UNL     1      12.784   7.782   6.491  0.00  0.00    +0.061 S 
ATOM      5  O   UNL     1      13.736   6.790   6.942  0.00  0.00    -0.153 OA
ATOM      6  O   UNL     1      12.420   8.902   7.335  0.00  0.00    -0.153 OA
BRANCH   1  22
ATOM     22  C   UNL     1      13.364   8.427   4.953  0.00  0.00    +0.105 A 
ATOM     24  C   UNL     1      14.590   8.011   4.464  0.00  0.00    +0.028 A 
ATOM     25  C   UNL     1      12.583   9.340   4.263  0.00  0.00    +0.028 A 
ATOM     30  C   UNL     1      15.049   8.521   3.250  0.00  0.00    +0.002 A 
ATOM     31  C   UNL     1      13.042   9.850   3.049  0.00  0.00    +0.002 A 
ATOM     33  C   UNL     1      14.275   9.441   2.542  0.00  0.00    +0.000 A 
ENDBRANCH   1  22
ENDBRANCH   9   1
TORSDOF 5
ENDMDL
MODEL 9
REMARK VINA RESULT:      -6.7     15.684     18.937
REMARK  Name = 7144202
REMARK  5 active torsions:
REMARK  status: ('A' for Active; 'I' for Inactive)
REMARK    1  A    between atoms: S_1  and  N_9
REMARK    2  A    between atoms: S_1  and  C_22
REMARK    3  A    between atoms: O_8  and  C_32
REMARK    4  A    between atoms: O_8  and  C_34
REMARK    5  A    between atoms: C_18  and  C_23
REMARK                            x       y       z     vdW  Elec       q    Type
REMARK                         _______ _______ _______ _____ _____    ______ ____
ROOT
ATOM      7  O   UNL     1      13.170   3.431   2.072  0.00  0.00    -0.268 OA
ATOM      9  N   UNL     1      13.181   7.568   4.796  0.00  0.00    -0.176 NA
ATOM     10  N   UNL     1      12.750   5.726   2.278  0.00  0.00    -0.311 N 
ATOM     11  C   UNL     1      14.630   7.396   2.779  0.00  0.00    +0.025 C 
ATOM     12  C   UNL     1      12.319   8.188   2.546  0.00  0.00    +0.053 C 
ATOM     13  C   UNL     1      13.746   8.389   2.043  0.00  0.00    +0.017 C 
ATOM     14  C   UNL     1      14.581   7.638   4.295  0.00  0.00    +0.114 C 
ATOM     15  C   UNL     1      12.263   8.483   4.058  0.00  0.00    +0.119 C 
ATOM     16  C   UNL     1      14.192   5.980   2.403  0.00  0.00    +0.130 C 
ATOM     17  C   UNL     1      11.810   6.775   2.248  0.00  0.00    +0.034 A 
ATOM     18  C   UNL     1      10.504   6.506   1.984  0.00  0.00    +0.002 A 
ATOM     19  C   UNL     1      12.388   4.383   2.072  0.00  0.00    +0.252 A 
ATOM     20  C   UNL     1      10.093   5.131   1.772  0.00  0.00    +0.015 A 
ATOM     21  C   UNL     1      10.954   4.115   1.821  0.00  0.00    +0.071 A 
ENDROOT
BRANCH  18  23
ATOM     23  C   UNL     1       9.485   7.576   1.923  0.00  0.00    -0.016 A 
ATOM     26  C   UNL     1       9.283   8.271   0.735  0.00  0.00    +0.012 A 
ATOM     27  C   UNL     1       8.735   7.881   3.055  0.00  0.00    +0.012 A 
ATOM     28  C   UNL     1       8.323   9.281   0.678  0.00  0.00    +0.046 A 
ATOM     29  C   UNL     1       7.774   8.890   2.999  0.00  0.00    +0.046 A 
ATOM     32  C   UNL     1       7.568   9.591   1.810  0.00  0.00    +0.130 A 
BRANCH  32   8
ATOM      8  O   UNL     1       6.631  10.576   1.754  0.00  0.00    -0.406 OA
BRANCH   8  34
ATOM      2  F   UNL     1       4.818   9.862   2.951  0.00  0.00    -0.133 F 
ATOM      3  F   UNL     1       5.122   9.121   0.918  0.00  0.00    -0.133 F 
ATOM      4  F   UNL     1       4.495  11.193   1.216  0.00  0.00    -0.133 F 
ATOM     34  C   UNL     1       5.258  10.200   1.720  0.00  0.00    +0.575 C 
ENDBRANCH   8  34
ENDBRANCH  32   8
ENDBRANCH  18  23
BRANCH   9   1
ATOM      1  S   UNL     1      13.001   7.553   6.497  0.00  0.00    +0.061 S 
ATOM      5  O   UNL     1      13.134   8.904   7.000  0.00  0.00    -0.153 OA
ATOM      6  O   UNL     1      13.795   6.473   7.046  0.00  0.00    -0.153 OA
BRANCH   1  22
ATOM     22  C   UNL     1      11.300   7.095   6.624  0.00  0.00    +0.105 A 
ATOM     24  C   UNL     1      10.843   5.988   5.931  0.00  0.00    +0.028 A 
ATOM     25  C   UNL     1      10.452   7.852   7.415  0.00  0.00    +0.028 A 
ATOM     30  C   UNL     1       9.500   5.626   6.030  0.00  0.00    +0.002 A 
ATOM     31  C   UNL     1       9.108   7.492   7.514  0.00  0.00    +0.002 A 
ATOM     33  C   UNL     1       8.632   6.379   6.821  0.00  0.00    +0.000 A 
ENDBRANCH   1  22
ENDBRANCH   9   1
TORSDOF 5
ENDMDL
MODEL 10
REMARK VINA RESULT:      -6.7     14.776     17.863
REMARK  Name = 7144202
REMARK  5 active torsions:
REMARK  status: ('A' for Active; 'I' for Inactive)
REMARK    1  A    between atoms: S_1  and  N_9
REMARK    2  A    between atoms: S_1  and  C_22
REMARK    3  A    between atoms: O_8  and  C_32
REMARK    4  A    between atoms: O_8  and  C_34
REMARK    5  A    between atoms: C_18  and  C_23
REMARK                            x       y       z     vdW  Elec       q    Type
REMARK                         _______ _______ _______ _____ _____    ______ ____
ROOT
ATOM      7  O   UNL     1       9.013  10.048   0.545  0.00  0.00    -0.268 OA
ATOM      9  N   UNL     1      13.341   8.229   2.123  0.00  0.00    -0.176 NA
ATOM     10  N   UNL     1      10.516   9.612   2.288  0.00  0.00    -0.311 N 
ATOM     11  C   UNL     1      12.855  10.661   2.338  0.00  0.00    +0.025 C 
ATOM     12  C   UNL     1      12.163   9.126   4.123  0.00  0.00    +0.053 C 
ATOM     13  C   UNL     1      12.728  10.517   3.845  0.00  0.00    +0.017 C 
ATOM     14  C   UNL     1      13.803   9.598   1.763  0.00  0.00    +0.114 C 
ATOM     15  C   UNL     1      13.142   8.060   3.592  0.00  0.00    +0.119 C 
ATOM     16  C   UNL     1      11.458  10.587   1.721  0.00  0.00    +0.130 C 
ATOM     17  C   UNL     1      10.775   8.947   3.503  0.00  0.00    +0.034 A 
ATOM     18  C   UNL     1       9.815   8.165   4.064  0.00  0.00    +0.002 A 
ATOM     19  C   UNL     1       9.296   9.478   1.600  0.00  0.00    +0.252 A 
ATOM     20  C   UNL     1       8.547   8.001   3.381  0.00  0.00    +0.015 A 
ATOM     21  C   UNL     1       8.282   8.595   2.218  0.00  0.00    +0.071 A 
ENDROOT
BRANCH  18  23
ATOM     23  C   UNL     1      10.034   7.464   5.347  0.00  0.00    -0.016 A 
ATOM     26  C   UNL     1      10.383   6.117   5.348  0.00  0.00    +0.012 A 
ATOM     27  C   UNL     1       9.888   8.155   6.546  0.00  0.00    +0.012 A 
ATOM     28  C   UNL     1      10.588   5.455   6.559  0.00  0.00    +0.046 A 
ATOM     29  C   UNL     1      10.093   7.494   7.757  0.00  0.00    +0.046 A 
ATOM     32  C   UNL     1      10.444   6.143   7.763  0.00  0.00    +0.130 A 
BRANCH  32   8
ATOM      8  O   UNL     1      10.644   5.497   8.944  0.00  0.00    -0.406 OA
BRANCH   8  34
ATOM      2  F   UNL     1       9.294   3.661   8.750  0.00  0.00    -0.133 F 
ATOM      3  F   UNL     1       8.459   5.532   9.509  0.00  0.00    -0.133 F 
ATOM      4  F   UNL     1       9.828   4.385  10.768  0.00  0.00    -0.133 F 
ATOM     34  C   UNL     1       9.564   4.753   9.497  0.00  0.00    +0.575 C 
ENDBRANCH   8  34
ENDBRANCH  32   8
ENDBRANCH  18  23
BRANCH   9   1
ATOM      1  S   UNL     1      14.144   6.942   1.332  0.00  0.00    +0.061 S 
ATOM      5  O   UNL     1      15.317   6.575   2.097  0.00  0.00    -0.153 OA
ATOM      6  O   UNL     1      14.241   7.244  -0.081  0.00  0.00    -0.153 OA
BRANCH   1  22
ATOM     22  C   UNL     1      12.947   5.660   1.533  0.00  0.00    +0.105 A 
ATOM     24  C   UNL     1      11.601   5.984   1.532  0.00  0.00    +0.028 A 
ATOM     25  C   UNL     1      13.374   4.352   1.689  0.00  0.00    +0.028 A 
ATOM     30  C   UNL     1      10.655   4.972   1.692  0.00  0.00    +0.002 A 
ATOM     31  C   UNL     1      12.428   3.339   1.849  0.00  0.00    +0.002 A 
ATOM     33  C   UNL     1      11.068   3.649   1.851  0.00  0.00    +0.000 A 
ENDBRANCH   1  22
ENDBRANCH   9   1
TORSDOF 5
ENDMDL
