MODEL 1
REMARK VINA RESULT:      -7.5      0.000      0.000
REMARK  Name = 40777677
REMARK  13 active torsions:
REMARK  status: ('A' for Active; 'I' for Inactive)
REMARK    1  A    between atoms: O_5  and  C_27
REMARK    2  A    between atoms: N_7  and  C_12
REMARK    3  A    between atoms: N_8  and  C_26
REMARK    4  A    between atoms: C_10  and  C_13
REMARK    5  A    between atoms: C_16  and  C_17
REMARK    6  A    between atoms: C_16  and  C_21
REMARK    7  A    between atoms: C_16  and  C_22
REMARK    8  A    between atoms: C_16  and  C_23
REMARK    9  A    between atoms: C_17  and  C_19
REMARK   10  A    between atoms: C_18  and  C_24
REMARK   11  A    between atoms: C_20  and  C_25
REMARK   12  A    between atoms: C_21  and  C_27
REMARK   13  A    between atoms: C_32  and  C_33
REMARK                            x       y       z     vdW  Elec       q    Type
REMARK                         _______ _______ _______ _____ _____    ______ ____
ROOT
ATOM     10  C   UNL     1     -15.677   3.829  24.237  0.00  0.00    +0.047 C 
ATOM     11  C   UNL     1     -16.342   4.365  25.522  0.00  0.00    +0.039 C 
ATOM     12  C   UNL     1     -17.271   3.247  26.010  0.00  0.00    +0.097 C 
ATOM     14  C   UNL     1     -16.632   2.755  23.804  0.00  0.00    -0.021 C 
ATOM     15  C   UNL     1     -17.495   2.438  24.775  0.00  0.00    -0.009 C 
ENDROOT
BRANCH  10  13
ATOM      8  N   UNL     1     -14.510   6.235  21.733  0.00  0.00    -0.236 N 
ATOM      9  N   UNL     1     -15.789   6.648  21.777  0.00  0.00    -0.171 NA
ATOM     13  C   UNL     1     -15.422   4.903  23.205  0.00  0.00    +0.003 A 
ATOM     18  C   UNL     1     -14.239   5.192  22.569  0.00  0.00    +0.046 A 
ATOM     20  C   UNL     1     -16.340   5.831  22.678  0.00  0.00    +0.064 A 
ATOM     24  C   UNL     1     -12.903   4.574  22.688  0.00  0.00    +0.066 C 
ATOM     25  C   UNL     1     -17.769   5.975  23.006  0.00  0.00    +0.068 C 
BRANCH   8  26
ATOM     26  C   UNL     1     -13.606   6.870  20.881  0.00  0.00    +0.066 A 
ATOM     28  C   UNL     1     -12.251   6.914  21.209  0.00  0.00    +0.028 A 
ATOM     29  C   UNL     1     -14.058   7.466  19.704  0.00  0.00    +0.028 A 
ATOM     30  C   UNL     1     -11.348   7.553  20.359  0.00  0.00    +0.014 A 
ATOM     31  C   UNL     1     -13.156   8.105  18.854  0.00  0.00    +0.014 A 
ATOM     32  C   UNL     1     -11.801   8.149  19.181  0.00  0.00    +0.055 A 
BRANCH  32  33
ATOM      1  F   UNL     1     -11.398   9.830  17.529  0.00  0.00    -0.166 F 
ATOM      2  F   UNL     1     -10.267   7.979  17.373  0.00  0.00    -0.166 F 
ATOM      3  F   UNL     1      -9.793   9.423  18.929  0.00  0.00    -0.166 F 
ATOM     33  C   UNL     1     -10.836   8.833  18.273  0.00  0.00    +0.417 C 
ENDBRANCH  32  33
ENDBRANCH   8  26
ENDBRANCH  10  13
BRANCH  12   7
ATOM      4  O   UNL     1     -17.978   3.115  28.794  0.00  0.00    -0.276 OA
ATOM      7  N   UNL     1     -16.662   2.416  27.015  0.00  0.00    -0.309 N 
ATOM     19  C   UNL     1     -17.072   2.421  28.337  0.00  0.00    +0.214 C 
ATOM     34  H   UNL     1     -15.878   1.828  26.745  0.00  0.00    +0.149 HD
BRANCH  19  17
ATOM     17  C   UNL     1     -16.284   1.457  29.209  0.00  0.00    +0.102 C 
BRANCH  17  16
ATOM     16  C   UNL     1     -15.201   2.119  30.098  0.00  0.00    -0.017 C 
ATOM     22  C   UNL     1     -15.849   2.469  31.456  0.00  0.00    +0.012 C 
ATOM     23  C   UNL     1     -14.717   3.441  29.464  0.00  0.00    +0.012 C 
BRANCH  16  21
ATOM     21  C   UNL     1     -13.964   1.215  30.316  0.00  0.00    +0.127 C 
BRANCH  21  27
ATOM      6  O   UNL     1     -13.973  -0.919  29.172  0.00  0.00    -0.251 OA
ATOM     27  C   UNL     1     -14.230  -0.269  30.176  0.00  0.00    +0.305 C 
BRANCH  27   5
ATOM      5  O   UNL     1     -14.796  -0.809  31.283  0.00  0.00    -0.481 OA
ATOM     35  H   UNL     1     -14.822  -0.171  32.029  0.00  0.00    +0.295 HD
ENDBRANCH  27   5
ENDBRANCH  21  27
ENDBRANCH  16  21
ENDBRANCH  17  16
ENDBRANCH  19  17
ENDBRANCH  12   7
TORSDOF 9
ENDMDL
MODEL 2
REMARK VINA RESULT:      -7.2     31.958     35.314
REMARK  Name = 40777677
REMARK  13 active torsions:
REMARK  status: ('A' for Active; 'I' for Inactive)
REMARK    1  A    between atoms: O_5  and  C_27
REMARK    2  A    between atoms: N_7  and  C_12
REMARK    3  A    between atoms: N_8  and  C_26
REMARK    4  A    between atoms: C_10  and  C_13
REMARK    5  A    between atoms: C_16  and  C_17
REMARK    6  A    between atoms: C_16  and  C_21
REMARK    7  A    between atoms: C_16  and  C_22
REMARK    8  A    between atoms: C_16  and  C_23
REMARK    9  A    between atoms: C_17  and  C_19
REMARK   10  A    between atoms: C_18  and  C_24
REMARK   11  A    between atoms: C_20  and  C_25
REMARK   12  A    between atoms: C_21  and  C_27
REMARK   13  A    between atoms: C_32  and  C_33
REMARK                            x       y       z     vdW  Elec       q    Type
REMARK                         _______ _______ _______ _____ _____    ______ ____
ROOT
ATOM     10  C   UNL     1      20.771   5.857  21.116  0.00  0.00    +0.047 C 
ATOM     11  C   UNL     1      21.262   5.447  22.520  0.00  0.00    +0.039 C 
ATOM     12  C   UNL     1      21.903   4.065  22.352  0.00  0.00    +0.097 C 
ATOM     14  C   UNL     1      20.664   4.535  20.413  0.00  0.00    -0.021 C 
ATOM     15  C   UNL     1      21.286   3.563  21.089  0.00  0.00    -0.009 C 
ENDROOT
BRANCH  10  13
ATOM      8  N   UNL     1      17.495   7.455  20.758  0.00  0.00    -0.236 N 
ATOM      9  N   UNL     1      17.965   8.257  21.729  0.00  0.00    -0.171 NA
ATOM     13  C   UNL     1      19.494   6.666  21.142  0.00  0.00    +0.003 A 
ATOM     18  C   UNL     1      18.372   6.486  20.370  0.00  0.00    +0.046 A 
ATOM     20  C   UNL     1      19.187   7.769  21.959  0.00  0.00    +0.064 A 
ATOM     24  C   UNL     1      18.071   5.491  19.321  0.00  0.00    +0.066 C 
ATOM     25  C   UNL     1      20.036   8.400  22.985  0.00  0.00    +0.068 C 
BRANCH   8  26
ATOM     26  C   UNL     1      16.213   7.665  20.246  0.00  0.00    +0.066 A 
ATOM     28  C   UNL     1      15.247   6.665  20.353  0.00  0.00    +0.028 A 
ATOM     29  C   UNL     1      15.901   8.874  19.625  0.00  0.00    +0.028 A 
ATOM     30  C   UNL     1      13.967   6.874  19.838  0.00  0.00    +0.014 A 
ATOM     31  C   UNL     1      14.621   9.083  19.109  0.00  0.00    +0.014 A 
ATOM     32  C   UNL     1      13.655   8.083  19.216  0.00  0.00    +0.055 A 
BRANCH  32  33
ATOM      1  F   UNL     1      12.103   9.556  18.148  0.00  0.00    -0.166 F 
ATOM      2  F   UNL     1      11.310   8.150  19.605  0.00  0.00    -0.166 F 
ATOM      3  F   UNL     1      11.960   7.450  17.651  0.00  0.00    -0.166 F 
ATOM     33  C   UNL     1      12.287   8.306  18.665  0.00  0.00    +0.417 C 
ENDBRANCH  32  33
ENDBRANCH   8  26
ENDBRANCH  10  13
BRANCH  12   7
ATOM      4  O   UNL     1      23.881   2.672  23.907  0.00  0.00    -0.276 OA
ATOM      7  N   UNL     1      23.331   4.130  22.187  0.00  0.00    -0.309 N 
ATOM     19  C   UNL     1      24.209   3.421  22.988  0.00  0.00    +0.214 C 
ATOM     34  H   UNL     1      23.706   4.749  21.474  0.00  0.00    +0.149 HD
BRANCH  19  17
ATOM     17  C   UNL     1      25.667   3.645  22.621  0.00  0.00    +0.102 C 
BRANCH  17  16
ATOM     16  C   UNL     1      26.218   2.690  21.532  0.00  0.00    -0.017 C 
ATOM     22  C   UNL     1      25.234   1.508  21.394  0.00  0.00    +0.012 C 
ATOM     23  C   UNL     1      27.581   2.108  21.966  0.00  0.00    +0.012 C 
BRANCH  16  21
ATOM     21  C   UNL     1      26.412   3.385  20.163  0.00  0.00    +0.127 C 
BRANCH  21  27
ATOM      6  O   UNL     1      24.482   4.775  19.708  0.00  0.00    -0.251 OA
ATOM     27  C   UNL     1      25.128   3.767  19.458  0.00  0.00    +0.305 C 
BRANCH  27   5
ATOM      5  O   UNL     1      24.757   2.865  18.516  0.00  0.00    -0.481 OA
ATOM     35  H   UNL     1      24.189   2.157  18.891  0.00  0.00    +0.295 HD
ENDBRANCH  27   5
ENDBRANCH  21  27
ENDBRANCH  16  21
ENDBRANCH  17  16
ENDBRANCH  19  17
ENDBRANCH  12   7
TORSDOF 9
ENDMDL
MODEL 3
REMARK VINA RESULT:      -7.2     31.320     34.890
REMARK  Name = 40777677
REMARK  13 active torsions:
REMARK  status: ('A' for Active; 'I' for Inactive)
REMARK    1  A    between atoms: O_5  and  C_27
REMARK    2  A    between atoms: N_7  and  C_12
REMARK    3  A    between atoms: N_8  and  C_26
REMARK    4  A    between atoms: C_10  and  C_13
REMARK    5  A    between atoms: C_16  and  C_17
REMARK    6  A    between atoms: C_16  and  C_21
REMARK    7  A    between atoms: C_16  and  C_22
REMARK    8  A    between atoms: C_16  and  C_23
REMARK    9  A    between atoms: C_17  and  C_19
REMARK   10  A    between atoms: C_18  and  C_24
REMARK   11  A    between atoms: C_20  and  C_25
REMARK   12  A    between atoms: C_21  and  C_27
REMARK   13  A    between atoms: C_32  and  C_33
REMARK                            x       y       z     vdW  Elec       q    Type
REMARK                         _______ _______ _______ _____ _____    ______ ____
ROOT
ATOM     10  C   UNL     1      18.748   7.277  20.954  0.00  0.00    +0.047 C 
ATOM     11  C   UNL     1      17.399   6.570  21.198  0.00  0.00    +0.039 C 
ATOM     12  C   UNL     1      16.348   7.684  21.259  0.00  0.00    +0.097 C 
ATOM     14  C   UNL     1      18.471   8.674  21.429  0.00  0.00    -0.021 C 
ATOM     15  C   UNL     1      17.161   8.892  21.589  0.00  0.00    -0.009 C 
ENDROOT
BRANCH  10  13
ATOM      8  N   UNL     1      21.533   5.236  22.176  0.00  0.00    -0.236 N 
ATOM      9  N   UNL     1      21.569   6.164  23.148  0.00  0.00    -0.171 NA
ATOM     13  C   UNL     1      19.912   6.596  21.636  0.00  0.00    +0.003 A 
ATOM     18  C   UNL     1      20.559   5.448  21.246  0.00  0.00    +0.046 A 
ATOM     20  C   UNL     1      20.576   6.991  22.812  0.00  0.00    +0.064 A 
ATOM     24  C   UNL     1      20.334   4.559  20.088  0.00  0.00    +0.066 C 
ATOM     25  C   UNL     1      20.296   8.165  23.658  0.00  0.00    +0.068 C 
BRANCH   8  26
ATOM     26  C   UNL     1      22.447   4.180  22.192  0.00  0.00    +0.066 A 
ATOM     28  C   UNL     1      22.359   3.196  23.176  0.00  0.00    +0.028 A 
ATOM     29  C   UNL     1      23.451   4.114  21.226  0.00  0.00    +0.028 A 
ATOM     30  C   UNL     1      23.275   2.144  23.193  0.00  0.00    +0.014 A 
ATOM     31  C   UNL     1      24.367   3.063  21.244  0.00  0.00    +0.014 A 
ATOM     32  C   UNL     1      24.279   2.078  22.227  0.00  0.00    +0.055 A 
BRANCH  32  33
ATOM      1  F   UNL     1      25.386   0.361  23.470  0.00  0.00    -0.166 F 
ATOM      2  F   UNL     1      26.518   1.348  21.898  0.00  0.00    -0.166 F 
ATOM      3  F   UNL     1      24.943  -0.063  21.390  0.00  0.00    -0.166 F 
ATOM     33  C   UNL     1      25.259   0.953  22.247  0.00  0.00    +0.417 C 
ENDBRANCH  32  33
ENDBRANCH   8  26
ENDBRANCH  10  13
BRANCH  12   7
ATOM      4  O   UNL     1      13.795   6.627  20.464  0.00  0.00    -0.276 OA
ATOM      7  N   UNL     1      15.684   7.892  19.999  0.00  0.00    -0.309 N 
ATOM     19  C   UNL     1      14.449   7.339  19.705  0.00  0.00    +0.214 C 
ATOM     34  H   UNL     1      16.159   8.441  19.288  0.00  0.00    +0.149 HD
BRANCH  19  17
ATOM     17  C   UNL     1      13.948   7.704  18.317  0.00  0.00    +0.102 C 
BRANCH  17  16
ATOM     16  C   UNL     1      13.094   8.996  18.252  0.00  0.00    -0.017 C 
ATOM     22  C   UNL     1      14.058  10.197  18.138  0.00  0.00    +0.012 C 
ATOM     23  C   UNL     1      12.286   9.174  19.555  0.00  0.00    +0.012 C 
BRANCH  16  21
ATOM     21  C   UNL     1      12.097   9.000  17.068  0.00  0.00    +0.127 C 
BRANCH  21  27
ATOM      6  O   UNL     1      13.555   8.454  15.214  0.00  0.00    -0.251 OA
ATOM     27  C   UNL     1      12.727   9.208  15.708  0.00  0.00    +0.305 C 
BRANCH  27   5
ATOM      5  O   UNL     1      12.284  10.329  15.088  0.00  0.00    -0.481 OA
ATOM     35  H   UNL     1      12.842  11.109  15.299  0.00  0.00    +0.295 HD
ENDBRANCH  27   5
ENDBRANCH  21  27
ENDBRANCH  16  21
ENDBRANCH  17  16
ENDBRANCH  19  17
ENDBRANCH  12   7
TORSDOF 9
ENDMDL
MODEL 4
REMARK VINA RESULT:      -6.9     31.176     34.605
REMARK  Name = 40777677
REMARK  13 active torsions:
REMARK  status: ('A' for Active; 'I' for Inactive)
REMARK    1  A    between atoms: O_5  and  C_27
REMARK    2  A    between atoms: N_7  and  C_12
REMARK    3  A    between atoms: N_8  and  C_26
REMARK    4  A    between atoms: C_10  and  C_13
REMARK    5  A    between atoms: C_16  and  C_17
REMARK    6  A    between atoms: C_16  and  C_21
REMARK    7  A    between atoms: C_16  and  C_22
REMARK    8  A    between atoms: C_16  and  C_23
REMARK    9  A    between atoms: C_17  and  C_19
REMARK   10  A    between atoms: C_18  and  C_24
REMARK   11  A    between atoms: C_20  and  C_25
REMARK   12  A    between atoms: C_21  and  C_27
REMARK   13  A    between atoms: C_32  and  C_33
REMARK                            x       y       z     vdW  Elec       q    Type
REMARK                         _______ _______ _______ _____ _____    ______ ____
ROOT
ATOM     10  C   UNL     1      20.063   6.592  21.500  0.00  0.00    +0.047 C 
ATOM     11  C   UNL     1      21.077   6.959  20.397  0.00  0.00    +0.039 C 
ATOM     12  C   UNL     1      22.462   6.686  20.993  0.00  0.00    +0.097 C 
ATOM     14  C   UNL     1      20.898   6.674  22.745  0.00  0.00    -0.021 C 
ATOM     15  C   UNL     1      22.205   6.721  22.463  0.00  0.00    -0.009 C 
ENDROOT
BRANCH  10  13
ATOM      8  N   UNL     1      16.806   8.256  21.314  0.00  0.00    -0.236 N 
ATOM      9  N   UNL     1      17.507   9.315  21.755  0.00  0.00    -0.171 NA
ATOM     13  C   UNL     1      18.836   7.474  21.502  0.00  0.00    +0.003 A 
ATOM     18  C   UNL     1      17.554   7.129  21.147  0.00  0.00    +0.046 A 
ATOM     20  C   UNL     1      18.747   8.830  21.867  0.00  0.00    +0.064 A 
ATOM     24  C   UNL     1      16.996   5.847  20.673  0.00  0.00    +0.066 C 
ATOM     25  C   UNL     1      19.829   9.713  22.336  0.00  0.00    +0.068 C 
BRANCH   8  26
ATOM     26  C   UNL     1      15.437   8.384  21.074  0.00  0.00    +0.066 A 
ATOM     28  C   UNL     1      14.521   8.110  22.090  0.00  0.00    +0.028 A 
ATOM     29  C   UNL     1      14.985   8.783  19.817  0.00  0.00    +0.028 A 
ATOM     30  C   UNL     1      13.153   8.235  21.848  0.00  0.00    +0.014 A 
ATOM     31  C   UNL     1      13.616   8.907  19.574  0.00  0.00    +0.014 A 
ATOM     32  C   UNL     1      12.701   8.633  20.590  0.00  0.00    +0.055 A 
BRANCH  32  33
ATOM      1  F   UNL     1      10.505   7.708  20.787  0.00  0.00    -0.166 F 
ATOM      2  F   UNL     1      10.947   8.868  19.002  0.00  0.00    -0.166 F 
ATOM      3  F   UNL     1      10.676   9.865  20.916  0.00  0.00    -0.166 F 
ATOM     33  C   UNL     1      11.238   8.766  20.332  0.00  0.00    +0.417 C 
ENDBRANCH  32  33
ENDBRANCH   8  26
ENDBRANCH  10  13
BRANCH  12   7
ATOM      4  O   UNL     1      25.228   5.920  20.821  0.00  0.00    -0.276 OA
ATOM      7  N   UNL     1      22.977   5.391  20.634  0.00  0.00    -0.309 N 
ATOM     19  C   UNL     1      24.332   5.115  20.577  0.00  0.00    +0.214 C 
ATOM     34  H   UNL     1      22.316   4.662  20.380  0.00  0.00    +0.149 HD
BRANCH  19  17
ATOM     17  C   UNL     1      24.633   3.678  20.181  0.00  0.00    +0.102 C 
BRANCH  17  16
ATOM     16  C   UNL     1      24.909   2.720  21.367  0.00  0.00    -0.017 C 
ATOM     22  C   UNL     1      26.435   2.502  21.458  0.00  0.00    +0.012 C 
ATOM     23  C   UNL     1      24.260   1.343  21.109  0.00  0.00    +0.012 C 
BRANCH  16  21
ATOM     21  C   UNL     1      24.367   3.257  22.714  0.00  0.00    +0.127 C 
BRANCH  21  27
ATOM      6  O   UNL     1      22.888   1.821  23.984  0.00  0.00    -0.251 OA
ATOM     27  C   UNL     1      23.028   2.687  23.132  0.00  0.00    +0.305 C 
BRANCH  27   5
ATOM      5  O   UNL     1      21.989   3.234  22.454  0.00  0.00    -0.481 OA
ATOM     35  H   UNL     1      22.043   4.214  22.429  0.00  0.00    +0.295 HD
ENDBRANCH  27   5
ENDBRANCH  21  27
ENDBRANCH  16  21
ENDBRANCH  17  16
ENDBRANCH  19  17
ENDBRANCH  12   7
TORSDOF 9
ENDMDL
MODEL 5
REMARK VINA RESULT:      -6.9     20.753     23.460
REMARK  Name = 40777677
REMARK  13 active torsions:
REMARK  status: ('A' for Active; 'I' for Inactive)
REMARK    1  A    between atoms: O_5  and  C_27
REMARK    2  A    between atoms: N_7  and  C_12
REMARK    3  A    between atoms: N_8  and  C_26
REMARK    4  A    between atoms: C_10  and  C_13
REMARK    5  A    between atoms: C_16  and  C_17
REMARK    6  A    between atoms: C_16  and  C_21
REMARK    7  A    between atoms: C_16  and  C_22
REMARK    8  A    between atoms: C_16  and  C_23
REMARK    9  A    between atoms: C_17  and  C_19
REMARK   10  A    between atoms: C_18  and  C_24
REMARK   11  A    between atoms: C_20  and  C_25
REMARK   12  A    between atoms: C_21  and  C_27
REMARK   13  A    between atoms: C_32  and  C_33
REMARK                            x       y       z     vdW  Elec       q    Type
REMARK                         _______ _______ _______ _____ _____    ______ ____
ROOT
ATOM     10  C   UNL     1      -5.642  -9.936  10.272  0.00  0.00    +0.047 C 
ATOM     11  C   UNL     1      -4.624  -9.432   9.227  0.00  0.00    +0.039 C 
ATOM     12  C   UNL     1      -5.045 -10.060   7.894  0.00  0.00    +0.097 C 
ATOM     14  C   UNL     1      -6.185 -11.174   9.620  0.00  0.00    -0.021 C 
ATOM     15  C   UNL     1      -5.861 -11.235   8.324  0.00  0.00    -0.009 C 
ENDROOT
BRANCH  10  13
ATOM      8  N   UNL     1      -4.726 -10.505  13.772  0.00  0.00    -0.236 N 
ATOM      9  N   UNL     1      -3.475 -10.406  13.288  0.00  0.00    -0.171 NA
ATOM     13  C   UNL     1      -5.036 -10.154  11.639  0.00  0.00    +0.003 A 
ATOM     18  C   UNL     1      -5.697 -10.361  12.826  0.00  0.00    +0.046 A 
ATOM     20  C   UNL     1      -3.672 -10.192  11.984  0.00  0.00    +0.064 A 
ATOM     24  C   UNL     1      -7.141 -10.433  13.127  0.00  0.00    +0.066 C 
ATOM     25  C   UNL     1      -2.510 -10.029  11.095  0.00  0.00    +0.068 C 
BRANCH   8  26
ATOM     26  C   UNL     1      -4.924 -10.733  15.135  0.00  0.00    +0.066 A 
ATOM     28  C   UNL     1      -5.566  -9.774  15.917  0.00  0.00    +0.028 A 
ATOM     29  C   UNL     1      -4.476 -11.920  15.714  0.00  0.00    +0.028 A 
ATOM     30  C   UNL     1      -5.761 -10.002  17.280  0.00  0.00    +0.014 A 
ATOM     31  C   UNL     1      -4.670 -12.148  17.077  0.00  0.00    +0.014 A 
ATOM     32  C   UNL     1      -5.313 -11.189  17.859  0.00  0.00    +0.055 A 
BRANCH  32  33
ATOM      1  F   UNL     1      -4.386 -11.814  19.973  0.00  0.00    -0.166 F 
ATOM      2  F   UNL     1      -6.434 -12.415  19.560  0.00  0.00    -0.166 F 
ATOM      3  F   UNL     1      -5.971 -10.335  19.994  0.00  0.00    -0.166 F 
ATOM     33  C   UNL     1      -5.520 -11.432  19.316  0.00  0.00    +0.417 C 
ENDBRANCH  32  33
ENDBRANCH   8  26
ENDBRANCH  10  13
BRANCH  12   7
ATOM      4  O   UNL     1      -6.152 -10.621   5.301  0.00  0.00    -0.276 OA
ATOM      7  N   UNL     1      -5.862  -9.183   7.099  0.00  0.00    -0.309 N 
ATOM     19  C   UNL     1      -6.352  -9.542   5.854  0.00  0.00    +0.214 C 
ATOM     34  H   UNL     1      -6.058  -8.251   7.454  0.00  0.00    +0.149 HD
BRANCH  19  17
ATOM     17  C   UNL     1      -7.193  -8.454   5.208  0.00  0.00    +0.102 C 
BRANCH  17  16
ATOM     16  C   UNL     1      -8.594  -8.252   5.840  0.00  0.00    -0.017 C 
ATOM     22  C   UNL     1      -8.866  -9.443   6.784  0.00  0.00    +0.012 C 
ATOM     23  C   UNL     1      -9.685  -8.267   4.749  0.00  0.00    +0.012 C 
BRANCH  16  21
ATOM     21  C   UNL     1      -8.717  -6.919   6.618  0.00  0.00    +0.127 C 
BRANCH  21  27
ATOM      6  O   UNL     1      -9.191  -7.137   8.982  0.00  0.00    -0.251 OA
ATOM     27  C   UNL     1      -8.366  -7.007   8.088  0.00  0.00    +0.305 C 
BRANCH  27   5
ATOM      5  O   UNL     1      -7.033  -6.916   8.317  0.00  0.00    -0.481 OA
ATOM     35  H   UNL     1      -6.727  -7.585   8.968  0.00  0.00    +0.295 HD
ENDBRANCH  27   5
ENDBRANCH  21  27
ENDBRANCH  16  21
ENDBRANCH  17  16
ENDBRANCH  19  17
ENDBRANCH  12   7
TORSDOF 9
ENDMDL
MODEL 6
REMARK VINA RESULT:      -6.9     19.105     21.812
REMARK  Name = 40777677
REMARK  13 active torsions:
REMARK  status: ('A' for Active; 'I' for Inactive)
REMARK    1  A    between atoms: O_5  and  C_27
REMARK    2  A    between atoms: N_7  and  C_12
REMARK    3  A    between atoms: N_8  and  C_26
REMARK    4  A    between atoms: C_10  and  C_13
REMARK    5  A    between atoms: C_16  and  C_17
REMARK    6  A    between atoms: C_16  and  C_21
REMARK    7  A    between atoms: C_16  and  C_22
REMARK    8  A    between atoms: C_16  and  C_23
REMARK    9  A    between atoms: C_17  and  C_19
REMARK   10  A    between atoms: C_18  and  C_24
REMARK   11  A    between atoms: C_20  and  C_25
REMARK   12  A    between atoms: C_21  and  C_27
REMARK   13  A    between atoms: C_32  and  C_33
REMARK                            x       y       z     vdW  Elec       q    Type
REMARK                         _______ _______ _______ _____ _____    ______ ____
ROOT
ATOM     10  C   UNL     1      -5.818 -11.132  16.469  0.00  0.00    +0.047 C 
ATOM     11  C   UNL     1      -4.462 -10.463  16.773  0.00  0.00    +0.039 C 
ATOM     12  C   UNL     1      -3.436 -11.167  15.877  0.00  0.00    +0.097 C 
ATOM     14  C   UNL     1      -5.402 -12.452  15.888  0.00  0.00    -0.021 C 
ATOM     15  C   UNL     1      -4.105 -12.464  15.564  0.00  0.00    -0.009 C 
ENDROOT
BRANCH  10  13
ATOM      8  N   UNL     1      -8.444 -11.281  19.018  0.00  0.00    -0.236 N 
ATOM      9  N   UNL     1      -7.401 -11.471  19.844  0.00  0.00    -0.171 NA
ATOM     13  C   UNL     1      -6.721 -11.228  17.677  0.00  0.00    +0.003 A 
ATOM     18  C   UNL     1      -8.092 -11.130  17.709  0.00  0.00    +0.046 A 
ATOM     20  C   UNL     1      -6.351 -11.437  19.018  0.00  0.00    +0.064 A 
ATOM     24  C   UNL     1      -9.070 -10.911  16.625  0.00  0.00    +0.066 C 
ATOM     25  C   UNL     1      -4.995 -11.614  19.565  0.00  0.00    +0.068 C 
BRANCH   8  26
ATOM     26  C   UNL     1      -9.741 -11.254  19.535  0.00  0.00    +0.066 A 
ATOM     28  C   UNL     1     -10.460 -10.059  19.551  0.00  0.00    +0.028 A 
ATOM     29  C   UNL     1     -10.313 -12.421  20.039  0.00  0.00    +0.028 A 
ATOM     30  C   UNL     1     -11.754 -10.032  20.071  0.00  0.00    +0.014 A 
ATOM     31  C   UNL     1     -11.607 -12.394  20.561  0.00  0.00    +0.014 A 
ATOM     32  C   UNL     1     -12.328 -11.200  20.576  0.00  0.00    +0.055 A 
BRANCH  32  33
ATOM      1  F   UNL     1     -14.272  -9.925  21.135  0.00  0.00    -0.166 F 
ATOM      2  F   UNL     1     -13.764 -11.598  22.428  0.00  0.00    -0.166 F 
ATOM      3  F   UNL     1     -14.593 -11.957  20.450  0.00  0.00    -0.166 F 
ATOM     33  C   UNL     1     -13.711 -11.170  21.133  0.00  0.00    +0.417 C 
ENDBRANCH  32  33
ENDBRANCH   8  26
ENDBRANCH  10  13
BRANCH  12   7
ATOM      4  O   UNL     1      -1.662 -11.960  13.759  0.00  0.00    -0.276 OA
ATOM      7  N   UNL     1      -3.187 -10.456  14.652  0.00  0.00    -0.309 N 
ATOM     19  C   UNL     1      -2.310 -10.918  13.685  0.00  0.00    +0.214 C 
ATOM     34  H   UNL     1      -3.649  -9.562  14.509  0.00  0.00    +0.149 HD
BRANCH  19  17
ATOM     17  C   UNL     1      -2.215 -10.000  12.477  0.00  0.00    +0.102 C 
BRANCH  17  16
ATOM     16  C   UNL     1      -3.284 -10.252  11.383  0.00  0.00    -0.017 C 
ATOM     22  C   UNL     1      -4.674 -10.016  12.013  0.00  0.00    +0.012 C 
ATOM     23  C   UNL     1      -3.234 -11.720  10.910  0.00  0.00    +0.012 C 
BRANCH  16  21
ATOM     21  C   UNL     1      -3.100  -9.345  10.143  0.00  0.00    +0.127 C 
BRANCH  21  27
ATOM      6  O   UNL     1      -4.592 -10.235   8.455  0.00  0.00    -0.251 OA
ATOM     27  C   UNL     1      -4.283  -9.313   9.199  0.00  0.00    +0.305 C 
BRANCH  27   5
ATOM      5  O   UNL     1      -4.970  -8.145   9.254  0.00  0.00    -0.481 OA
ATOM     35  H   UNL     1      -4.413  -7.410   9.590  0.00  0.00    +0.295 HD
ENDBRANCH  27   5
ENDBRANCH  21  27
ENDBRANCH  16  21
ENDBRANCH  17  16
ENDBRANCH  19  17
ENDBRANCH  12   7
TORSDOF 9
ENDMDL
MODEL 7
REMARK VINA RESULT:      -6.9     21.289     24.019
REMARK  Name = 40777677
REMARK  13 active torsions:
REMARK  status: ('A' for Active; 'I' for Inactive)
REMARK    1  A    between atoms: O_5  and  C_27
REMARK    2  A    between atoms: N_7  and  C_12
REMARK    3  A    between atoms: N_8  and  C_26
REMARK    4  A    between atoms: C_10  and  C_13
REMARK    5  A    between atoms: C_16  and  C_17
REMARK    6  A    between atoms: C_16  and  C_21
REMARK    7  A    between atoms: C_16  and  C_22
REMARK    8  A    between atoms: C_16  and  C_23
REMARK    9  A    between atoms: C_17  and  C_19
REMARK   10  A    between atoms: C_18  and  C_24
REMARK   11  A    between atoms: C_20  and  C_25
REMARK   12  A    between atoms: C_21  and  C_27
REMARK   13  A    between atoms: C_32  and  C_33
REMARK                            x       y       z     vdW  Elec       q    Type
REMARK                         _______ _______ _______ _____ _____    ______ ____
ROOT
ATOM     10  C   UNL     1      -4.707  -9.904  10.679  0.00  0.00    +0.047 C 
ATOM     11  C   UNL     1      -6.089 -10.376  10.182  0.00  0.00    +0.039 C 
ATOM     12  C   UNL     1      -6.583  -9.287   9.222  0.00  0.00    +0.097 C 
ATOM     14  C   UNL     1      -4.763  -8.424  10.431  0.00  0.00    -0.021 C 
ATOM     15  C   UNL     1      -5.784  -8.094   9.633  0.00  0.00    -0.009 C 
ENDROOT
BRANCH  10  13
ATOM      8  N   UNL     1      -4.583 -10.753  14.240  0.00  0.00    -0.236 N 
ATOM      9  N   UNL     1      -3.283 -10.967  13.974  0.00  0.00    -0.171 NA
ATOM     13  C   UNL     1      -4.421 -10.295  12.111  0.00  0.00    +0.003 A 
ATOM     18  C   UNL     1      -5.309 -10.349  13.158  0.00  0.00    +0.046 A 
ATOM     20  C   UNL     1      -3.191 -10.686  12.671  0.00  0.00    +0.064 A 
ATOM     24  C   UNL     1      -6.755 -10.056  13.215  0.00  0.00    +0.066 C 
ATOM     25  C   UNL     1      -1.888 -10.807  11.995  0.00  0.00    +0.068 C 
BRANCH   8  26
ATOM     26  C   UNL     1      -5.066 -10.949  15.535  0.00  0.00    +0.066 A 
ATOM     28  C   UNL     1      -5.831 -12.077  15.831  0.00  0.00    +0.028 A 
ATOM     29  C   UNL     1      -4.786 -10.014  16.531  0.00  0.00    +0.028 A 
ATOM     30  C   UNL     1      -6.317 -12.270  17.124  0.00  0.00    +0.014 A 
ATOM     31  C   UNL     1      -5.273 -10.207  17.824  0.00  0.00    +0.014 A 
ATOM     32  C   UNL     1      -6.037 -11.335  18.121  0.00  0.00    +0.055 A 
BRANCH  32  33
ATOM      1  F   UNL     1      -5.602 -11.419  20.471  0.00  0.00    -0.166 F 
ATOM      2  F   UNL     1      -7.102 -12.780  19.680  0.00  0.00    -0.166 F 
ATOM      3  F   UNL     1      -7.536 -10.657  19.858  0.00  0.00    -0.166 F 
ATOM     33  C   UNL     1      -6.557 -11.541  19.504  0.00  0.00    +0.417 C 
ENDBRANCH  32  33
ENDBRANCH   8  26
ENDBRANCH  10  13
BRANCH  12   7
ATOM      4  O   UNL     1      -8.026  -8.340   6.923  0.00  0.00    -0.276 OA
ATOM      7  N   UNL     1      -6.302  -9.591   7.844  0.00  0.00    -0.309 N 
ATOM     19  C   UNL     1      -7.058  -9.086   6.799  0.00  0.00    +0.214 C 
ATOM     34  H   UNL     1      -5.539 -10.229   7.636  0.00  0.00    +0.149 HD
BRANCH  19  17
ATOM     17  C   UNL     1      -6.567  -9.542   5.434  0.00  0.00    +0.102 C 
BRANCH  17  16
ATOM     16  C   UNL     1      -7.567 -10.425   4.645  0.00  0.00    -0.017 C 
ATOM     22  C   UNL     1      -8.238 -11.392   5.644  0.00  0.00    +0.012 C 
ATOM     23  C   UNL     1      -6.819 -11.283   3.602  0.00  0.00    +0.012 C 
BRANCH  16  21
ATOM     21  C   UNL     1      -8.642  -9.599   3.900  0.00  0.00    +0.127 C 
BRANCH  21  27
ATOM      6  O   UNL     1      -7.552  -8.195   2.256  0.00  0.00    -0.251 OA
ATOM     27  C   UNL     1      -8.149  -8.291   3.319  0.00  0.00    +0.305 C 
BRANCH  27   5
ATOM      5  O   UNL     1      -8.431  -7.225   4.109  0.00  0.00    -0.481 OA
ATOM     35  H   UNL     1      -8.973  -7.480   4.887  0.00  0.00    +0.295 HD
ENDBRANCH  27   5
ENDBRANCH  21  27
ENDBRANCH  16  21
ENDBRANCH  17  16
ENDBRANCH  19  17
ENDBRANCH  12   7
TORSDOF 9
ENDMDL
MODEL 8
REMARK VINA RESULT:      -6.8     22.788     25.378
REMARK  Name = 40777677
REMARK  13 active torsions:
REMARK  status: ('A' for Active; 'I' for Inactive)
REMARK    1  A    between atoms: O_5  and  C_27
REMARK    2  A    between atoms: N_7  and  C_12
REMARK    3  A    between atoms: N_8  and  C_26
REMARK    4  A    between atoms: C_10  and  C_13
REMARK    5  A    between atoms: C_16  and  C_17
REMARK    6  A    between atoms: C_16  and  C_21
REMARK    7  A    between atoms: C_16  and  C_22
REMARK    8  A    between atoms: C_16  and  C_23
REMARK    9  A    between atoms: C_17  and  C_19
REMARK   10  A    between atoms: C_18  and  C_24
REMARK   11  A    between atoms: C_20  and  C_25
REMARK   12  A    between atoms: C_21  and  C_27
REMARK   13  A    between atoms: C_32  and  C_33
REMARK                            x       y       z     vdW  Elec       q    Type
REMARK                         _______ _______ _______ _____ _____    ______ ____
ROOT
ATOM     10  C   UNL     1      -3.743 -10.728  10.305  0.00  0.00    +0.047 C 
ATOM     11  C   UNL     1      -3.960 -12.175   9.817  0.00  0.00    +0.039 C 
ATOM     12  C   UNL     1      -4.952 -12.082   8.653  0.00  0.00    +0.097 C 
ATOM     14  C   UNL     1      -4.972 -10.030   9.797  0.00  0.00    -0.021 C 
ATOM     15  C   UNL     1      -5.624 -10.770   8.895  0.00  0.00    -0.009 C 
ENDROOT
BRANCH  10  13
ATOM      8  N   UNL     1      -3.778 -10.658  13.967  0.00  0.00    -0.236 N 
ATOM      9  N   UNL     1      -2.506 -10.254  13.806  0.00  0.00    -0.171 NA
ATOM     13  C   UNL     1      -3.529 -10.626  11.798  0.00  0.00    +0.003 A 
ATOM     18  C   UNL     1      -4.435 -10.894  12.795  0.00  0.00    +0.046 A 
ATOM     20  C   UNL     1      -2.360 -10.237  12.478  0.00  0.00    +0.064 A 
ATOM     24  C   UNL     1      -5.839 -11.345  12.729  0.00  0.00    +0.066 C 
ATOM     25  C   UNL     1      -1.067  -9.837  11.898  0.00  0.00    +0.068 C 
BRANCH   8  26
ATOM     26  C   UNL     1      -4.303 -10.796  15.253  0.00  0.00    +0.066 A 
ATOM     28  C   UNL     1      -5.278  -9.909  15.708  0.00  0.00    +0.028 A 
ATOM     29  C   UNL     1      -3.849 -11.820  16.084  0.00  0.00    +0.028 A 
ATOM     30  C   UNL     1      -5.799 -10.046  16.995  0.00  0.00    +0.014 A 
ATOM     31  C   UNL     1      -4.369 -11.957  17.371  0.00  0.00    +0.014 A 
ATOM     32  C   UNL     1      -5.344 -11.070  17.826  0.00  0.00    +0.055 A 
BRANCH  32  33
ATOM      1  F   UNL     1      -4.983 -11.637  20.121  0.00  0.00    -0.166 F 
ATOM      2  F   UNL     1      -6.922 -12.119  19.263  0.00  0.00    -0.166 F 
ATOM      3  F   UNL     1      -6.408 -10.054  19.713  0.00  0.00    -0.166 F 
ATOM     33  C   UNL     1      -5.901 -11.216  19.203  0.00  0.00    +0.417 C 
ENDBRANCH  32  33
ENDBRANCH   8  26
ENDBRANCH  10  13
BRANCH  12   7
ATOM      4  O   UNL     1      -3.842 -14.320   7.232  0.00  0.00    -0.276 OA
ATOM      7  N   UNL     1      -4.304 -12.051   7.369  0.00  0.00    -0.309 N 
ATOM     19  C   UNL     1      -3.797 -13.186   6.761  0.00  0.00    +0.214 C 
ATOM     34  H   UNL     1      -4.186 -11.152   6.910  0.00  0.00    +0.149 HD
BRANCH  19  17
ATOM     17  C   UNL     1      -3.163 -12.905   5.408  0.00  0.00    +0.102 C 
BRANCH  17  16
ATOM     16  C   UNL     1      -3.983 -13.400   4.190  0.00  0.00    -0.017 C 
ATOM     22  C   UNL     1      -3.679 -14.900   3.988  0.00  0.00    +0.012 C 
ATOM     23  C   UNL     1      -3.541 -12.662   2.908  0.00  0.00    +0.012 C 
BRANCH  16  21
ATOM     21  C   UNL     1      -5.506 -13.184   4.362  0.00  0.00    +0.127 C 
BRANCH  21  27
ATOM      6  O   UNL     1      -6.487 -11.489   2.939  0.00  0.00    -0.251 OA
ATOM     27  C   UNL     1      -5.994 -11.794   4.016  0.00  0.00    +0.305 C 
BRANCH  27   5
ATOM      5  O   UNL     1      -5.820 -10.908   5.028  0.00  0.00    -0.481 OA
ATOM     35  H   UNL     1      -5.269 -11.282   5.750  0.00  0.00    +0.295 HD
ENDBRANCH  27   5
ENDBRANCH  21  27
ENDBRANCH  16  21
ENDBRANCH  17  16
ENDBRANCH  19  17
ENDBRANCH  12   7
TORSDOF 9
ENDMDL
MODEL 9
REMARK VINA RESULT:      -6.8     22.945     25.487
REMARK  Name = 40777677
REMARK  13 active torsions:
REMARK  status: ('A' for Active; 'I' for Inactive)
REMARK    1  A    between atoms: O_5  and  C_27
REMARK    2  A    between atoms: N_7  and  C_12
REMARK    3  A    between atoms: N_8  and  C_26
REMARK    4  A    between atoms: C_10  and  C_13
REMARK    5  A    between atoms: C_16  and  C_17
REMARK    6  A    between atoms: C_16  and  C_21
REMARK    7  A    between atoms: C_16  and  C_22
REMARK    8  A    between atoms: C_16  and  C_23
REMARK    9  A    between atoms: C_17  and  C_19
REMARK   10  A    between atoms: C_18  and  C_24
REMARK   11  A    between atoms: C_20  and  C_25
REMARK   12  A    between atoms: C_21  and  C_27
REMARK   13  A    between atoms: C_32  and  C_33
REMARK                            x       y       z     vdW  Elec       q    Type
REMARK                         _______ _______ _______ _____ _____    ______ ____
ROOT
ATOM     10  C   UNL     1      -3.768 -10.201  10.012  0.00  0.00    +0.047 C 
ATOM     11  C   UNL     1      -4.552 -11.406   9.454  0.00  0.00    +0.039 C 
ATOM     12  C   UNL     1      -5.463 -10.842   8.357  0.00  0.00    +0.097 C 
ATOM     14  C   UNL     1      -4.636  -9.041   9.618  0.00  0.00    -0.021 C 
ATOM     15  C   UNL     1      -5.555  -9.395   8.714  0.00  0.00    -0.009 C 
ENDROOT
BRANCH  10  13
ATOM      8  N   UNL     1      -3.644 -10.606  13.650  0.00  0.00    -0.236 N 
ATOM      9  N   UNL     1      -2.358 -10.254  13.479  0.00  0.00    -0.171 NA
ATOM     13  C   UNL     1      -3.485 -10.306  11.493  0.00  0.00    +0.003 A 
ATOM     18  C   UNL     1      -4.362 -10.652  12.492  0.00  0.00    +0.046 A 
ATOM     20  C   UNL     1      -2.267 -10.071  12.159  0.00  0.00    +0.064 A 
ATOM     24  C   UNL     1      -5.792 -11.016  12.438  0.00  0.00    +0.066 C 
ATOM     25  C   UNL     1      -0.978  -9.669  11.571  0.00  0.00    +0.068 C 
BRANCH   8  26
ATOM     26  C   UNL     1      -4.121 -10.883  14.932  0.00  0.00    +0.066 A 
ATOM     28  C   UNL     1      -4.800  -9.900  15.651  0.00  0.00    +0.028 A 
ATOM     29  C   UNL     1      -3.914 -12.142  15.495  0.00  0.00    +0.028 A 
ATOM     30  C   UNL     1      -5.273 -10.176  16.935  0.00  0.00    +0.014 A 
ATOM     31  C   UNL     1      -4.386 -12.418  16.779  0.00  0.00    +0.014 A 
ATOM     32  C   UNL     1      -5.066 -11.436  17.498  0.00  0.00    +0.055 A 
BRANCH  32  33
ATOM      1  F   UNL     1      -6.383 -12.826  18.930  0.00  0.00    -0.166 F 
ATOM      2  F   UNL     1      -6.303 -10.703  19.391  0.00  0.00    -0.166 F 
ATOM      3  F   UNL     1      -4.579 -11.972  19.778  0.00  0.00    -0.166 F 
ATOM     33  C   UNL     1      -5.571 -11.730  18.870  0.00  0.00    +0.417 C 
ENDBRANCH  32  33
ENDBRANCH   8  26
ENDBRANCH  10  13
BRANCH  12   7
ATOM      4  O   UNL     1      -6.136 -12.813   6.376  0.00  0.00    -0.276 OA
ATOM      7  N   UNL     1      -4.895 -10.969   7.042  0.00  0.00    -0.309 N 
ATOM     19  C   UNL     1      -5.284 -11.956   6.152  0.00  0.00    +0.214 C 
ATOM     34  H   UNL     1      -4.155 -10.327   6.771  0.00  0.00    +0.149 HD
BRANCH  19  17
ATOM     17  C   UNL     1      -4.548 -11.886   4.824  0.00  0.00    +0.102 C 
BRANCH  17  16
ATOM     16  C   UNL     1      -3.650 -13.110   4.512  0.00  0.00    -0.017 C 
ATOM     22  C   UNL     1      -2.652 -12.699   3.408  0.00  0.00    +0.012 C 
ATOM     23  C   UNL     1      -4.499 -14.274   3.958  0.00  0.00    +0.012 C 
BRANCH  16  21
ATOM     21  C   UNL     1      -2.885 -13.628   5.754  0.00  0.00    +0.127 C 
BRANCH  21  27
ATOM      6  O   UNL     1      -1.792 -15.630   4.942  0.00  0.00    -0.251 OA
ATOM     27  C   UNL     1      -1.701 -14.519   5.445  0.00  0.00    +0.305 C 
BRANCH  27   5
ATOM      5  O   UNL     1      -0.516 -13.958   5.793  0.00  0.00    -0.481 OA
ATOM     35  H   UNL     1       0.094 -14.614   6.196  0.00  0.00    +0.295 HD
ENDBRANCH  27   5
ENDBRANCH  21  27
ENDBRANCH  16  21
ENDBRANCH  17  16
ENDBRANCH  19  17
ENDBRANCH  12   7
TORSDOF 9
ENDMDL
MODEL 10
REMARK VINA RESULT:      -6.7     25.568     27.959
REMARK  Name = 40777677
REMARK  13 active torsions:
REMARK  status: ('A' for Active; 'I' for Inactive)
REMARK    1  A    between atoms: O_5  and  C_27
REMARK    2  A    between atoms: N_7  and  C_12
REMARK    3  A    between atoms: N_8  and  C_26
REMARK    4  A    between atoms: C_10  and  C_13
REMARK    5  A    between atoms: C_16  and  C_17
REMARK    6  A    between atoms: C_16  and  C_21
REMARK    7  A    between atoms: C_16  and  C_22
REMARK    8  A    between atoms: C_16  and  C_23
REMARK    9  A    between atoms: C_17  and  C_19
REMARK   10  A    between atoms: C_18  and  C_24
REMARK   11  A    between atoms: C_20  and  C_25
REMARK   12  A    between atoms: C_21  and  C_27
REMARK   13  A    between atoms: C_32  and  C_33
REMARK                            x       y       z     vdW  Elec       q    Type
REMARK                         _______ _______ _______ _____ _____    ______ ____
ROOT
ATOM     10  C   UNL     1       8.190  -6.212  34.332  0.00  0.00    +0.047 C 
ATOM     11  C   UNL     1       8.754  -6.237  35.767  0.00  0.00    +0.039 C 
ATOM     12  C   UNL     1       9.356  -4.848  36.005  0.00  0.00    +0.097 C 
ATOM     14  C   UNL     1       8.961  -5.088  33.702  0.00  0.00    -0.021 C 
ATOM     15  C   UNL     1       9.590  -4.345  34.619  0.00  0.00    -0.009 C 
ENDROOT
BRANCH  10  13
ATOM      8  N   UNL     1       7.904  -9.399  32.548  0.00  0.00    -0.236 N 
ATOM      9  N   UNL     1       9.239  -9.416  32.705  0.00  0.00    -0.171 NA
ATOM     13  C   UNL     1       8.312  -7.540  33.619  0.00  0.00    +0.003 A 
ATOM     18  C   UNL     1       7.301  -8.297  33.078  0.00  0.00    +0.046 A 
ATOM     20  C   UNL     1       9.482  -8.278  33.360  0.00  0.00    +0.064 A 
ATOM     24  C   UNL     1       5.844  -8.064  33.022  0.00  0.00    +0.066 C 
ATOM     25  C   UNL     1      10.867  -7.932  33.722  0.00  0.00    +0.068 C 
BRANCH   8  26
ATOM     26  C   UNL     1       7.271 -10.455  31.891  0.00  0.00    +0.066 A 
ATOM     28  C   UNL     1       7.215 -10.476  30.497  0.00  0.00    +0.028 A 
ATOM     29  C   UNL     1       6.689 -11.486  32.628  0.00  0.00    +0.028 A 
ATOM     30  C   UNL     1       6.578 -11.530  29.841  0.00  0.00    +0.014 A 
ATOM     31  C   UNL     1       6.052 -12.539  31.972  0.00  0.00    +0.014 A 
ATOM     32  C   UNL     1       5.997 -12.561  30.579  0.00  0.00    +0.055 A 
BRANCH  32  33
ATOM      1  F   UNL     1       4.114 -13.341  29.327  0.00  0.00    -0.166 F 
ATOM      2  F   UNL     1       5.049 -14.738  30.705  0.00  0.00    -0.166 F 
ATOM      3  F   UNL     1       6.042 -14.208  28.845  0.00  0.00    -0.166 F 
ATOM     33  C   UNL     1       5.315 -13.687  29.877  0.00  0.00    +0.417 C 
ENDBRANCH  32  33
ENDBRANCH   8  26
ENDBRANCH  10  13
BRANCH  12   7
ATOM      4  O   UNL     1       9.351  -4.206  38.808  0.00  0.00    -0.276 OA
ATOM      7  N   UNL     1       8.451  -3.958  36.683  0.00  0.00    -0.309 N 
ATOM     19  C   UNL     1       8.526  -3.710  38.043  0.00  0.00    +0.214 C 
ATOM     34  H   UNL     1       7.709  -3.521  36.144  0.00  0.00    +0.149 HD
BRANCH  19  17
ATOM     17  C   UNL     1       7.469  -2.732  38.531  0.00  0.00    +0.102 C 
BRANCH  17  16
ATOM     16  C   UNL     1       6.184  -3.390  39.094  0.00  0.00    -0.017 C 
ATOM     22  C   UNL     1       5.363  -2.295  39.808  0.00  0.00    +0.012 C 
ATOM     23  C   UNL     1       6.543  -4.459  40.147  0.00  0.00    +0.012 C 
BRANCH  16  21
ATOM     21  C   UNL     1       5.327  -4.070  37.999  0.00  0.00    +0.127 C 
BRANCH  21  27
ATOM      6  O   UNL     1       4.086  -2.359  36.816  0.00  0.00    -0.251 OA
ATOM     27  C   UNL     1       4.988  -3.186  36.817  0.00  0.00    +0.305 C 
BRANCH  27   5
ATOM      5  O   UNL     1       5.789  -3.410  35.746  0.00  0.00    -0.481 OA
ATOM     35  H   UNL     1       6.732  -3.227  35.949  0.00  0.00    +0.295 HD
ENDBRANCH  27   5
ENDBRANCH  21  27
ENDBRANCH  16  21
ENDBRANCH  17  16
ENDBRANCH  19  17
ENDBRANCH  12   7
TORSDOF 9
ENDMDL
