MODEL 1
REMARK VINA RESULT:      -6.7      0.000      0.000
REMARK  Name = 45361678
REMARK  11 active torsions:
REMARK  status: ('A' for Active; 'I' for Inactive)
REMARK    1  A    between atoms: S_1  and  N_6
REMARK    2  A    between atoms: S_1  and  C_24
REMARK    3  A    between atoms: O_2  and  C_12
REMARK    4  A    between atoms: N_6  and  C_16
REMARK    5  A    between atoms: N_7  and  C_25
REMARK    6  A    between atoms: C_9  and  C_19
REMARK    7  A    between atoms: C_11  and  C_21
REMARK    8  A    between atoms: C_15  and  C_20
REMARK    9  A    between atoms: C_20  and  C_22
REMARK   10  A    between atoms: C_20  and  C_23
REMARK   11  A    between atoms: C_25  and  C_26
REMARK                            x       y       z     vdW  Elec       q    Type
REMARK                         _______ _______ _______ _____ _____    ______ ____
ROOT
ATOM      9  C   UNL     1      11.866   8.561  21.389  0.00  0.00    -0.027 C 
ATOM     10  C   UNL     1      13.213   9.303  21.676  0.00  0.00    +0.028 C 
ATOM     11  C   UNL     1      12.952  10.795  22.101  0.00  0.00    +0.011 C 
ATOM     12  C   UNL     1      14.225   9.108  20.510  0.00  0.00    +0.122 C 
ATOM     13  C   UNL     1      12.152   7.071  21.084  0.00  0.00    +0.007 C 
ATOM     14  C   UNL     1      10.977   8.619  22.652  0.00  0.00    +0.008 C 
ATOM     15  C   UNL     1      14.426   7.620  20.139  0.00  0.00    +0.029 C 
ATOM     16  C   UNL     1      11.997  10.838  23.324  0.00  0.00    +0.079 C 
ATOM     17  C   UNL     1      13.110   6.877  19.915  0.00  0.00    +0.007 C 
ATOM     18  C   UNL     1      10.709  10.039  23.128  0.00  0.00    +0.021 C 
ATOM     19  C   UNL     1      11.093   9.174  20.192  0.00  0.00    +0.011 C 
ATOM     21  C   UNL     1      14.236  11.574  22.424  0.00  0.00    +0.009 C 
ENDROOT
BRANCH  12   2
ATOM      2  O   UNL     1      15.505   9.607  20.900  0.00  0.00    -0.391 OA
ATOM     32  H   UNL     1      15.531  10.559  20.704  0.00  0.00    +0.210 HD
ENDBRANCH  12   2
BRANCH  16   6
ATOM      6  N   UNL     1      11.595  12.238  23.626  0.00  0.00    -0.191 NA
ATOM     31  H   UNL     1      11.061  12.749  22.914  0.00  0.00    +0.148 HD
BRANCH   6   1
ATOM      1  S   UNL     1      11.640  12.774  25.240  0.00  0.00    +0.027 S 
ATOM      4  O   UNL     1      12.823  12.258  25.903  0.00  0.00    -0.158 OA
ATOM      5  O   UNL     1      10.323  12.580  25.816  0.00  0.00    -0.158 OA
ATOM     24  C   UNL     1      11.864  14.521  25.003  0.00  0.00    +0.214 C 
ENDBRANCH   6   1
ENDBRANCH  16   6
BRANCH  15  20
ATOM     20  C   UNL     1      15.322   7.457  18.904  0.00  0.00    +0.077 C 
ATOM     22  C   UNL     1      14.502   6.947  17.724  0.00  0.00    +0.017 C 
BRANCH  20  23
ATOM      3  O   UNL     1      16.693   5.487  18.588  0.00  0.00    -0.276 OA
ATOM      7  N   UNL     1      17.245   6.959  20.293  0.00  0.00    -0.311 N 
ATOM     23  C   UNL     1      16.480   6.517  19.222  0.00  0.00    +0.216 C 
ATOM     33  H   UNL     1      17.035   7.850  20.732  0.00  0.00    +0.149 HD
BRANCH   7  25
ATOM     25  C   UNL     1      18.395   6.237  20.783  0.00  0.00    +0.141 C 
BRANCH  25  26
ATOM      8  N   UNL     1      20.898   7.122  23.476  0.00  0.00    -0.263 NA
ATOM     26  C   UNL     1      19.188   7.045  21.769  0.00  0.00    -0.012 A 
ATOM     27  C   UNL     1      18.976   8.412  21.911  0.00  0.00    +0.008 A 
ATOM     28  C   UNL     1      20.151   6.453  22.569  0.00  0.00    +0.115 A 
ATOM     29  C   UNL     1      19.724   9.135  22.833  0.00  0.00    +0.020 A 
ATOM     30  C   UNL     1      20.664   8.449  23.586  0.00  0.00    +0.111 A 
ENDBRANCH  25  26
ENDBRANCH   7  25
ENDBRANCH  20  23
ENDBRANCH  15  20
TORSDOF 7
ENDMDL
MODEL 2
REMARK VINA RESULT:      -6.5     27.479     30.686
REMARK  Name = 45361678
REMARK  11 active torsions:
REMARK  status: ('A' for Active; 'I' for Inactive)
REMARK    1  A    between atoms: S_1  and  N_6
REMARK    2  A    between atoms: S_1  and  C_24
REMARK    3  A    between atoms: O_2  and  C_12
REMARK    4  A    between atoms: N_6  and  C_16
REMARK    5  A    between atoms: N_7  and  C_25
REMARK    6  A    between atoms: C_9  and  C_19
REMARK    7  A    between atoms: C_11  and  C_21
REMARK    8  A    between atoms: C_15  and  C_20
REMARK    9  A    between atoms: C_20  and  C_22
REMARK   10  A    between atoms: C_20  and  C_23
REMARK   11  A    between atoms: C_25  and  C_26
REMARK                            x       y       z     vdW  Elec       q    Type
REMARK                         _______ _______ _______ _____ _____    ______ ____
ROOT
ATOM      9  C   UNL     1     -16.259   6.616  22.024  0.00  0.00    -0.027 C 
ATOM     10  C   UNL     1     -14.847   6.124  22.487  0.00  0.00    +0.028 C 
ATOM     11  C   UNL     1     -13.789   6.296  21.336  0.00  0.00    +0.011 C 
ATOM     12  C   UNL     1     -14.923   4.705  23.120  0.00  0.00    +0.122 C 
ATOM     13  C   UNL     1     -17.248   6.539  23.211  0.00  0.00    +0.007 C 
ATOM     14  C   UNL     1     -16.162   8.096  21.588  0.00  0.00    +0.008 C 
ATOM     15  C   UNL     1     -15.989   4.607  24.236  0.00  0.00    +0.029 C 
ATOM     16  C   UNL     1     -13.759   7.772  20.859  0.00  0.00    +0.079 C 
ATOM     17  C   UNL     1     -17.355   5.140  23.806  0.00  0.00    +0.007 C 
ATOM     18  C   UNL     1     -15.133   8.329  20.492  0.00  0.00    +0.021 C 
ATOM     19  C   UNL     1     -16.824   5.774  20.850  0.00  0.00    +0.011 C 
ATOM     21  C   UNL     1     -12.372   5.856  21.736  0.00  0.00    +0.009 C 
ENDROOT
BRANCH  12   2
ATOM      2  O   UNL     1     -13.670   4.385  23.726  0.00  0.00    -0.391 OA
ATOM     32  H   UNL     1     -13.203   5.218  23.914  0.00  0.00    +0.210 HD
ENDBRANCH  12   2
BRANCH  16   6
ATOM      6  N   UNL     1     -12.899   7.916  19.653  0.00  0.00    -0.191 NA
ATOM     31  H   UNL     1     -13.139   7.362  18.823  0.00  0.00    +0.148 HD
BRANCH   6   1
ATOM      1  S   UNL     1     -11.863   9.261  19.540  0.00  0.00    +0.027 S 
ATOM      4  O   UNL     1     -10.552   8.843  19.084  0.00  0.00    -0.158 OA
ATOM      5  O   UNL     1     -12.012  10.045  20.751  0.00  0.00    -0.158 OA
ATOM     24  C   UNL     1     -12.638  10.166  18.222  0.00  0.00    +0.214 C 
ENDBRANCH   6   1
ENDBRANCH  16   6
BRANCH  15  20
ATOM     20  C   UNL     1     -16.140   3.171  24.754  0.00  0.00    +0.077 C 
ATOM     22  C   UNL     1     -17.079   2.382  23.847  0.00  0.00    +0.017 C 
BRANCH  20  23
ATOM      3  O   UNL     1     -17.823   3.005  26.488  0.00  0.00    -0.276 OA
ATOM      7  N   UNL     1     -15.630   3.432  27.109  0.00  0.00    -0.311 N 
ATOM     23  C   UNL     1     -16.644   3.188  26.194  0.00  0.00    +0.216 C 
ATOM     33  H   UNL     1     -14.670   3.521  26.791  0.00  0.00    +0.149 HD
BRANCH   7  25
ATOM     25  C   UNL     1     -15.860   3.497  28.533  0.00  0.00    +0.141 C 
BRANCH  25  26
ATOM      8  N   UNL     1     -15.347  -0.087  29.624  0.00  0.00    -0.263 NA
ATOM     26  C   UNL     1     -15.303   2.301  29.248  0.00  0.00    -0.012 A 
ATOM     27  C   UNL     1     -14.271   2.434  30.170  0.00  0.00    +0.008 A 
ATOM     28  C   UNL     1     -15.802   1.030  29.014  0.00  0.00    +0.115 A 
ATOM     29  C   UNL     1     -13.775   1.308  30.819  0.00  0.00    +0.020 A 
ATOM     30  C   UNL     1     -14.343   0.081  30.514  0.00  0.00    +0.111 A 
ENDBRANCH  25  26
ENDBRANCH   7  25
ENDBRANCH  20  23
ENDBRANCH  15  20
TORSDOF 7
ENDMDL
MODEL 3
REMARK VINA RESULT:      -6.4     27.799     29.686
REMARK  Name = 45361678
REMARK  11 active torsions:
REMARK  status: ('A' for Active; 'I' for Inactive)
REMARK    1  A    between atoms: S_1  and  N_6
REMARK    2  A    between atoms: S_1  and  C_24
REMARK    3  A    between atoms: O_2  and  C_12
REMARK    4  A    between atoms: N_6  and  C_16
REMARK    5  A    between atoms: N_7  and  C_25
REMARK    6  A    between atoms: C_9  and  C_19
REMARK    7  A    between atoms: C_11  and  C_21
REMARK    8  A    between atoms: C_15  and  C_20
REMARK    9  A    between atoms: C_20  and  C_22
REMARK   10  A    between atoms: C_20  and  C_23
REMARK   11  A    between atoms: C_25  and  C_26
REMARK                            x       y       z     vdW  Elec       q    Type
REMARK                         _______ _______ _______ _____ _____    ______ ____
ROOT
ATOM      9  C   UNL     1      -4.718 -11.069  16.855  0.00  0.00    -0.027 C 
ATOM     10  C   UNL     1      -5.556 -10.575  15.628  0.00  0.00    +0.028 C 
ATOM     11  C   UNL     1      -7.090 -10.836  15.856  0.00  0.00    +0.011 C 
ATOM     12  C   UNL     1      -4.975 -11.122  14.292  0.00  0.00    +0.122 C 
ATOM     13  C   UNL     1      -3.231 -10.698  16.648  0.00  0.00    +0.007 C 
ATOM     14  C   UNL     1      -5.211 -10.345  18.128  0.00  0.00    +0.008 C 
ATOM     15  C   UNL     1      -3.463 -10.839  14.139  0.00  0.00    +0.029 C 
ATOM     16  C   UNL     1      -7.551 -10.165  17.177  0.00  0.00    +0.079 C 
ATOM     17  C   UNL     1      -2.649 -11.267  15.360  0.00  0.00    +0.007 C 
ATOM     18  C   UNL     1      -6.698 -10.539  18.388  0.00  0.00    +0.021 C 
ATOM     19  C   UNL     1      -4.824 -12.602  17.066  0.00  0.00    +0.011 C 
ATOM     21  C   UNL     1      -7.973 -10.348  14.697  0.00  0.00    +0.009 C 
ENDROOT
BRANCH  12   2
ATOM      2  O   UNL     1      -5.622 -10.479  13.192  0.00  0.00    -0.391 OA
ATOM     32  H   UNL     1      -5.606 -11.087  12.433  0.00  0.00    +0.210 HD
ENDBRANCH  12   2
BRANCH  16   6
ATOM      6  N   UNL     1      -8.951 -10.552  17.501  0.00  0.00    -0.191 NA
ATOM     31  H   UNL     1      -9.121 -11.508  17.834  0.00  0.00    +0.148 HD
BRANCH   6   1
ATOM      1  S   UNL     1     -10.109  -9.327  17.726  0.00  0.00    +0.027 S 
ATOM      4  O   UNL     1      -9.524  -8.031  17.441  0.00  0.00    -0.158 OA
ATOM      5  O   UNL     1     -10.788  -9.574  18.983  0.00  0.00    -0.158 OA
ATOM     24  C   UNL     1     -11.253  -9.708  16.420  0.00  0.00    +0.214 C 
ENDBRANCH   6   1
ENDBRANCH  16   6
BRANCH  15  20
ATOM     20  C   UNL     1      -2.884 -11.499  12.881  0.00  0.00    +0.077 C 
ATOM     22  C   UNL     1      -1.671 -12.348  13.245  0.00  0.00    +0.017 C 
BRANCH  20  23
ATOM      3  O   UNL     1      -1.419  -9.901  11.802  0.00  0.00    -0.276 OA
ATOM      7  N   UNL     1      -3.582 -10.141  10.999  0.00  0.00    -0.311 N 
ATOM     23  C   UNL     1      -2.526 -10.432  11.852  0.00  0.00    +0.216 C 
ATOM     33  H   UNL     1      -4.450 -10.662  11.071  0.00  0.00    +0.149 HD
BRANCH   7  25
ATOM     25  C   UNL     1      -3.486  -9.162   9.942  0.00  0.00    +0.141 C 
BRANCH  25  26
ATOM      8  N   UNL     1      -6.951  -8.066   8.900  0.00  0.00    -0.263 NA
ATOM     26  C   UNL     1      -4.760  -9.056   9.157  0.00  0.00    -0.012 A 
ATOM     27  C   UNL     1      -4.957  -9.808   8.004  0.00  0.00    +0.008 A 
ATOM     28  C   UNL     1      -5.780  -8.208   9.559  0.00  0.00    +0.115 A 
ATOM     29  C   UNL     1      -6.149  -9.690   7.298  0.00  0.00    +0.020 A 
ATOM     30  C   UNL     1      -7.107  -8.813   7.783  0.00  0.00    +0.111 A 
ENDBRANCH  25  26
ENDBRANCH   7  25
ENDBRANCH  20  23
ENDBRANCH  15  20
TORSDOF 7
ENDMDL
MODEL 4
REMARK VINA RESULT:      -6.3     26.583     30.266
REMARK  Name = 45361678
REMARK  11 active torsions:
REMARK  status: ('A' for Active; 'I' for Inactive)
REMARK    1  A    between atoms: S_1  and  N_6
REMARK    2  A    between atoms: S_1  and  C_24
REMARK    3  A    between atoms: O_2  and  C_12
REMARK    4  A    between atoms: N_6  and  C_16
REMARK    5  A    between atoms: N_7  and  C_25
REMARK    6  A    between atoms: C_9  and  C_19
REMARK    7  A    between atoms: C_11  and  C_21
REMARK    8  A    between atoms: C_15  and  C_20
REMARK    9  A    between atoms: C_20  and  C_22
REMARK   10  A    between atoms: C_20  and  C_23
REMARK   11  A    between atoms: C_25  and  C_26
REMARK                            x       y       z     vdW  Elec       q    Type
REMARK                         _______ _______ _______ _____ _____    ______ ____
ROOT
ATOM      9  C   UNL     1     -12.717   7.332  20.792  0.00  0.00    -0.027 C 
ATOM     10  C   UNL     1     -13.828   7.215  19.695  0.00  0.00    +0.028 C 
ATOM     11  C   UNL     1     -13.714   8.389  18.655  0.00  0.00    +0.011 C 
ATOM     12  C   UNL     1     -15.233   7.021  20.335  0.00  0.00    +0.122 C 
ATOM     13  C   UNL     1     -12.786   6.104  21.731  0.00  0.00    +0.007 C 
ATOM     14  C   UNL     1     -11.329   7.323  20.109  0.00  0.00    +0.008 C 
ATOM     15  C   UNL     1     -15.269   5.858  21.353  0.00  0.00    +0.029 C 
ATOM     16  C   UNL     1     -12.291   8.412  18.035  0.00  0.00    +0.079 C 
ATOM     17  C   UNL     1     -14.150   5.937  22.390  0.00  0.00    +0.007 C 
ATOM     18  C   UNL     1     -11.168   8.423  19.071  0.00  0.00    +0.021 C 
ATOM     19  C   UNL     1     -12.857   8.619  21.644  0.00  0.00    +0.011 C 
ATOM     21  C   UNL     1     -14.761   8.318  17.533  0.00  0.00    +0.009 C 
ENDROOT
BRANCH  12   2
ATOM      2  O   UNL     1     -16.180   6.699  19.315  0.00  0.00    -0.391 OA
ATOM     32  H   UNL     1     -16.590   7.527  19.010  0.00  0.00    +0.210 HD
ENDBRANCH  12   2
BRANCH  16   6
ATOM      6  N   UNL     1     -12.108   9.621  17.187  0.00  0.00    -0.191 NA
ATOM     31  H   UNL     1     -12.411  10.525  17.568  0.00  0.00    +0.148 HD
BRANCH   6   1
ATOM      1  S   UNL     1     -11.046   9.539  15.861  0.00  0.00    +0.027 S 
ATOM      4  O   UNL     1     -10.516   8.196  15.730  0.00  0.00    -0.158 OA
ATOM      5  O   UNL     1     -10.158  10.684  15.924  0.00  0.00    -0.158 OA
ATOM     24  C   UNL     1     -12.174   9.815  14.516  0.00  0.00    +0.214 C 
ENDBRANCH   6   1
ENDBRANCH  16   6
BRANCH  15  20
ATOM     20  C   UNL     1     -16.624   5.768  22.067  0.00  0.00    +0.077 C 
ATOM     22  C   UNL     1     -16.563   6.506  23.400  0.00  0.00    +0.017 C 
BRANCH  20  23
ATOM      3  O   UNL     1     -17.481   3.619  21.353  0.00  0.00    -0.276 OA
ATOM      7  N   UNL     1     -16.786   3.861  23.553  0.00  0.00    -0.311 N 
ATOM     23  C   UNL     1     -17.015   4.306  22.259  0.00  0.00    +0.216 C 
ATOM     33  H   UNL     1     -16.348   4.476  24.231  0.00  0.00    +0.149 HD
BRANCH   7  25
ATOM     25  C   UNL     1     -17.078   2.512  23.978  0.00  0.00    +0.141 C 
BRANCH  25  26
ATOM      8  N   UNL     1     -16.640   0.795  27.318  0.00  0.00    -0.263 NA
ATOM     26  C   UNL     1     -16.760   2.299  25.429  0.00  0.00    -0.012 A 
ATOM     27  C   UNL     1     -16.312   3.346  26.226  0.00  0.00    +0.008 A 
ATOM     28  C   UNL     1     -16.907   1.054  26.019  0.00  0.00    +0.115 A 
ATOM     29  C   UNL     1     -16.027   3.120  27.568  0.00  0.00    +0.020 A 
ATOM     30  C   UNL     1     -16.206   1.837  28.062  0.00  0.00    +0.111 A 
ENDBRANCH  25  26
ENDBRANCH   7  25
ENDBRANCH  20  23
ENDBRANCH  15  20
TORSDOF 7
ENDMDL
MODEL 5
REMARK VINA RESULT:      -6.3     28.236     30.902
REMARK  Name = 45361678
REMARK  11 active torsions:
REMARK  status: ('A' for Active; 'I' for Inactive)
REMARK    1  A    between atoms: S_1  and  N_6
REMARK    2  A    between atoms: S_1  and  C_24
REMARK    3  A    between atoms: O_2  and  C_12
REMARK    4  A    between atoms: N_6  and  C_16
REMARK    5  A    between atoms: N_7  and  C_25
REMARK    6  A    between atoms: C_9  and  C_19
REMARK    7  A    between atoms: C_11  and  C_21
REMARK    8  A    between atoms: C_15  and  C_20
REMARK    9  A    between atoms: C_20  and  C_22
REMARK   10  A    between atoms: C_20  and  C_23
REMARK   11  A    between atoms: C_25  and  C_26
REMARK                            x       y       z     vdW  Elec       q    Type
REMARK                         _______ _______ _______ _____ _____    ______ ____
ROOT
ATOM      9  C   UNL     1      -4.099 -10.196  10.466  0.00  0.00    -0.027 C 
ATOM     10  C   UNL     1      -5.437  -9.788  11.168  0.00  0.00    +0.028 C 
ATOM     11  C   UNL     1      -5.650 -10.611  12.491  0.00  0.00    +0.011 C 
ATOM     12  C   UNL     1      -6.629  -9.810  10.167  0.00  0.00    +0.122 C 
ATOM     13  C   UNL     1      -3.866  -9.292   9.233  0.00  0.00    +0.007 C 
ATOM     14  C   UNL     1      -2.925  -9.968  11.445  0.00  0.00    +0.008 C 
ATOM     15  C   UNL     1      -6.347  -8.989   8.887  0.00  0.00    +0.029 C 
ATOM     16  C   UNL     1      -4.427 -10.431  13.430  0.00  0.00    +0.079 C 
ATOM     17  C   UNL     1      -5.013  -9.344   8.232  0.00  0.00    +0.007 C 
ATOM     18  C   UNL     1      -3.087 -10.721  12.757  0.00  0.00    +0.021 C 
ATOM     19  C   UNL     1      -4.099 -11.677  10.005  0.00  0.00    +0.011 C 
ATOM     21  C   UNL     1      -6.936 -10.239  13.245  0.00  0.00    +0.009 C 
ENDROOT
BRANCH  12   2
ATOM      2  O   UNL     1      -7.778  -9.225  10.782  0.00  0.00    -0.391 OA
ATOM     32  H   UNL     1      -7.780  -8.274  10.576  0.00  0.00    +0.210 HD
ENDBRANCH  12   2
BRANCH  16   6
ATOM      6  N   UNL     1      -4.527 -11.343  14.602  0.00  0.00    -0.191 NA
ATOM     31  H   UNL     1      -4.458 -12.353  14.432  0.00  0.00    +0.148 HD
BRANCH   6   1
ATOM      1  S   UNL     1      -4.315 -10.698  16.161  0.00  0.00    +0.027 S 
ATOM      4  O   UNL     1      -5.289  -9.652  16.405  0.00  0.00    -0.158 OA
ATOM      5  O   UNL     1      -2.899 -10.454  16.359  0.00  0.00    -0.158 OA
ATOM     24  C   UNL     1      -4.756 -12.100  17.162  0.00  0.00    +0.214 C 
ENDBRANCH   6   1
ENDBRANCH  16   6
BRANCH  15  20
ATOM     20  C   UNL     1      -7.477  -9.132   7.860  0.00  0.00    +0.077 C 
ATOM     22  C   UNL     1      -7.013  -9.985   6.685  0.00  0.00    +0.017 C 
BRANCH  20  23
ATOM      3  O   UNL     1      -8.021  -7.444   6.210  0.00  0.00    -0.276 OA
ATOM      7  N   UNL     1      -8.236  -6.908   8.456  0.00  0.00    -0.311 N 
ATOM     23  C   UNL     1      -7.936  -7.752   7.396  0.00  0.00    +0.216 C 
ATOM     33  H   UNL     1      -8.191  -7.256   9.409  0.00  0.00    +0.149 HD
BRANCH   7  25
ATOM     25  C   UNL     1      -8.690  -5.551   8.270  0.00  0.00    +0.141 C 
BRANCH  25  26
ATOM      8  N   UNL     1     -12.001  -6.217   9.971  0.00  0.00    -0.263 NA
ATOM     26  C   UNL     1     -10.024  -5.310   8.915  0.00  0.00    -0.012 A 
ATOM     27  C   UNL     1     -10.529  -4.023   9.058  0.00  0.00    +0.008 A 
ATOM     28  C   UNL     1     -10.793  -6.364   9.383  0.00  0.00    +0.115 A 
ATOM     29  C   UNL     1     -11.769  -3.831   9.658  0.00  0.00    +0.020 A 
ATOM     30  C   UNL     1     -12.460  -4.950  10.094  0.00  0.00    +0.111 A 
ENDBRANCH  25  26
ENDBRANCH   7  25
ENDBRANCH  20  23
ENDBRANCH  15  20
TORSDOF 7
ENDMDL
MODEL 6
REMARK VINA RESULT:      -6.2      4.367      6.546
REMARK  Name = 45361678
REMARK  11 active torsions:
REMARK  status: ('A' for Active; 'I' for Inactive)
REMARK    1  A    between atoms: S_1  and  N_6
REMARK    2  A    between atoms: S_1  and  C_24
REMARK    3  A    between atoms: O_2  and  C_12
REMARK    4  A    between atoms: N_6  and  C_16
REMARK    5  A    between atoms: N_7  and  C_25
REMARK    6  A    between atoms: C_9  and  C_19
REMARK    7  A    between atoms: C_11  and  C_21
REMARK    8  A    between atoms: C_15  and  C_20
REMARK    9  A    between atoms: C_20  and  C_22
REMARK   10  A    between atoms: C_20  and  C_23
REMARK   11  A    between atoms: C_25  and  C_26
REMARK                            x       y       z     vdW  Elec       q    Type
REMARK                         _______ _______ _______ _____ _____    ______ ____
ROOT
ATOM      9  C   UNL     1      16.867   9.937  20.952  0.00  0.00    -0.027 C 
ATOM     10  C   UNL     1      16.961   8.473  20.407  0.00  0.00    +0.028 C 
ATOM     11  C   UNL     1      15.531   7.899  20.093  0.00  0.00    +0.011 C 
ATOM     12  C   UNL     1      17.851   7.586  21.325  0.00  0.00    +0.122 C 
ATOM     13  C   UNL     1      18.291  10.510  21.144  0.00  0.00    +0.007 C 
ATOM     14  C   UNL     1      16.143  10.819  19.909  0.00  0.00    +0.008 C 
ATOM     15  C   UNL     1      19.237   8.215  21.599  0.00  0.00    +0.029 C 
ATOM     16  C   UNL     1      14.789   8.837  19.103  0.00  0.00    +0.079 C 
ATOM     17  C   UNL     1      19.151   9.664  22.075  0.00  0.00    +0.007 C 
ATOM     18  C   UNL     1      14.760  10.299  19.544  0.00  0.00    +0.021 C 
ATOM     19  C   UNL     1      16.111  10.020  22.303  0.00  0.00    +0.011 C 
ATOM     21  C   UNL     1      15.555   6.471  19.527  0.00  0.00    +0.009 C 
ENDROOT
BRANCH  12   2
ATOM      2  O   UNL     1      18.093   6.331  20.686  0.00  0.00    -0.391 OA
ATOM     32  H   UNL     1      18.812   6.453  20.042  0.00  0.00    +0.210 HD
ENDBRANCH  12   2
BRANCH  16   6
ATOM      6  N   UNL     1      13.374   8.408  18.936  0.00  0.00    -0.191 NA
ATOM     31  H   UNL     1      12.718   8.608  19.700  0.00  0.00    +0.148 HD
BRANCH   6   1
ATOM      1  S   UNL     1      12.814   8.021  17.377  0.00  0.00    +0.027 S 
ATOM      4  O   UNL     1      11.503   7.405  17.457  0.00  0.00    -0.158 OA
ATOM      5  O   UNL     1      13.895   7.375  16.658  0.00  0.00    -0.158 OA
ATOM     24  C   UNL     1      12.612   9.646  16.685  0.00  0.00    +0.214 C 
ENDBRANCH   6   1
ENDBRANCH  16   6
BRANCH  15  20
ATOM     20  C   UNL     1      20.046   7.391  22.609  0.00  0.00    +0.077 C 
ATOM     22  C   UNL     1      20.419   8.254  23.810  0.00  0.00    +0.017 C 
BRANCH  20  23
ATOM      3  O   UNL     1      22.359   7.409  21.894  0.00  0.00    -0.276 OA
ATOM      7  N   UNL     1      21.056   5.560  21.383  0.00  0.00    -0.311 N 
ATOM     23  C   UNL     1      21.286   6.813  21.934  0.00  0.00    +0.216 C 
ATOM     33  H   UNL     1      20.154   5.111  21.505  0.00  0.00    +0.149 HD
BRANCH   7  25
ATOM     25  C   UNL     1      22.077   4.811  20.690  0.00  0.00    +0.141 C 
BRANCH  25  26
ATOM      8  N   UNL     1      22.778   2.629  23.697  0.00  0.00    -0.263 NA
ATOM     26  C   UNL     1      22.637   3.706  21.537  0.00  0.00    -0.012 A 
ATOM     27  C   UNL     1      23.504   2.761  21.001  0.00  0.00    +0.008 A 
ATOM     28  C   UNL     1      22.309   3.597  22.879  0.00  0.00    +0.115 A 
ATOM     29  C   UNL     1      24.009   1.750  21.810  0.00  0.00    +0.020 A 
ATOM     30  C   UNL     1      23.619   1.728  23.140  0.00  0.00    +0.111 A 
ENDBRANCH  25  26
ENDBRANCH   7  25
ENDBRANCH  20  23
ENDBRANCH  15  20
TORSDOF 7
ENDMDL
MODEL 7
REMARK VINA RESULT:      -6.2     27.701     30.120
REMARK  Name = 45361678
REMARK  11 active torsions:
REMARK  status: ('A' for Active; 'I' for Inactive)
REMARK    1  A    between atoms: S_1  and  N_6
REMARK    2  A    between atoms: S_1  and  C_24
REMARK    3  A    between atoms: O_2  and  C_12
REMARK    4  A    between atoms: N_6  and  C_16
REMARK    5  A    between atoms: N_7  and  C_25
REMARK    6  A    between atoms: C_9  and  C_19
REMARK    7  A    between atoms: C_11  and  C_21
REMARK    8  A    between atoms: C_15  and  C_20
REMARK    9  A    between atoms: C_20  and  C_22
REMARK   10  A    between atoms: C_20  and  C_23
REMARK   11  A    between atoms: C_25  and  C_26
REMARK                            x       y       z     vdW  Elec       q    Type
REMARK                         _______ _______ _______ _____ _____    ______ ____
ROOT
ATOM      9  C   UNL     1      -3.336 -10.791  11.066  0.00  0.00    -0.027 C 
ATOM     10  C   UNL     1      -4.654 -10.382  11.804  0.00  0.00    +0.028 C 
ATOM     11  C   UNL     1      -5.434  -9.285  10.990  0.00  0.00    +0.011 C 
ATOM     12  C   UNL     1      -4.382 -10.040  13.297  0.00  0.00    +0.122 C 
ATOM     13  C   UNL     1      -2.652 -11.948  11.833  0.00  0.00    +0.007 C 
ATOM     14  C   UNL     1      -3.687 -11.308   9.652  0.00  0.00    +0.008 C 
ATOM     15  C   UNL     1      -3.604 -11.157  14.032  0.00  0.00    +0.029 C 
ATOM     16  C   UNL     1      -5.712  -9.791   9.549  0.00  0.00    +0.079 C 
ATOM     17  C   UNL     1      -2.348 -11.600  13.284  0.00  0.00    +0.007 C 
ATOM     18  C   UNL     1      -4.467 -10.298   8.824  0.00  0.00    +0.021 C 
ATOM     19  C   UNL     1      -2.334  -9.614  10.944  0.00  0.00    +0.011 C 
ATOM     21  C   UNL     1      -6.755  -8.858  11.648  0.00  0.00    +0.009 C 
ENDROOT
BRANCH  12   2
ATOM      2  O   UNL     1      -5.625  -9.889  13.986  0.00  0.00    -0.391 OA
ATOM     32  H   UNL     1      -5.638 -10.518  14.727  0.00  0.00    +0.210 HD
ENDBRANCH  12   2
BRANCH  16   6
ATOM      6  N   UNL     1      -6.286  -8.702   8.712  0.00  0.00    -0.191 NA
ATOM     31  H   UNL     1      -5.665  -7.935   8.430  0.00  0.00    +0.148 HD
BRANCH   6   1
ATOM      1  S   UNL     1      -7.763  -8.974   7.915  0.00  0.00    +0.027 S 
ATOM      4  O   UNL     1      -8.270 -10.293   8.240  0.00  0.00    -0.158 OA
ATOM      5  O   UNL     1      -7.612  -8.558   6.534  0.00  0.00    -0.158 OA
ATOM     24  C   UNL     1      -8.800  -7.776   8.721  0.00  0.00    +0.214 C 
ENDBRANCH   6   1
ENDBRANCH  16   6
BRANCH  15  20
ATOM     20  C   UNL     1      -3.232 -10.744  15.462  0.00  0.00    +0.077 C 
ATOM     22  C   UNL     1      -1.772 -11.084  15.741  0.00  0.00    +0.017 C 
BRANCH  20  23
ATOM      3  O   UNL     1      -4.420 -12.628  16.411  0.00  0.00    -0.276 OA
ATOM      7  N   UNL     1      -4.668 -10.547  17.404  0.00  0.00    -0.311 N 
ATOM     23  C   UNL     1      -4.161 -11.428  16.459  0.00  0.00    +0.216 C 
ATOM     33  H   UNL     1      -4.364  -9.579  17.408  0.00  0.00    +0.149 HD
BRANCH   7  25
ATOM     25  C   UNL     1      -5.571 -10.959  18.452  0.00  0.00    +0.141 C 
BRANCH  25  26
ATOM      8  N   UNL     1      -9.318 -10.569  18.778  0.00  0.00    -0.263 NA
ATOM     26  C   UNL     1      -6.969 -10.468  18.214  0.00  0.00    -0.012 A 
ATOM     27  C   UNL     1      -7.235  -9.500  17.252  0.00  0.00    +0.008 A 
ATOM     28  C   UNL     1      -8.037 -10.967  18.943  0.00  0.00    +0.115 A 
ATOM     29  C   UNL     1      -8.541  -9.065  17.052  0.00  0.00    +0.020 A 
ATOM     30  C   UNL     1      -9.538  -9.627  17.834  0.00  0.00    +0.111 A 
ENDBRANCH  25  26
ENDBRANCH   7  25
ENDBRANCH  20  23
ENDBRANCH  15  20
TORSDOF 7
ENDMDL
MODEL 8
REMARK VINA RESULT:      -6.2     26.208     29.214
REMARK  Name = 45361678
REMARK  11 active torsions:
REMARK  status: ('A' for Active; 'I' for Inactive)
REMARK    1  A    between atoms: S_1  and  N_6
REMARK    2  A    between atoms: S_1  and  C_24
REMARK    3  A    between atoms: O_2  and  C_12
REMARK    4  A    between atoms: N_6  and  C_16
REMARK    5  A    between atoms: N_7  and  C_25
REMARK    6  A    between atoms: C_9  and  C_19
REMARK    7  A    between atoms: C_11  and  C_21
REMARK    8  A    between atoms: C_15  and  C_20
REMARK    9  A    between atoms: C_20  and  C_22
REMARK   10  A    between atoms: C_20  and  C_23
REMARK   11  A    between atoms: C_25  and  C_26
REMARK                            x       y       z     vdW  Elec       q    Type
REMARK                         _______ _______ _______ _____ _____    ______ ____
ROOT
ATOM      9  C   UNL     1     -15.024   7.798  19.982  0.00  0.00    -0.027 C 
ATOM     10  C   UNL     1     -13.964   6.742  20.442  0.00  0.00    +0.028 C 
ATOM     11  C   UNL     1     -14.338   6.150  21.851  0.00  0.00    +0.011 C 
ATOM     12  C   UNL     1     -12.518   7.301  20.314  0.00  0.00    +0.122 C 
ATOM     13  C   UNL     1     -14.688   8.276  18.549  0.00  0.00    +0.007 C 
ATOM     14  C   UNL     1     -16.418   7.130  19.940  0.00  0.00    +0.008 C 
ATOM     15  C   UNL     1     -12.223   7.875  18.909  0.00  0.00    +0.029 C 
ATOM     16  C   UNL     1     -15.770   5.551  21.811  0.00  0.00    +0.079 C 
ATOM     17  C   UNL     1     -13.287   8.862  18.431  0.00  0.00    +0.007 C 
ATOM     18  C   UNL     1     -16.825   6.515  21.271  0.00  0.00    +0.021 C 
ATOM     19  C   UNL     1     -15.077   9.032  20.919  0.00  0.00    +0.011 C 
ATOM     21  C   UNL     1     -13.350   5.085  22.350  0.00  0.00    +0.009 C 
ENDROOT
BRANCH  12   2
ATOM      2  O   UNL     1     -11.578   6.247  20.530  0.00  0.00    -0.391 OA
ATOM     32  H   UNL     1     -10.702   6.561  20.247  0.00  0.00    +0.210 HD
ENDBRANCH  12   2
BRANCH  16   6
ATOM      6  N   UNL     1     -16.209   5.152  23.176  0.00  0.00    -0.191 NA
ATOM     31  H   UNL     1     -16.431   5.897  23.846  0.00  0.00    +0.148 HD
BRANCH   6   1
ATOM      1  S   UNL     1     -16.735   3.555  23.433  0.00  0.00    +0.027 S 
ATOM      4  O   UNL     1     -15.758   2.829  24.221  0.00  0.00    -0.158 OA
ATOM      5  O   UNL     1     -17.207   3.028  22.166  0.00  0.00    -0.158 OA
ATOM     24  C   UNL     1     -18.162   3.837  24.455  0.00  0.00    +0.214 C 
ENDBRANCH   6   1
ENDBRANCH  16   6
BRANCH  15  20
ATOM     20  C   UNL     1     -10.842   8.539  18.844  0.00  0.00    +0.077 C 
ATOM     22  C   UNL     1     -10.821   9.791  19.713  0.00  0.00    +0.017 C 
BRANCH  20  23
ATOM      3  O   UNL     1     -10.054   9.957  17.046  0.00  0.00    -0.276 OA
ATOM      7  N   UNL     1     -10.715   7.792  16.541  0.00  0.00    -0.311 N 
ATOM     23  C   UNL     1     -10.489   8.863  17.395  0.00  0.00    +0.216 C 
ATOM     33  H   UNL     1     -11.026   6.902  16.916  0.00  0.00    +0.149 HD
BRANCH   7  25
ATOM     25  C   UNL     1     -10.457   7.857  15.122  0.00  0.00    +0.141 C 
BRANCH  25  26
ATOM      8  N   UNL     1     -12.615   9.262  12.353  0.00  0.00    -0.263 NA
ATOM     26  C   UNL     1     -11.674   8.272  14.348  0.00  0.00    -0.012 A 
ATOM     27  C   UNL     1     -12.951   8.079  14.862  0.00  0.00    +0.008 A 
ATOM     28  C   UNL     1     -11.561   8.864  13.100  0.00  0.00    +0.115 A 
ATOM     29  C   UNL     1     -14.061   8.475  14.124  0.00  0.00    +0.020 A 
ATOM     30  C   UNL     1     -13.841   9.058  12.885  0.00  0.00    +0.111 A 
ENDBRANCH  25  26
ENDBRANCH   7  25
ENDBRANCH  20  23
ENDBRANCH  15  20
TORSDOF 7
ENDMDL
MODEL 9
REMARK VINA RESULT:      -6.1     28.308     31.458
REMARK  Name = 45361678
REMARK  11 active torsions:
REMARK  status: ('A' for Active; 'I' for Inactive)
REMARK    1  A    between atoms: S_1  and  N_6
REMARK    2  A    between atoms: S_1  and  C_24
REMARK    3  A    between atoms: O_2  and  C_12
REMARK    4  A    between atoms: N_6  and  C_16
REMARK    5  A    between atoms: N_7  and  C_25
REMARK    6  A    between atoms: C_9  and  C_19
REMARK    7  A    between atoms: C_11  and  C_21
REMARK    8  A    between atoms: C_15  and  C_20
REMARK    9  A    between atoms: C_20  and  C_22
REMARK   10  A    between atoms: C_20  and  C_23
REMARK   11  A    between atoms: C_25  and  C_26
REMARK                            x       y       z     vdW  Elec       q    Type
REMARK                         _______ _______ _______ _____ _____    ______ ____
ROOT
ATOM      9  C   UNL     1      -6.501 -11.465  18.959  0.00  0.00    -0.027 C 
ATOM     10  C   UNL     1      -6.899 -10.859  17.572  0.00  0.00    +0.028 C 
ATOM     11  C   UNL     1      -5.664 -10.164  16.889  0.00  0.00    +0.011 C 
ATOM     12  C   UNL     1      -8.182  -9.986  17.684  0.00  0.00    +0.122 C 
ATOM     13  C   UNL     1      -7.705 -12.236  19.551  0.00  0.00    +0.007 C 
ATOM     14  C   UNL     1      -5.349 -12.475  18.759  0.00  0.00    +0.008 C 
ATOM     15  C   UNL     1      -9.350 -10.728  18.373  0.00  0.00    +0.029 C 
ATOM     16  C   UNL     1      -4.490 -11.172  16.764  0.00  0.00    +0.079 C 
ATOM     17  C   UNL     1      -8.950 -11.370  19.700  0.00  0.00    +0.007 C 
ATOM     18  C   UNL     1      -4.132 -11.866  18.077  0.00  0.00    +0.021 C 
ATOM     19  C   UNL     1      -6.058 -10.380  19.975  0.00  0.00    +0.011 C 
ATOM     21  C   UNL     1      -5.982  -9.571  15.508  0.00  0.00    +0.009 C 
ENDROOT
BRANCH  12   2
ATOM      2  O   UNL     1      -8.636  -9.635  16.376  0.00  0.00    -0.391 OA
ATOM     32  H   UNL     1      -9.608  -9.682  16.371  0.00  0.00    +0.210 HD
ENDBRANCH  12   2
BRANCH  16   6
ATOM      6  N   UNL     1      -3.258 -10.485  16.289  0.00  0.00    -0.191 NA
ATOM     31  H   UNL     1      -2.792  -9.836  16.933  0.00  0.00    +0.148 HD
BRANCH   6   1
ATOM      1  S   UNL     1      -2.450 -11.104  14.927  0.00  0.00    +0.027 S 
ATOM      4  O   UNL     1      -1.064 -11.382  15.254  0.00  0.00    -0.158 OA
ATOM      5  O   UNL     1      -2.791 -10.275  13.786  0.00  0.00    -0.158 OA
ATOM     24  C   UNL     1      -3.286 -12.659  14.723  0.00  0.00    +0.214 C 
ENDBRANCH   6   1
ENDBRANCH  16   6
BRANCH  15  20
ATOM     20  C   UNL     1     -10.558  -9.808  18.593  0.00  0.00    +0.077 C 
ATOM     22  C   UNL     1     -11.243 -10.149  19.912  0.00  0.00    +0.017 C 
BRANCH  20  23
ATOM      3  O   UNL     1     -11.426 -10.808  16.565  0.00  0.00    -0.276 OA
ATOM      7  N   UNL     1     -12.503  -8.945  17.432  0.00  0.00    -0.311 N 
ATOM     23  C   UNL     1     -11.524  -9.929  17.418  0.00  0.00    +0.216 C 
ATOM     33  H   UNL     1     -12.547  -8.285  18.201  0.00  0.00    +0.149 HD
BRANCH   7  25
ATOM     25  C   UNL     1     -13.531  -8.851  16.422  0.00  0.00    +0.141 C 
BRANCH  25  26
ATOM      8  N   UNL     1     -14.182  -6.252  13.754  0.00  0.00    -0.263 NA
ATOM     26  C   UNL     1     -13.357  -7.639  15.555  0.00  0.00    -0.012 A 
ATOM     27  C   UNL     1     -12.264  -6.795  15.713  0.00  0.00    +0.008 A 
ATOM     28  C   UNL     1     -14.279  -7.326  14.569  0.00  0.00    +0.115 A 
ATOM     29  C   UNL     1     -12.128  -5.679  14.894  0.00  0.00    +0.020 A 
ATOM     30  C   UNL     1     -13.105  -5.454  13.937  0.00  0.00    +0.111 A 
ENDBRANCH  25  26
ENDBRANCH   7  25
ENDBRANCH  20  23
ENDBRANCH  15  20
TORSDOF 7
ENDMDL
MODEL 10
REMARK VINA RESULT:      -6.1     27.046     29.568
REMARK  Name = 45361678
REMARK  11 active torsions:
REMARK  status: ('A' for Active; 'I' for Inactive)
REMARK    1  A    between atoms: S_1  and  N_6
REMARK    2  A    between atoms: S_1  and  C_24
REMARK    3  A    between atoms: O_2  and  C_12
REMARK    4  A    between atoms: N_6  and  C_16
REMARK    5  A    between atoms: N_7  and  C_25
REMARK    6  A    between atoms: C_9  and  C_19
REMARK    7  A    between atoms: C_11  and  C_21
REMARK    8  A    between atoms: C_15  and  C_20
REMARK    9  A    between atoms: C_20  and  C_22
REMARK   10  A    between atoms: C_20  and  C_23
REMARK   11  A    between atoms: C_25  and  C_26
REMARK                            x       y       z     vdW  Elec       q    Type
REMARK                         _______ _______ _______ _____ _____    ______ ____
ROOT
ATOM      9  C   UNL     1      -6.146 -11.244  17.857  0.00  0.00    -0.027 C 
ATOM     10  C   UNL     1      -6.039 -10.475  16.498  0.00  0.00    +0.028 C 
ATOM     11  C   UNL     1      -7.386 -10.570  15.693  0.00  0.00    +0.011 C 
ATOM     12  C   UNL     1      -4.760 -10.889  15.715  0.00  0.00    +0.122 C 
ATOM     13  C   UNL     1      -4.847 -11.037  18.672  0.00  0.00    +0.007 C 
ATOM     14  C   UNL     1      -7.316 -10.657  18.680  0.00  0.00    +0.008 C 
ATOM     15  C   UNL     1      -3.476 -10.780  16.569  0.00  0.00    +0.029 C 
ATOM     16  C   UNL     1      -8.562 -10.047  16.562  0.00  0.00    +0.079 C 
ATOM     17  C   UNL     1      -3.598 -11.480  17.922  0.00  0.00    +0.007 C 
ATOM     18  C   UNL     1      -8.645 -10.698  17.941  0.00  0.00    +0.021 C 
ATOM     19  C   UNL     1      -6.373 -12.766  17.661  0.00  0.00    +0.011 C 
ATOM     21  C   UNL     1      -7.357  -9.811  14.358  0.00  0.00    +0.009 C 
ENDROOT
BRANCH  12   2
ATOM      2  O   UNL     1      -4.581 -10.016  14.598  0.00  0.00    -0.391 OA
ATOM     32  H   UNL     1      -3.635 -10.002  14.373  0.00  0.00    +0.210 HD
ENDBRANCH  12   2
BRANCH  16   6
ATOM      6  N   UNL     1      -9.864 -10.298  15.887  0.00  0.00    -0.191 NA
ATOM     31  H   UNL     1     -10.168 -11.272  15.776  0.00  0.00    +0.148 HD
BRANCH   6   1
ATOM      1  S   UNL     1     -10.966  -9.012  15.729  0.00  0.00    +0.027 S 
ATOM      4  O   UNL     1     -12.025  -9.140  16.712  0.00  0.00    -0.158 OA
ATOM      5  O   UNL     1     -11.276  -8.855  14.321  0.00  0.00    -0.158 OA
ATOM     24  C   UNL     1      -9.942  -7.639  16.204  0.00  0.00    +0.214 C 
ENDBRANCH   6   1
ENDBRANCH  16   6
BRANCH  15  20
ATOM     20  C   UNL     1      -2.248 -11.317  15.823  0.00  0.00    +0.077 C 
ATOM     22  C   UNL     1      -1.389 -10.159  15.325  0.00  0.00    +0.017 C 
BRANCH  20  23
ATOM      3  O   UNL     1      -3.277 -13.280  14.847  0.00  0.00    -0.276 OA
ATOM      7  N   UNL     1      -2.357 -11.690  13.430  0.00  0.00    -0.311 N 
ATOM     23  C   UNL     1      -2.691 -12.214  14.671  0.00  0.00    +0.216 C 
ATOM     33  H   UNL     1      -1.919 -10.777  13.367  0.00  0.00    +0.149 HD
BRANCH   7  25
ATOM     25  C   UNL     1      -2.670 -12.359  12.190  0.00  0.00    +0.141 C 
BRANCH  25  26
ATOM      8  N   UNL     1      -4.420 -11.013   9.120  0.00  0.00    -0.263 NA
ATOM     26  C   UNL     1      -3.148 -11.399  11.139  0.00  0.00    -0.012 A 
ATOM     27  C   UNL     1      -2.790 -10.056  11.179  0.00  0.00    +0.008 A 
ATOM     28  C   UNL     1      -3.956 -11.823  10.097  0.00  0.00    +0.115 A 
ATOM     29  C   UNL     1      -3.246  -9.190  10.191  0.00  0.00    +0.020 A 
ATOM     30  C   UNL     1      -4.051  -9.713   9.192  0.00  0.00    +0.111 A 
ENDBRANCH  25  26
ENDBRANCH   7  25
ENDBRANCH  20  23
ENDBRANCH  15  20
TORSDOF 7
ENDMDL
