MODEL 1
REMARK VINA RESULT:      -7.4      0.000      0.000
REMARK  Name = 75536097
REMARK  9 active torsions:
REMARK  status: ('A' for Active; 'I' for Inactive)
REMARK    1  A    between atoms: S_1  and  N_7
REMARK    2  A    between atoms: S_1  and  C_17
REMARK    3  A    between atoms: O_2  and  C_11
REMARK    4  A    between atoms: O_3  and  C_13
REMARK    5  A    between atoms: O_6  and  C_20
REMARK    6  A    between atoms: O_6  and  C_26
REMARK    7  A    between atoms: N_7  and  C_9
REMARK    8  A    between atoms: C_10  and  C_14
REMARK    9  A    between atoms: C_25  and  C_27
REMARK                            x       y       z     vdW  Elec       q    Type
REMARK                         _______ _______ _______ _____ _____    ______ ____
ROOT
ATOM      9  C   UNL     1      12.573   8.468  19.185  0.00  0.00    +0.115 C 
ATOM     10  C   UNL     1      13.950   9.060  18.776  0.00  0.00    +0.043 C 
ATOM     11  C   UNL     1      11.772   8.328  17.884  0.00  0.00    +0.162 C 
ATOM     12  C   UNL     1      13.929   9.116  17.239  0.00  0.00    +0.043 C 
ATOM     13  C   UNL     1      12.454   9.295  16.920  0.00  0.00    +0.145 C 
ENDROOT
BRANCH  10  14
ATOM     14  C   UNL     1      15.136   8.300  19.326  0.00  0.00    -0.042 A 
ATOM     15  C   UNL     1      15.395   7.001  18.888  0.00  0.00    +0.007 A 
ATOM     16  C   UNL     1      15.971   8.898  20.269  0.00  0.00    +0.007 A 
ATOM     18  C   UNL     1      16.490   6.300  19.395  0.00  0.00    +0.046 A 
ATOM     19  C   UNL     1      17.065   8.198  20.775  0.00  0.00    +0.046 A 
ATOM     20  C   UNL     1      17.324   6.898  20.339  0.00  0.00    +0.120 A 
BRANCH  20   6
ATOM      6  O   UNL     1      18.392   6.214  20.833  0.00  0.00    -0.495 OA
ATOM     26  C   UNL     1      19.218   6.895  21.776  0.00  0.00    +0.277 C 
ENDBRANCH  20   6
ENDBRANCH  10  14
BRANCH  11   2
ATOM      2  O   UNL     1      11.905   6.984  17.426  0.00  0.00    -0.388 OA
ATOM     29  H   UNL     1      11.918   7.007  16.454  0.00  0.00    +0.210 HD
ENDBRANCH  11   2
BRANCH  13   3
ATOM      3  O   UNL     1      12.176   9.002  15.566  0.00  0.00    -0.389 OA
ATOM     30  H   UNL     1      12.386   9.797  15.046  0.00  0.00    +0.210 HD
ENDBRANCH  13   3
BRANCH   9   7
ATOM      7  N   UNL     1      11.880   9.420  20.092  0.00  0.00    -0.184 NA
ATOM     28  H   UNL     1      11.684  10.363  19.738  0.00  0.00    +0.148 HD
BRANCH   7   1
ATOM      1  S   UNL     1      11.748   9.068  21.749  0.00  0.00    +0.059 S 
ATOM      4  O   UNL     1      13.047   8.682  22.266  0.00  0.00    -0.153 OA
ATOM      5  O   UNL     1      10.597   8.211  21.954  0.00  0.00    -0.153 OA
BRANCH   1  17
ATOM     17  C   UNL     1      11.341  10.649  22.425  0.00  0.00    +0.105 A 
ATOM     21  C   UNL     1      11.364  11.782  21.612  0.00  0.00    +0.030 A 
ATOM     22  C   UNL     1      10.996  10.764  23.772  0.00  0.00    +0.030 A 
ATOM     23  C   UNL     1      11.042  13.030  22.147  0.00  0.00    +0.021 A 
ATOM     24  C   UNL     1      10.676  12.012  24.307  0.00  0.00    +0.021 A 
ATOM     25  C   UNL     1      10.698  13.145  23.493  0.00  0.00    +0.052 A 
BRANCH  25  27
ATOM      8  N   UNL     1      10.104  15.463  24.483  0.00  0.00    -0.191 NA
ATOM     27  C   UNL     1      10.371  14.424  24.040  0.00  0.00    +0.099 C 
ENDBRANCH  25  27
ENDBRANCH   1  17
ENDBRANCH   7   1
ENDBRANCH   9   7
TORSDOF 8
ENDMDL
MODEL 2
REMARK VINA RESULT:      -7.3      2.416      4.908
REMARK  Name = 75536097
REMARK  9 active torsions:
REMARK  status: ('A' for Active; 'I' for Inactive)
REMARK    1  A    between atoms: S_1  and  N_7
REMARK    2  A    between atoms: S_1  and  C_17
REMARK    3  A    between atoms: O_2  and  C_11
REMARK    4  A    between atoms: O_3  and  C_13
REMARK    5  A    between atoms: O_6  and  C_20
REMARK    6  A    between atoms: O_6  and  C_26
REMARK    7  A    between atoms: N_7  and  C_9
REMARK    8  A    between atoms: C_10  and  C_14
REMARK    9  A    between atoms: C_25  and  C_27
REMARK                            x       y       z     vdW  Elec       q    Type
REMARK                         _______ _______ _______ _____ _____    ______ ____
ROOT
ATOM      9  C   UNL     1      14.828   7.793  20.446  0.00  0.00    +0.115 C 
ATOM     10  C   UNL     1      15.795   9.009  20.431  0.00  0.00    +0.043 C 
ATOM     11  C   UNL     1      15.713   6.556  20.647  0.00  0.00    +0.162 C 
ATOM     12  C   UNL     1      17.183   8.432  20.752  0.00  0.00    +0.043 C 
ATOM     13  C   UNL     1      17.102   7.014  20.209  0.00  0.00    +0.145 C 
ENDROOT
BRANCH  10  14
ATOM     14  C   UNL     1      15.389  10.131  21.361  0.00  0.00    -0.042 A 
ATOM     15  C   UNL     1      15.421  11.453  20.916  0.00  0.00    +0.007 A 
ATOM     16  C   UNL     1      14.981   9.843  22.663  0.00  0.00    +0.007 A 
ATOM     18  C   UNL     1      15.046  12.486  21.774  0.00  0.00    +0.046 A 
ATOM     19  C   UNL     1      14.606  10.877  23.521  0.00  0.00    +0.046 A 
ATOM     20  C   UNL     1      14.639  12.199  23.076  0.00  0.00    +0.120 A 
BRANCH  20   6
ATOM      6  O   UNL     1      14.273  13.208  23.913  0.00  0.00    -0.495 OA
ATOM     26  C   UNL     1      13.335  14.159  23.410  0.00  0.00    +0.277 C 
ENDBRANCH  20   6
ENDBRANCH  10  14
BRANCH  11   2
ATOM      2  O   UNL     1      15.706   6.229  22.036  0.00  0.00    -0.388 OA
ATOM     29  H   UNL     1      16.217   6.914  22.499  0.00  0.00    +0.210 HD
ENDBRANCH  11   2
BRANCH  13   3
ATOM      3  O   UNL     1      18.134   6.200  20.726  0.00  0.00    -0.389 OA
ATOM     30  H   UNL     1      17.854   5.274  20.622  0.00  0.00    +0.210 HD
ENDBRANCH  13   3
BRANCH   9   7
ATOM      7  N   UNL     1      14.138   7.699  19.134  0.00  0.00    -0.184 NA
ATOM     28  H   UNL     1      14.682   7.910  18.290  0.00  0.00    +0.148 HD
BRANCH   7   1
ATOM      1  S   UNL     1      12.443   7.597  19.073  0.00  0.00    +0.059 S 
ATOM      4  O   UNL     1      12.028   6.247  19.406  0.00  0.00    -0.153 OA
ATOM      5  O   UNL     1      11.981   8.221  17.849  0.00  0.00    -0.153 OA
BRANCH   1  17
ATOM     17  C   UNL     1      11.967   8.657  20.404  0.00  0.00    +0.105 A 
ATOM     21  C   UNL     1      12.025  10.042  20.248  0.00  0.00    +0.030 A 
ATOM     22  C   UNL     1      11.533   8.109  21.611  0.00  0.00    +0.030 A 
ATOM     23  C   UNL     1      11.648  10.879  21.299  0.00  0.00    +0.021 A 
ATOM     24  C   UNL     1      11.158   8.946  22.663  0.00  0.00    +0.021 A 
ATOM     25  C   UNL     1      11.215  10.331  22.506  0.00  0.00    +0.052 A 
BRANCH  25  27
ATOM      8  N   UNL     1      10.519  11.885  24.457  0.00  0.00    -0.191 NA
ATOM     27  C   UNL     1      10.831  11.188  23.583  0.00  0.00    +0.099 C 
ENDBRANCH  25  27
ENDBRANCH   1  17
ENDBRANCH   7   1
ENDBRANCH   9   7
TORSDOF 8
ENDMDL
MODEL 3
REMARK VINA RESULT:      -7.0      3.184      8.032
REMARK  Name = 75536097
REMARK  9 active torsions:
REMARK  status: ('A' for Active; 'I' for Inactive)
REMARK    1  A    between atoms: S_1  and  N_7
REMARK    2  A    between atoms: S_1  and  C_17
REMARK    3  A    between atoms: O_2  and  C_11
REMARK    4  A    between atoms: O_3  and  C_13
REMARK    5  A    between atoms: O_6  and  C_20
REMARK    6  A    between atoms: O_6  and  C_26
REMARK    7  A    between atoms: N_7  and  C_9
REMARK    8  A    between atoms: C_10  and  C_14
REMARK    9  A    between atoms: C_25  and  C_27
REMARK                            x       y       z     vdW  Elec       q    Type
REMARK                         _______ _______ _______ _____ _____    ______ ____
ROOT
ATOM      9  C   UNL     1      13.273   8.017  20.732  0.00  0.00    +0.115 C 
ATOM     10  C   UNL     1      12.420   8.446  21.958  0.00  0.00    +0.043 C 
ATOM     11  C   UNL     1      12.622   6.736  20.195  0.00  0.00    +0.162 C 
ATOM     12  C   UNL     1      11.237   7.464  21.996  0.00  0.00    +0.043 C 
ATOM     13  C   UNL     1      11.816   6.202  21.377  0.00  0.00    +0.145 C 
ENDROOT
BRANCH  10  14
ATOM     14  C   UNL     1      11.987   9.895  21.930  0.00  0.00    -0.042 A 
ATOM     15  C   UNL     1      11.217  10.413  22.972  0.00  0.00    +0.007 A 
ATOM     16  C   UNL     1      12.359  10.714  20.864  0.00  0.00    +0.007 A 
ATOM     18  C   UNL     1      10.819  11.749  22.947  0.00  0.00    +0.046 A 
ATOM     19  C   UNL     1      11.961  12.050  20.839  0.00  0.00    +0.046 A 
ATOM     20  C   UNL     1      11.190  12.568  21.880  0.00  0.00    +0.120 A 
BRANCH  20   6
ATOM      6  O   UNL     1      10.802  13.872  21.856  0.00  0.00    -0.495 OA
ATOM     26  C   UNL     1       9.860  14.286  22.845  0.00  0.00    +0.277 C 
ENDBRANCH  20   6
ENDBRANCH  10  14
BRANCH  11   2
ATOM      2  O   UNL     1      11.757   7.097  19.120  0.00  0.00    -0.388 OA
ATOM     29  H   UNL     1      11.759   6.361  18.485  0.00  0.00    +0.210 HD
ENDBRANCH  11   2
BRANCH  13   3
ATOM      3  O   UNL     1      10.799   5.303  20.983  0.00  0.00    -0.389 OA
ATOM     30  H   UNL     1      11.182   4.409  20.991  0.00  0.00    +0.210 HD
ENDBRANCH  13   3
BRANCH   9   7
ATOM      7  N   UNL     1      14.658   7.716  21.180  0.00  0.00    -0.184 NA
ATOM     28  H   UNL     1      14.795   6.919  21.811  0.00  0.00    +0.148 HD
BRANCH   7   1
ATOM      1  S   UNL     1      15.892   8.859  20.941  0.00  0.00    +0.059 S 
ATOM      4  O   UNL     1      16.010   9.696  22.120  0.00  0.00    -0.153 OA
ATOM      5  O   UNL     1      15.726   9.461  19.633  0.00  0.00    -0.153 OA
BRANCH   1  17
ATOM     17  C   UNL     1      17.328   7.831  20.858  0.00  0.00    +0.105 A 
ATOM     21  C   UNL     1      18.449   8.135  21.630  0.00  0.00    +0.030 A 
ATOM     22  C   UNL     1      17.339   6.716  20.019  0.00  0.00    +0.030 A 
ATOM     23  C   UNL     1      19.582   7.323  21.564  0.00  0.00    +0.021 A 
ATOM     24  C   UNL     1      18.473   5.905  19.953  0.00  0.00    +0.021 A 
ATOM     25  C   UNL     1      19.593   6.208  20.726  0.00  0.00    +0.052 A 
BRANCH  25  27
ATOM      8  N   UNL     1      21.697   4.704  20.603  0.00  0.00    -0.191 NA
ATOM     27  C   UNL     1      20.755   5.378  20.658  0.00  0.00    +0.099 C 
ENDBRANCH  25  27
ENDBRANCH   1  17
ENDBRANCH   7   1
ENDBRANCH   9   7
TORSDOF 8
ENDMDL
MODEL 4
REMARK VINA RESULT:      -7.0      2.589      5.429
REMARK  Name = 75536097
REMARK  9 active torsions:
REMARK  status: ('A' for Active; 'I' for Inactive)
REMARK    1  A    between atoms: S_1  and  N_7
REMARK    2  A    between atoms: S_1  and  C_17
REMARK    3  A    between atoms: O_2  and  C_11
REMARK    4  A    between atoms: O_3  and  C_13
REMARK    5  A    between atoms: O_6  and  C_20
REMARK    6  A    between atoms: O_6  and  C_26
REMARK    7  A    between atoms: N_7  and  C_9
REMARK    8  A    between atoms: C_10  and  C_14
REMARK    9  A    between atoms: C_25  and  C_27
REMARK                            x       y       z     vdW  Elec       q    Type
REMARK                         _______ _______ _______ _____ _____    ______ ____
ROOT
ATOM      9  C   UNL     1      13.161   8.795  18.377  0.00  0.00    +0.115 C 
ATOM     10  C   UNL     1      11.747   8.498  18.947  0.00  0.00    +0.043 C 
ATOM     11  C   UNL     1      12.938   9.306  16.947  0.00  0.00    +0.162 C 
ATOM     12  C   UNL     1      10.762   8.973  17.866  0.00  0.00    +0.043 C 
ATOM     13  C   UNL     1      11.549   8.791  16.578  0.00  0.00    +0.145 C 
ENDROOT
BRANCH  10  14
ATOM     14  C   UNL     1      11.485   9.119  20.302  0.00  0.00    -0.042 A 
ATOM     15  C   UNL     1      10.816   8.391  21.285  0.00  0.00    +0.007 A 
ATOM     16  C   UNL     1      11.914  10.419  20.566  0.00  0.00    +0.007 A 
ATOM     18  C   UNL     1      10.576   8.964  22.534  0.00  0.00    +0.046 A 
ATOM     19  C   UNL     1      11.674  10.992  21.815  0.00  0.00    +0.046 A 
ATOM     20  C   UNL     1      11.005  10.264  22.799  0.00  0.00    +0.120 A 
BRANCH  20   6
ATOM      6  O   UNL     1      10.771  10.822  24.018  0.00  0.00    -0.495 OA
ATOM     26  C   UNL     1      10.639  12.242  24.066  0.00  0.00    +0.277 C 
ENDBRANCH  20   6
ENDBRANCH  10  14
BRANCH  11   2
ATOM      2  O   UNL     1      12.953  10.732  16.981  0.00  0.00    -0.388 OA
ATOM     29  H   UNL     1      13.675  11.002  17.574  0.00  0.00    +0.210 HD
ENDBRANCH  11   2
BRANCH  13   3
ATOM      3  O   UNL     1      10.968   9.508  15.508  0.00  0.00    -0.389 OA
ATOM     30  H   UNL     1      11.530  10.284  15.337  0.00  0.00    +0.210 HD
ENDBRANCH  13   3
BRANCH   9   7
ATOM      7  N   UNL     1      13.947   7.534  18.333  0.00  0.00    -0.184 NA
ATOM     28  H   UNL     1      13.902   6.971  17.477  0.00  0.00    +0.148 HD
BRANCH   7   1
ATOM      1  S   UNL     1      14.594   6.890  19.766  0.00  0.00    +0.059 S 
ATOM      4  O   UNL     1      15.790   6.130  19.456  0.00  0.00    -0.153 OA
ATOM      5  O   UNL     1      13.522   6.283  20.532  0.00  0.00    -0.153 OA
BRANCH   1  17
ATOM     17  C   UNL     1      15.085   8.350  20.632  0.00  0.00    +0.105 A 
ATOM     21  C   UNL     1      14.629   8.577  21.931  0.00  0.00    +0.030 A 
ATOM     22  C   UNL     1      15.929   9.275  20.017  0.00  0.00    +0.030 A 
ATOM     23  C   UNL     1      15.017   9.729  22.615  0.00  0.00    +0.021 A 
ATOM     24  C   UNL     1      16.316  10.428  20.701  0.00  0.00    +0.021 A 
ATOM     25  C   UNL     1      15.861  10.654  22.000  0.00  0.00    +0.052 A 
BRANCH  25  27
ATOM      8  N   UNL     1      16.578  12.795  23.268  0.00  0.00    -0.191 NA
ATOM     27  C   UNL     1      16.257  11.835  22.700  0.00  0.00    +0.099 C 
ENDBRANCH  25  27
ENDBRANCH   1  17
ENDBRANCH   7   1
ENDBRANCH   9   7
TORSDOF 8
ENDMDL
MODEL 5
REMARK VINA RESULT:      -7.0      2.834      6.455
REMARK  Name = 75536097
REMARK  9 active torsions:
REMARK  status: ('A' for Active; 'I' for Inactive)
REMARK    1  A    between atoms: S_1  and  N_7
REMARK    2  A    between atoms: S_1  and  C_17
REMARK    3  A    between atoms: O_2  and  C_11
REMARK    4  A    between atoms: O_3  and  C_13
REMARK    5  A    between atoms: O_6  and  C_20
REMARK    6  A    between atoms: O_6  and  C_26
REMARK    7  A    between atoms: N_7  and  C_9
REMARK    8  A    between atoms: C_10  and  C_14
REMARK    9  A    between atoms: C_25  and  C_27
REMARK                            x       y       z     vdW  Elec       q    Type
REMARK                         _______ _______ _______ _____ _____    ______ ____
ROOT
ATOM      9  C   UNL     1      11.649  10.480  21.779  0.00  0.00    +0.115 C 
ATOM     10  C   UNL     1      13.181  10.735  21.812  0.00  0.00    +0.043 C 
ATOM     11  C   UNL     1      11.038  11.465  22.784  0.00  0.00    +0.162 C 
ATOM     12  C   UNL     1      13.374  11.945  22.742  0.00  0.00    +0.043 C 
ATOM     13  C   UNL     1      12.201  11.833  23.701  0.00  0.00    +0.145 C 
ENDROOT
BRANCH  10  14
ATOM     14  C   UNL     1      13.803  10.931  20.447  0.00  0.00    -0.042 A 
ATOM     15  C   UNL     1      15.185  11.076  20.325  0.00  0.00    +0.007 A 
ATOM     16  C   UNL     1      12.995  10.965  19.311  0.00  0.00    +0.007 A 
ATOM     18  C   UNL     1      15.758  11.255  19.066  0.00  0.00    +0.046 A 
ATOM     19  C   UNL     1      13.568  11.145  18.052  0.00  0.00    +0.046 A 
ATOM     20  C   UNL     1      14.949  11.291  17.930  0.00  0.00    +0.120 A 
BRANCH  20   6
ATOM      6  O   UNL     1      15.509  11.466  16.702  0.00  0.00    -0.495 OA
ATOM     26  C   UNL     1      14.900  10.781  15.608  0.00  0.00    +0.277 C 
ENDBRANCH  20   6
ENDBRANCH  10  14
BRANCH  11   2
ATOM      2  O   UNL     1      10.585  12.608  22.062  0.00  0.00    -0.388 OA
ATOM     29  H   UNL     1      11.108  13.370  22.365  0.00  0.00    +0.210 HD
ENDBRANCH  11   2
BRANCH  13   3
ATOM      3  O   UNL     1      11.983  13.042  24.400  0.00  0.00    -0.389 OA
ATOM     30  H   UNL     1      11.645  13.692  23.760  0.00  0.00    +0.210 HD
ENDBRANCH  13   3
BRANCH   9   7
ATOM      7  N   UNL     1      11.375   9.088  22.221  0.00  0.00    -0.184 NA
ATOM     28  H   UNL     1      11.533   8.859  23.209  0.00  0.00    +0.148 HD
BRANCH   7   1
ATOM      1  S   UNL     1      11.155   7.860  21.068  0.00  0.00    +0.059 S 
ATOM      4  O   UNL     1      10.522   8.416  19.886  0.00  0.00    -0.153 OA
ATOM      5  O   UNL     1      10.584   6.700  21.723  0.00  0.00    -0.153 OA
BRANCH   1  17
ATOM     17  C   UNL     1      12.823   7.450  20.651  0.00  0.00    +0.105 A 
ATOM     21  C   UNL     1      13.189   7.295  19.314  0.00  0.00    +0.030 A 
ATOM     22  C   UNL     1      13.772   7.282  21.659  0.00  0.00    +0.030 A 
ATOM     23  C   UNL     1      14.506   6.972  18.986  0.00  0.00    +0.021 A 
ATOM     24  C   UNL     1      15.089   6.958  21.330  0.00  0.00    +0.021 A 
ATOM     25  C   UNL     1      15.456   6.804  19.993  0.00  0.00    +0.052 A 
BRANCH  25  27
ATOM      8  N   UNL     1      17.898   6.200  19.382  0.00  0.00    -0.191 NA
ATOM     27  C   UNL     1      16.804   6.471  19.656  0.00  0.00    +0.099 C 
ENDBRANCH  25  27
ENDBRANCH   1  17
ENDBRANCH   7   1
ENDBRANCH   9   7
TORSDOF 8
ENDMDL
MODEL 6
REMARK VINA RESULT:      -7.0      2.771      7.562
REMARK  Name = 75536097
REMARK  9 active torsions:
REMARK  status: ('A' for Active; 'I' for Inactive)
REMARK    1  A    between atoms: S_1  and  N_7
REMARK    2  A    between atoms: S_1  and  C_17
REMARK    3  A    between atoms: O_2  and  C_11
REMARK    4  A    between atoms: O_3  and  C_13
REMARK    5  A    between atoms: O_6  and  C_20
REMARK    6  A    between atoms: O_6  and  C_26
REMARK    7  A    between atoms: N_7  and  C_9
REMARK    8  A    between atoms: C_10  and  C_14
REMARK    9  A    between atoms: C_25  and  C_27
REMARK                            x       y       z     vdW  Elec       q    Type
REMARK                         _______ _______ _______ _____ _____    ______ ____
ROOT
ATOM      9  C   UNL     1      13.617   9.245  19.322  0.00  0.00    +0.115 C 
ATOM     10  C   UNL     1      12.375   8.797  20.141  0.00  0.00    +0.043 C 
ATOM     11  C   UNL     1      13.251   9.021  17.849  0.00  0.00    +0.162 C 
ATOM     12  C   UNL     1      11.299   8.454  19.098  0.00  0.00    +0.043 C 
ATOM     13  C   UNL     1      12.114   8.003  17.897  0.00  0.00    +0.145 C 
ENDROOT
BRANCH  10  14
ATOM     14  C   UNL     1      11.910   9.813  21.161  0.00  0.00    -0.042 A 
ATOM     15  C   UNL     1      12.051  11.177  20.901  0.00  0.00    +0.007 A 
ATOM     16  C   UNL     1      11.340   9.387  22.360  0.00  0.00    +0.007 A 
ATOM     18  C   UNL     1      11.621  12.113  21.841  0.00  0.00    +0.046 A 
ATOM     19  C   UNL     1      10.911  10.323  23.300  0.00  0.00    +0.046 A 
ATOM     20  C   UNL     1      11.052  11.687  23.041  0.00  0.00    +0.120 A 
BRANCH  20   6
ATOM      6  O   UNL     1      10.632  12.601  23.957  0.00  0.00    -0.495 OA
ATOM     26  C   UNL     1      10.918  12.323  25.327  0.00  0.00    +0.277 C 
ENDBRANCH  20   6
ENDBRANCH  10  14
BRANCH  11   2
ATOM      2  O   UNL     1      12.793  10.261  17.314  0.00  0.00    -0.388 OA
ATOM     29  H   UNL     1      13.203  10.370  16.439  0.00  0.00    +0.210 HD
ENDBRANCH  11   2
BRANCH  13   3
ATOM      3  O   UNL     1      11.339   7.995  16.716  0.00  0.00    -0.389 OA
ATOM     30  H   UNL     1      10.562   8.560  16.872  0.00  0.00    +0.210 HD
ENDBRANCH  13   3
BRANCH   9   7
ATOM      7  N   UNL     1      14.776   8.387  19.679  0.00  0.00    -0.184 NA
ATOM     28  H   UNL     1      14.999   7.600  19.059  0.00  0.00    +0.148 HD
BRANCH   7   1
ATOM      1  S   UNL     1      15.466   8.497  21.228  0.00  0.00    +0.059 S 
ATOM      4  O   UNL     1      14.668   7.731  22.167  0.00  0.00    -0.153 OA
ATOM      5  O   UNL     1      15.783   9.884  21.501  0.00  0.00    -0.153 OA
BRANCH   1  17
ATOM     17  C   UNL     1      17.002   7.651  21.002  0.00  0.00    +0.105 A 
ATOM     21  C   UNL     1      18.157   8.126  21.623  0.00  0.00    +0.030 A 
ATOM     22  C   UNL     1      17.058   6.509  20.203  0.00  0.00    +0.030 A 
ATOM     23  C   UNL     1      19.369   7.457  21.445  0.00  0.00    +0.021 A 
ATOM     24  C   UNL     1      18.270   5.841  20.025  0.00  0.00    +0.021 A 
ATOM     25  C   UNL     1      19.425   6.315  20.647  0.00  0.00    +0.052 A 
BRANCH  25  27
ATOM      8  N   UNL     1      21.676   5.078  20.315  0.00  0.00    -0.191 NA
ATOM     27  C   UNL     1      20.667   5.633  20.463  0.00  0.00    +0.099 C 
ENDBRANCH  25  27
ENDBRANCH   1  17
ENDBRANCH   7   1
ENDBRANCH   9   7
TORSDOF 8
ENDMDL
MODEL 7
REMARK VINA RESULT:      -6.9      1.696      2.101
REMARK  Name = 75536097
REMARK  9 active torsions:
REMARK  status: ('A' for Active; 'I' for Inactive)
REMARK    1  A    between atoms: S_1  and  N_7
REMARK    2  A    between atoms: S_1  and  C_17
REMARK    3  A    between atoms: O_2  and  C_11
REMARK    4  A    between atoms: O_3  and  C_13
REMARK    5  A    between atoms: O_6  and  C_20
REMARK    6  A    between atoms: O_6  and  C_26
REMARK    7  A    between atoms: N_7  and  C_9
REMARK    8  A    between atoms: C_10  and  C_14
REMARK    9  A    between atoms: C_25  and  C_27
REMARK                            x       y       z     vdW  Elec       q    Type
REMARK                         _______ _______ _______ _____ _____    ______ ____
ROOT
ATOM      9  C   UNL     1      13.562   7.733  20.445  0.00  0.00    +0.115 C 
ATOM     10  C   UNL     1      14.654   8.029  19.380  0.00  0.00    +0.043 C 
ATOM     11  C   UNL     1      12.312   7.317  19.659  0.00  0.00    +0.162 C 
ATOM     12  C   UNL     1      14.023   7.647  18.031  0.00  0.00    +0.043 C 
ATOM     13  C   UNL     1      12.541   7.888  18.262  0.00  0.00    +0.145 C 
ENDROOT
BRANCH  10  14
ATOM     14  C   UNL     1      15.972   7.332  19.638  0.00  0.00    -0.042 A 
ATOM     15  C   UNL     1      16.354   6.249  18.846  0.00  0.00    +0.007 A 
ATOM     16  C   UNL     1      16.804   7.772  20.666  0.00  0.00    +0.007 A 
ATOM     18  C   UNL     1      17.569   5.607  19.083  0.00  0.00    +0.046 A 
ATOM     19  C   UNL     1      18.019   7.130  20.904  0.00  0.00    +0.046 A 
ATOM     20  C   UNL     1      18.401   6.047  20.113  0.00  0.00    +0.120 A 
BRANCH  20   6
ATOM      6  O   UNL     1      19.587   5.420  20.343  0.00  0.00    -0.495 OA
ATOM     26  C   UNL     1      20.661   6.223  20.831  0.00  0.00    +0.277 C 
ENDBRANCH  20   6
ENDBRANCH  10  14
BRANCH  11   2
ATOM      2  O   UNL     1      12.269   5.892  19.619  0.00  0.00    -0.388 OA
ATOM     29  H   UNL     1      11.536   5.638  19.032  0.00  0.00    +0.210 HD
ENDBRANCH  11   2
BRANCH  13   3
ATOM      3  O   UNL     1      11.751   7.254  17.277  0.00  0.00    -0.389 OA
ATOM     30  H   UNL     1      11.090   7.899  16.973  0.00  0.00    +0.210 HD
ENDBRANCH  13   3
BRANCH   9   7
ATOM      7  N   UNL     1      13.275   8.974  21.210  0.00  0.00    -0.184 NA
ATOM     28  H   UNL     1      14.071   9.543  21.518  0.00  0.00    +0.148 HD
BRANCH   7   1
ATOM      1  S   UNL     1      11.721   9.236  21.845  0.00  0.00    +0.059 S 
ATOM      4  O   UNL     1      11.269   8.038  22.526  0.00  0.00    -0.153 OA
ATOM      5  O   UNL     1      10.895   9.850  20.823  0.00  0.00    -0.153 OA
BRANCH   1  17
ATOM     17  C   UNL     1      12.032  10.474  23.068  0.00  0.00    +0.105 A 
ATOM     21  C   UNL     1      11.043  10.801  23.996  0.00  0.00    +0.030 A 
ATOM     22  C   UNL     1      13.267  11.122  23.106  0.00  0.00    +0.030 A 
ATOM     23  C   UNL     1      11.290  11.777  24.962  0.00  0.00    +0.021 A 
ATOM     24  C   UNL     1      13.513  12.099  24.071  0.00  0.00    +0.021 A 
ATOM     25  C   UNL     1      12.524  12.425  25.000  0.00  0.00    +0.052 A 
BRANCH  25  27
ATOM      8  N   UNL     1      12.978  14.239  26.791  0.00  0.00    -0.191 NA
ATOM     27  C   UNL     1      12.775  13.427  25.988  0.00  0.00    +0.099 C 
ENDBRANCH  25  27
ENDBRANCH   1  17
ENDBRANCH   7   1
ENDBRANCH   9   7
TORSDOF 8
ENDMDL
MODEL 8
REMARK VINA RESULT:      -6.9      3.165      6.381
REMARK  Name = 75536097
REMARK  9 active torsions:
REMARK  status: ('A' for Active; 'I' for Inactive)
REMARK    1  A    between atoms: S_1  and  N_7
REMARK    2  A    between atoms: S_1  and  C_17
REMARK    3  A    between atoms: O_2  and  C_11
REMARK    4  A    between atoms: O_3  and  C_13
REMARK    5  A    between atoms: O_6  and  C_20
REMARK    6  A    between atoms: O_6  and  C_26
REMARK    7  A    between atoms: N_7  and  C_9
REMARK    8  A    between atoms: C_10  and  C_14
REMARK    9  A    between atoms: C_25  and  C_27
REMARK                            x       y       z     vdW  Elec       q    Type
REMARK                         _______ _______ _______ _____ _____    ______ ____
ROOT
ATOM      9  C   UNL     1      12.023  10.066  22.163  0.00  0.00    +0.115 C 
ATOM     10  C   UNL     1      13.464  10.648  22.130  0.00  0.00    +0.043 C 
ATOM     11  C   UNL     1      11.273  10.863  23.238  0.00  0.00    +0.162 C 
ATOM     12  C   UNL     1      13.444  11.842  23.100  0.00  0.00    +0.043 C 
ATOM     13  C   UNL     1      12.380  11.447  24.111  0.00  0.00    +0.145 C 
ENDROOT
BRANCH  10  14
ATOM     14  C   UNL     1      13.949  11.017  20.746  0.00  0.00    -0.042 A 
ATOM     15  C   UNL     1      13.095  11.674  19.860  0.00  0.00    +0.007 A 
ATOM     16  C   UNL     1      15.249  10.700  20.356  0.00  0.00    +0.007 A 
ATOM     18  C   UNL     1      13.543  12.014  18.584  0.00  0.00    +0.046 A 
ATOM     19  C   UNL     1      15.698  11.041  19.080  0.00  0.00    +0.046 A 
ATOM     20  C   UNL     1      14.844  11.697  18.193  0.00  0.00    +0.120 A 
BRANCH  20   6
ATOM      6  O   UNL     1      15.280  12.030  16.948  0.00  0.00    -0.495 OA
ATOM     26  C   UNL     1      14.305  12.518  16.028  0.00  0.00    +0.277 C 
ENDBRANCH  20   6
ENDBRANCH  10  14
BRANCH  11   2
ATOM      2  O   UNL     1      10.543  11.902  22.589  0.00  0.00    -0.388 OA
ATOM     29  H   UNL     1       9.972  11.484  21.921  0.00  0.00    +0.210 HD
ENDBRANCH  11   2
BRANCH  13   3
ATOM      3  O   UNL     1      11.947  12.558  24.870  0.00  0.00    -0.389 OA
ATOM     30  H   UNL     1      11.576  13.209  24.250  0.00  0.00    +0.210 HD
ENDBRANCH  13   3
BRANCH   9   7
ATOM      7  N   UNL     1      12.082   8.635  22.559  0.00  0.00    -0.184 NA
ATOM     28  H   UNL     1      12.727   8.372  23.312  0.00  0.00    +0.148 HD
BRANCH   7   1
ATOM      1  S   UNL     1      11.376   7.452  21.564  0.00  0.00    +0.059 S 
ATOM      4  O   UNL     1       9.948   7.691  21.468  0.00  0.00    -0.153 OA
ATOM      5  O   UNL     1      11.872   6.149  21.964  0.00  0.00    -0.153 OA
BRANCH   1  17
ATOM     17  C   UNL     1      12.097   7.819  19.993  0.00  0.00    +0.105 A 
ATOM     21  C   UNL     1      11.344   8.466  19.014  0.00  0.00    +0.030 A 
ATOM     22  C   UNL     1      13.421   7.463  19.733  0.00  0.00    +0.030 A 
ATOM     23  C   UNL     1      11.914   8.757  17.774  0.00  0.00    +0.021 A 
ATOM     24  C   UNL     1      13.991   7.753  18.493  0.00  0.00    +0.021 A 
ATOM     25  C   UNL     1      13.237   8.401  17.514  0.00  0.00    +0.052 A 
BRANCH  25  27
ATOM      8  N   UNL     1      14.293   8.938  15.212  0.00  0.00    -0.191 NA
ATOM     27  C   UNL     1      13.819   8.697  16.243  0.00  0.00    +0.099 C 
ENDBRANCH  25  27
ENDBRANCH   1  17
ENDBRANCH   7   1
ENDBRANCH   9   7
TORSDOF 8
ENDMDL
MODEL 9
REMARK VINA RESULT:      -6.6     26.743     29.102
REMARK  Name = 75536097
REMARK  9 active torsions:
REMARK  status: ('A' for Active; 'I' for Inactive)
REMARK    1  A    between atoms: S_1  and  N_7
REMARK    2  A    between atoms: S_1  and  C_17
REMARK    3  A    between atoms: O_2  and  C_11
REMARK    4  A    between atoms: O_3  and  C_13
REMARK    5  A    between atoms: O_6  and  C_20
REMARK    6  A    between atoms: O_6  and  C_26
REMARK    7  A    between atoms: N_7  and  C_9
REMARK    8  A    between atoms: C_10  and  C_14
REMARK    9  A    between atoms: C_25  and  C_27
REMARK                            x       y       z     vdW  Elec       q    Type
REMARK                         _______ _______ _______ _____ _____    ______ ____
ROOT
ATOM      9  C   UNL     1      -4.433 -11.191  15.203  0.00  0.00    +0.115 C 
ATOM     10  C   UNL     1      -4.273 -10.590  16.627  0.00  0.00    +0.043 C 
ATOM     11  C   UNL     1      -3.024 -11.611  14.764  0.00  0.00    +0.162 C 
ATOM     12  C   UNL     1      -2.797 -10.808  16.999  0.00  0.00    +0.043 C 
ATOM     13  C   UNL     1      -2.094 -10.787  15.652  0.00  0.00    +0.145 C 
ENDROOT
BRANCH  10  14
ATOM     14  C   UNL     1      -5.233 -11.161  17.647  0.00  0.00    -0.042 A 
ATOM     15  C   UNL     1      -5.587 -10.410  18.768  0.00  0.00    +0.007 A 
ATOM     16  C   UNL     1      -5.765 -12.437  17.466  0.00  0.00    +0.007 A 
ATOM     18  C   UNL     1      -6.472 -10.936  19.708  0.00  0.00    +0.046 A 
ATOM     19  C   UNL     1      -6.650 -12.964  18.406  0.00  0.00    +0.046 A 
ATOM     20  C   UNL     1      -7.004 -12.213  19.528  0.00  0.00    +0.120 A 
BRANCH  20   6
ATOM      6  O   UNL     1      -7.868 -12.726  20.446  0.00  0.00    -0.495 OA
ATOM     26  C   UNL     1      -8.954 -13.507  19.948  0.00  0.00    +0.277 C 
ENDBRANCH  20   6
ENDBRANCH  10  14
BRANCH  11   2
ATOM      2  O   UNL     1      -2.874 -13.004  15.035  0.00  0.00    -0.388 OA
ATOM     29  H   UNL     1      -1.962 -13.249  14.803  0.00  0.00    +0.210 HD
ENDBRANCH  11   2
BRANCH  13   3
ATOM      3  O   UNL     1      -0.794 -11.333  15.735  0.00  0.00    -0.389 OA
ATOM     30  H   UNL     1      -0.688 -11.951  14.991  0.00  0.00    +0.210 HD
ENDBRANCH  13   3
BRANCH   9   7
ATOM      7  N   UNL     1      -4.944 -10.141  14.283  0.00  0.00    -0.184 NA
ATOM     28  H   UNL     1      -4.467  -9.233  14.280  0.00  0.00    +0.148 HD
BRANCH   7   1
ATOM      1  S   UNL     1      -6.461 -10.330  13.542  0.00  0.00    +0.059 S 
ATOM      4  O   UNL     1      -6.530 -11.633  12.908  0.00  0.00    -0.153 OA
ATOM      5  O   UNL     1      -6.764  -9.132  12.784  0.00  0.00    -0.153 OA
BRANCH   1  17
ATOM     17  C   UNL     1      -7.547 -10.346  14.937  0.00  0.00    +0.105 A 
ATOM     21  C   UNL     1      -8.360 -11.453  15.175  0.00  0.00    +0.030 A 
ATOM     22  C   UNL     1      -7.589  -9.250  15.800  0.00  0.00    +0.030 A 
ATOM     23  C   UNL     1      -9.216 -11.465  16.277  0.00  0.00    +0.021 A 
ATOM     24  C   UNL     1      -8.446  -9.262  16.901  0.00  0.00    +0.021 A 
ATOM     25  C   UNL     1      -9.259 -10.370  17.139  0.00  0.00    +0.052 A 
BRANCH  25  27
ATOM      8  N   UNL     1     -10.852 -10.393  19.181  0.00  0.00    -0.191 NA
ATOM     27  C   UNL     1     -10.138 -10.383  18.266  0.00  0.00    +0.099 C 
ENDBRANCH  25  27
ENDBRANCH   1  17
ENDBRANCH   7   1
ENDBRANCH   9   7
TORSDOF 8
ENDMDL
MODEL 10
REMARK VINA RESULT:      -6.6     24.969     27.359
REMARK  Name = 75536097
REMARK  9 active torsions:
REMARK  status: ('A' for Active; 'I' for Inactive)
REMARK    1  A    between atoms: S_1  and  N_7
REMARK    2  A    between atoms: S_1  and  C_17
REMARK    3  A    between atoms: O_2  and  C_11
REMARK    4  A    between atoms: O_3  and  C_13
REMARK    5  A    between atoms: O_6  and  C_20
REMARK    6  A    between atoms: O_6  and  C_26
REMARK    7  A    between atoms: N_7  and  C_9
REMARK    8  A    between atoms: C_10  and  C_14
REMARK    9  A    between atoms: C_25  and  C_27
REMARK                            x       y       z     vdW  Elec       q    Type
REMARK                         _______ _______ _______ _____ _____    ______ ____
ROOT
ATOM      9  C   UNL     1     -14.972   7.341  22.628  0.00  0.00    +0.115 C 
ATOM     10  C   UNL     1     -15.036   6.954  21.124  0.00  0.00    +0.043 C 
ATOM     11  C   UNL     1     -15.374   6.079  23.403  0.00  0.00    +0.162 C 
ATOM     12  C   UNL     1     -15.348   5.448  21.102  0.00  0.00    +0.043 C 
ATOM     13  C   UNL     1     -16.141   5.241  22.382  0.00  0.00    +0.145 C 
ENDROOT
BRANCH  10  14
ATOM     14  C   UNL     1     -13.792   7.314  20.342  0.00  0.00    -0.042 A 
ATOM     15  C   UNL     1     -12.534   7.172  20.929  0.00  0.00    +0.007 A 
ATOM     16  C   UNL     1     -13.903   7.786  19.035  0.00  0.00    +0.007 A 
ATOM     18  C   UNL     1     -11.388   7.503  20.207  0.00  0.00    +0.046 A 
ATOM     19  C   UNL     1     -12.756   8.117  18.313  0.00  0.00    +0.046 A 
ATOM     20  C   UNL     1     -11.498   7.976  18.900  0.00  0.00    +0.120 A 
BRANCH  20   6
ATOM      6  O   UNL     1     -10.379   8.298  18.196  0.00  0.00    -0.495 OA
ATOM     26  C   UNL     1     -10.540   8.551  16.801  0.00  0.00    +0.277 C 
ENDBRANCH  20   6
ENDBRANCH  10  14
BRANCH  11   2
ATOM      2  O   UNL     1     -14.181   5.410  23.807  0.00  0.00    -0.388 OA
ATOM     29  H   UNL     1     -14.230   5.282  24.770  0.00  0.00    +0.210 HD
ENDBRANCH  11   2
BRANCH  13   3
ATOM      3  O   UNL     1     -16.207   3.875  22.737  0.00  0.00    -0.389 OA
ATOM     30  H   UNL     1     -15.405   3.445  22.395  0.00  0.00    +0.210 HD
ENDBRANCH  13   3
BRANCH   9   7
ATOM      7  N   UNL     1     -15.956   8.421  22.898  0.00  0.00    -0.184 NA
ATOM     28  H   UNL     1     -16.902   8.315  22.514  0.00  0.00    +0.148 HD
BRANCH   7   1
ATOM      1  S   UNL     1     -15.427   9.916  23.507  0.00  0.00    +0.059 S 
ATOM      4  O   UNL     1     -14.662   9.700  24.720  0.00  0.00    -0.153 OA
ATOM      5  O   UNL     1     -16.541  10.844  23.503  0.00  0.00    -0.153 OA
BRANCH   1  17
ATOM     17  C   UNL     1     -14.309  10.447  22.245  0.00  0.00    +0.105 A 
ATOM     21  C   UNL     1     -14.799  10.854  21.005  0.00  0.00    +0.030 A 
ATOM     22  C   UNL     1     -12.935  10.458  22.491  0.00  0.00    +0.030 A 
ATOM     23  C   UNL     1     -13.916  11.274  20.010  0.00  0.00    +0.021 A 
ATOM     24  C   UNL     1     -12.052  10.877  21.495  0.00  0.00    +0.021 A 
ATOM     25  C   UNL     1     -12.543  11.286  20.255  0.00  0.00    +0.052 A 
BRANCH  25  27
ATOM      8  N   UNL     1     -10.905  12.060  18.405  0.00  0.00    -0.191 NA
ATOM     27  C   UNL     1     -11.639  11.713  19.234  0.00  0.00    +0.099 C 
ENDBRANCH  25  27
ENDBRANCH   1  17
ENDBRANCH   7   1
ENDBRANCH   9   7
TORSDOF 8
ENDMDL
