MODEL 1
REMARK VINA RESULT:      -8.1      0.000      0.000
REMARK  Name = 40777690
REMARK  9 active torsions:
REMARK  status: ('A' for Active; 'I' for Inactive)
REMARK    1  A    between atoms: O_2  and  C_10
REMARK    2  A    between atoms: O_2  and  C_19
REMARK    3  A    between atoms: O_4  and  C_24
REMARK    4  A    between atoms: O_4  and  C_30
REMARK    5  A    between atoms: N_5  and  C_18
REMARK    6  A    between atoms: N_7  and  C_25
REMARK    7  A    between atoms: C_8  and  C_11
REMARK    8  A    between atoms: C_14  and  C_16
REMARK    9  A    between atoms: C_15  and  C_17
REMARK                            x       y       z     vdW  Elec       q    Type
REMARK                         _______ _______ _______ _____ _____    ______ ____
ROOT
ATOM      8  C   UNL     1      11.730   8.344  20.295  0.00  0.00    +0.049 C 
ATOM      9  C   UNL     1      11.659   9.572  21.223  0.00  0.00    +0.061 C 
ATOM     10  C   UNL     1      10.596   9.239  22.275  0.00  0.00    +0.202 C 
ATOM     12  C   UNL     1      11.137   7.259  21.145  0.00  0.00    -0.019 C 
ATOM     13  C   UNL     1      10.524   7.750  22.226  0.00  0.00    +0.013 C 
ENDROOT
BRANCH   8  11
ATOM      5  N   UNL     1      15.246   7.544  19.644  0.00  0.00    -0.236 N 
ATOM      6  N   UNL     1      14.889   7.772  18.369  0.00  0.00    -0.171 NA
ATOM     11  C   UNL     1      13.127   8.053  19.796  0.00  0.00    +0.003 A 
ATOM     14  C   UNL     1      14.226   7.699  20.538  0.00  0.00    +0.046 A 
ATOM     15  C   UNL     1      13.594   8.083  18.467  0.00  0.00    +0.064 A 
ATOM     16  C   UNL     1      14.387   7.498  21.993  0.00  0.00    +0.066 C 
ATOM     17  C   UNL     1      12.831   8.404  17.248  0.00  0.00    +0.068 C 
BRANCH   5  18
ATOM     18  C   UNL     1      16.562   7.186  19.941  0.00  0.00    +0.066 A 
ATOM     20  C   UNL     1      17.105   6.020  19.401  0.00  0.00    +0.031 A 
ATOM     21  C   UNL     1      17.333   7.994  20.776  0.00  0.00    +0.031 A 
ATOM     22  C   UNL     1      18.421   5.663  19.697  0.00  0.00    +0.048 A 
ATOM     23  C   UNL     1      18.649   7.637  21.072  0.00  0.00    +0.048 A 
ATOM     24  C   UNL     1      19.192   6.472  20.532  0.00  0.00    +0.120 A 
BRANCH  24   4
ATOM      4  O   UNL     1      20.475   6.122  20.821  0.00  0.00    -0.495 OA
ATOM     30  C   UNL     1      20.864   4.780  20.533  0.00  0.00    +0.277 C 
ENDBRANCH  24   4
ENDBRANCH   5  18
ENDBRANCH   8  11
BRANCH  10   2
ATOM      2  O   UNL     1      11.015   9.692  23.550  0.00  0.00    -0.443 OA
BRANCH   2  19
ATOM      3  O   UNL     1      10.812  11.858  22.844  0.00  0.00    -0.226 OA
ATOM      7  N   UNL     1      11.561  11.325  24.997  0.00  0.00    -0.251 N 
ATOM     19  C   UNL     1      11.105  11.054  23.720  0.00  0.00    +0.405 C 
ATOM     32  H   UNL     1      11.753  10.518  25.585  0.00  0.00    +0.158 HD
BRANCH   7  25
ATOM      1  F   UNL     1      14.562  14.538  26.922  0.00  0.00    -0.205 F 
ATOM     25  C   UNL     1      11.796  12.586  25.587  0.00  0.00    +0.039 A 
ATOM     26  C   UNL     1      13.089  12.946  25.972  0.00  0.00    +0.061 A 
ATOM     27  C   UNL     1      10.738  13.474  25.784  0.00  0.00    +0.023 A 
ATOM     28  C   UNL     1      13.322  14.192  26.553  0.00  0.00    +0.125 A 
ATOM     29  C   UNL     1      10.971  14.719  26.366  0.00  0.00    +0.005 A 
ATOM     31  C   UNL     1      12.264  15.079  26.750  0.00  0.00    +0.038 A 
ENDBRANCH   7  25
ENDBRANCH   2  19
ENDBRANCH  10   2
TORSDOF 6
ENDMDL
MODEL 2
REMARK VINA RESULT:      -7.7     26.733     30.217
REMARK  Name = 40777690
REMARK  9 active torsions:
REMARK  status: ('A' for Active; 'I' for Inactive)
REMARK    1  A    between atoms: O_2  and  C_10
REMARK    2  A    between atoms: O_2  and  C_19
REMARK    3  A    between atoms: O_4  and  C_24
REMARK    4  A    between atoms: O_4  and  C_30
REMARK    5  A    between atoms: N_5  and  C_18
REMARK    6  A    between atoms: N_7  and  C_25
REMARK    7  A    between atoms: C_8  and  C_11
REMARK    8  A    between atoms: C_14  and  C_16
REMARK    9  A    between atoms: C_15  and  C_17
REMARK                            x       y       z     vdW  Elec       q    Type
REMARK                         _______ _______ _______ _____ _____    ______ ____
ROOT
ATOM      8  C   UNL     1      -2.602 -11.075  12.987  0.00  0.00    +0.049 C 
ATOM      9  C   UNL     1      -3.429 -10.218  12.010  0.00  0.00    +0.061 C 
ATOM     10  C   UNL     1      -3.526 -11.035  10.718  0.00  0.00    +0.202 C 
ATOM     12  C   UNL     1      -2.740 -12.453  12.410  0.00  0.00    -0.019 C 
ATOM     13  C   UNL     1      -3.250 -12.428  11.175  0.00  0.00    +0.013 C 
ENDROOT
BRANCH   8  11
ATOM      5  N   UNL     1      -4.227 -10.932  16.267  0.00  0.00    -0.236 N 
ATOM      6  N   UNL     1      -2.999 -10.569  16.675  0.00  0.00    -0.171 NA
ATOM     11  C   UNL     1      -3.057 -10.950  14.423  0.00  0.00    +0.003 A 
ATOM     14  C   UNL     1      -4.314 -11.171  14.927  0.00  0.00    +0.046 A 
ATOM     15  C   UNL     1      -2.288 -10.581  15.544  0.00  0.00    +0.064 A 
ATOM     16  C   UNL     1      -5.565 -11.584  14.257  0.00  0.00    +0.066 C 
ATOM     17  C   UNL     1      -0.857 -10.231  15.584  0.00  0.00    +0.068 C 
BRANCH   5  18
ATOM     18  C   UNL     1      -5.264 -11.030  17.196  0.00  0.00    +0.066 A 
ATOM     20  C   UNL     1      -6.232 -10.028  17.269  0.00  0.00    +0.031 A 
ATOM     21  C   UNL     1      -5.333 -12.131  18.051  0.00  0.00    +0.031 A 
ATOM     22  C   UNL     1      -7.269 -10.127  18.196  0.00  0.00    +0.048 A 
ATOM     23  C   UNL     1      -6.370 -12.230  18.977  0.00  0.00    +0.048 A 
ATOM     24  C   UNL     1      -7.338 -11.228  19.050  0.00  0.00    +0.120 A 
BRANCH  24   4
ATOM      4  O   UNL     1      -8.349 -11.325  19.956  0.00  0.00    -0.495 OA
ATOM     30  C   UNL     1      -9.674 -11.101  19.476  0.00  0.00    +0.277 C 
ENDBRANCH  24   4
ENDBRANCH   5  18
ENDBRANCH   8  11
BRANCH  10   2
ATOM      2  O   UNL     1      -4.827 -10.923  10.168  0.00  0.00    -0.443 OA
BRANCH   2  19
ATOM      3  O   UNL     1      -4.135  -9.175   8.867  0.00  0.00    -0.226 OA
ATOM      7  N   UNL     1      -6.387  -9.798   9.004  0.00  0.00    -0.251 N 
ATOM     19  C   UNL     1      -5.038  -9.883   9.293  0.00  0.00    +0.405 C 
ATOM     32  H   UNL     1      -6.988 -10.481   9.459  0.00  0.00    +0.158 HD
BRANCH   7  25
ATOM      1  F   UNL     1      -8.645  -5.617   8.325  0.00  0.00    -0.205 F 
ATOM     25  C   UNL     1      -7.037  -8.877   8.153  0.00  0.00    +0.039 A 
ATOM     26  C   UNL     1      -7.531  -7.678   8.670  0.00  0.00    +0.061 A 
ATOM     27  C   UNL     1      -7.185  -9.163   6.795  0.00  0.00    +0.023 A 
ATOM     28  C   UNL     1      -8.171  -6.768   7.829  0.00  0.00    +0.125 A 
ATOM     29  C   UNL     1      -7.826  -8.253   5.955  0.00  0.00    +0.005 A 
ATOM     31  C   UNL     1      -8.318  -7.055   6.473  0.00  0.00    +0.038 A 
ENDBRANCH   7  25
ENDBRANCH   2  19
ENDBRANCH  10   2
TORSDOF 6
ENDMDL
MODEL 3
REMARK VINA RESULT:      -7.6     28.731     31.400
REMARK  Name = 40777690
REMARK  9 active torsions:
REMARK  status: ('A' for Active; 'I' for Inactive)
REMARK    1  A    between atoms: O_2  and  C_10
REMARK    2  A    between atoms: O_2  and  C_19
REMARK    3  A    between atoms: O_4  and  C_24
REMARK    4  A    between atoms: O_4  and  C_30
REMARK    5  A    between atoms: N_5  and  C_18
REMARK    6  A    between atoms: N_7  and  C_25
REMARK    7  A    between atoms: C_8  and  C_11
REMARK    8  A    between atoms: C_14  and  C_16
REMARK    9  A    between atoms: C_15  and  C_17
REMARK                            x       y       z     vdW  Elec       q    Type
REMARK                         _______ _______ _______ _____ _____    ______ ____
ROOT
ATOM      8  C   UNL     1     -15.412   2.302  29.562  0.00  0.00    +0.049 C 
ATOM      9  C   UNL     1     -15.410   2.949  28.164  0.00  0.00    +0.061 C 
ATOM     10  C   UNL     1     -16.162   1.975  27.252  0.00  0.00    +0.202 C 
ATOM     12  C   UNL     1     -16.556   1.335  29.472  0.00  0.00    -0.019 C 
ATOM     13  C   UNL     1     -16.965   1.163  28.211  0.00  0.00    +0.013 C 
ENDROOT
BRANCH   8  11
ATOM      5  N   UNL     1     -15.139   4.625  32.382  0.00  0.00    -0.236 N 
ATOM      6  N   UNL     1     -16.434   4.852  32.106  0.00  0.00    -0.171 NA
ATOM     11  C   UNL     1     -15.532   3.308  30.684  0.00  0.00    +0.003 A 
ATOM     14  C   UNL     1     -14.552   3.709  31.559  0.00  0.00    +0.046 A 
ATOM     15  C   UNL     1     -16.670   4.043  31.069  0.00  0.00    +0.064 A 
ATOM     16  C   UNL     1     -13.135   3.305  31.675  0.00  0.00    +0.066 C 
ATOM     17  C   UNL     1     -18.014   4.009  30.466  0.00  0.00    +0.068 C 
BRANCH   5  18
ATOM     18  C   UNL     1     -14.526   5.308  33.433  0.00  0.00    +0.066 A 
ATOM     20  C   UNL     1     -13.998   6.582  33.223  0.00  0.00    +0.031 A 
ATOM     21  C   UNL     1     -14.443   4.718  34.694  0.00  0.00    +0.031 A 
ATOM     22  C   UNL     1     -13.386   7.265  34.274  0.00  0.00    +0.048 A 
ATOM     23  C   UNL     1     -13.832   5.401  35.745  0.00  0.00    +0.048 A 
ATOM     24  C   UNL     1     -13.304   6.675  35.535  0.00  0.00    +0.120 A 
BRANCH  24   4
ATOM      4  O   UNL     1     -12.705   7.341  36.560  0.00  0.00    -0.495 OA
ATOM     30  C   UNL     1     -11.716   8.310  36.216  0.00  0.00    +0.277 C 
ENDBRANCH  24   4
ENDBRANCH   5  18
ENDBRANCH   8  11
BRANCH  10   2
ATOM      2  O   UNL     1     -16.997   2.690  26.359  0.00  0.00    -0.443 OA
BRANCH   2  19
ATOM      3  O   UNL     1     -16.467   1.959  24.258  0.00  0.00    -0.226 OA
ATOM      7  N   UNL     1     -16.147   4.184  24.910  0.00  0.00    -0.251 N 
ATOM     19  C   UNL     1     -16.523   2.865  25.079  0.00  0.00    +0.405 C 
ATOM     32  H   UNL     1     -16.270   4.794  25.715  0.00  0.00    +0.158 HD
BRANCH   7  25
ATOM      1  F   UNL     1     -12.401   5.224  22.096  0.00  0.00    -0.205 F 
ATOM     25  C   UNL     1     -15.611   4.794  23.754  0.00  0.00    +0.039 A 
ATOM     26  C   UNL     1     -14.243   4.707  23.491  0.00  0.00    +0.061 A 
ATOM     27  C   UNL     1     -16.447   5.481  22.873  0.00  0.00    +0.023 A 
ATOM     28  C   UNL     1     -13.713   5.307  22.348  0.00  0.00    +0.125 A 
ATOM     29  C   UNL     1     -15.917   6.081  21.732  0.00  0.00    +0.005 A 
ATOM     31  C   UNL     1     -14.550   5.993  21.469  0.00  0.00    +0.038 A 
ENDBRANCH   7  25
ENDBRANCH   2  19
ENDBRANCH  10   2
TORSDOF 6
ENDMDL
MODEL 4
REMARK VINA RESULT:      -7.5     27.929     30.170
REMARK  Name = 40777690
REMARK  9 active torsions:
REMARK  status: ('A' for Active; 'I' for Inactive)
REMARK    1  A    between atoms: O_2  and  C_10
REMARK    2  A    between atoms: O_2  and  C_19
REMARK    3  A    between atoms: O_4  and  C_24
REMARK    4  A    between atoms: O_4  and  C_30
REMARK    5  A    between atoms: N_5  and  C_18
REMARK    6  A    between atoms: N_7  and  C_25
REMARK    7  A    between atoms: C_8  and  C_11
REMARK    8  A    between atoms: C_14  and  C_16
REMARK    9  A    between atoms: C_15  and  C_17
REMARK                            x       y       z     vdW  Elec       q    Type
REMARK                         _______ _______ _______ _____ _____    ______ ____
ROOT
ATOM      8  C   UNL     1      -4.279 -10.831  10.182  0.00  0.00    +0.049 C 
ATOM      9  C   UNL     1      -4.680 -11.114  11.642  0.00  0.00    +0.061 C 
ATOM     10  C   UNL     1      -3.398 -10.953  12.466  0.00  0.00    +0.202 C 
ATOM     12  C   UNL     1      -3.007 -10.051  10.338  0.00  0.00    -0.019 C 
ATOM     13  C   UNL     1      -2.532 -10.115  11.586  0.00  0.00    +0.013 C 
ENDROOT
BRANCH   8  11
ATOM      5  N   UNL     1      -7.022  -8.851   8.778  0.00  0.00    -0.236 N 
ATOM      6  N   UNL     1      -6.668  -9.471   7.640  0.00  0.00    -0.171 NA
ATOM     11  C   UNL     1      -5.355 -10.120   9.394  0.00  0.00    +0.003 A 
ATOM     14  C   UNL     1      -6.267  -9.204   9.858  0.00  0.00    +0.046 A 
ATOM     15  C   UNL     1      -5.649 -10.247   8.022  0.00  0.00    +0.064 A 
ATOM     16  C   UNL     1      -6.476  -8.648  11.210  0.00  0.00    +0.066 C 
ATOM     17  C   UNL     1      -4.976 -11.101   7.029  0.00  0.00    +0.068 C 
BRANCH   5  18
ATOM     18  C   UNL     1      -8.080  -7.940   8.768  0.00  0.00    +0.066 A 
ATOM     20  C   UNL     1      -9.313  -8.298   9.314  0.00  0.00    +0.031 A 
ATOM     21  C   UNL     1      -7.904  -6.672   8.215  0.00  0.00    +0.031 A 
ATOM     22  C   UNL     1     -10.370  -7.388   9.306  0.00  0.00    +0.048 A 
ATOM     23  C   UNL     1      -8.960  -5.761   8.207  0.00  0.00    +0.048 A 
ATOM     24  C   UNL     1     -10.193  -6.120   8.753  0.00  0.00    +0.120 A 
BRANCH  24   4
ATOM      4  O   UNL     1     -11.224  -5.231   8.744  0.00  0.00    -0.495 OA
ATOM     30  C   UNL     1     -10.978  -3.946   9.312  0.00  0.00    +0.277 C 
ENDBRANCH  24   4
ENDBRANCH   5  18
ENDBRANCH   8  11
BRANCH  10   2
ATOM      2  O   UNL     1      -3.683 -10.292  13.685  0.00  0.00    -0.443 OA
BRANCH   2  19
ATOM      3  O   UNL     1      -3.771 -12.306  14.764  0.00  0.00    -0.226 OA
ATOM      7  N   UNL     1      -4.378 -10.309  15.824  0.00  0.00    -0.251 N 
ATOM     19  C   UNL     1      -3.934 -11.092  14.775  0.00  0.00    +0.405 C 
ATOM     32  H   UNL     1      -4.450  -9.311  15.640  0.00  0.00    +0.158 HD
BRANCH   7  25
ATOM      1  F   UNL     1      -3.324 -12.488  19.968  0.00  0.00    -0.205 F 
ATOM     25  C   UNL     1      -4.748 -10.722  17.123  0.00  0.00    +0.039 A 
ATOM     26  C   UNL     1      -3.835 -11.416  17.919  0.00  0.00    +0.061 A 
ATOM     27  C   UNL     1      -6.023 -10.436  17.612  0.00  0.00    +0.023 A 
ATOM     28  C   UNL     1      -4.199 -11.822  19.203  0.00  0.00    +0.125 A 
ATOM     29  C   UNL     1      -6.386 -10.843  18.895  0.00  0.00    +0.005 A 
ATOM     31  C   UNL     1      -5.473 -11.536  19.691  0.00  0.00    +0.038 A 
ENDBRANCH   7  25
ENDBRANCH   2  19
ENDBRANCH  10   2
TORSDOF 6
ENDMDL
MODEL 5
REMARK VINA RESULT:      -7.5     28.148     29.581
REMARK  Name = 40777690
REMARK  9 active torsions:
REMARK  status: ('A' for Active; 'I' for Inactive)
REMARK    1  A    between atoms: O_2  and  C_10
REMARK    2  A    between atoms: O_2  and  C_19
REMARK    3  A    between atoms: O_4  and  C_24
REMARK    4  A    between atoms: O_4  and  C_30
REMARK    5  A    between atoms: N_5  and  C_18
REMARK    6  A    between atoms: N_7  and  C_25
REMARK    7  A    between atoms: C_8  and  C_11
REMARK    8  A    between atoms: C_14  and  C_16
REMARK    9  A    between atoms: C_15  and  C_17
REMARK                            x       y       z     vdW  Elec       q    Type
REMARK                         _______ _______ _______ _____ _____    ______ ____
ROOT
ATOM      8  C   UNL     1      -5.171 -13.100  17.937  0.00  0.00    +0.049 C 
ATOM      9  C   UNL     1      -6.536 -12.445  18.221  0.00  0.00    +0.061 C 
ATOM     10  C   UNL     1      -6.412 -11.806  19.608  0.00  0.00    +0.202 C 
ATOM     12  C   UNL     1      -4.258 -12.371  18.879  0.00  0.00    -0.019 C 
ATOM     13  C   UNL     1      -4.938 -11.662  19.785  0.00  0.00    +0.013 C 
ENDROOT
BRANCH   8  11
ATOM      5  N   UNL     1      -4.205 -12.331  14.488  0.00  0.00    -0.236 N 
ATOM      6  N   UNL     1      -4.160 -13.669  14.378  0.00  0.00    -0.171 NA
ATOM     11  C   UNL     1      -4.762 -13.021  16.484  0.00  0.00    +0.003 A 
ATOM     14  C   UNL     1      -4.560 -11.891  15.730  0.00  0.00    +0.046 A 
ATOM     15  C   UNL     1      -4.502 -14.086  15.600  0.00  0.00    +0.064 A 
ATOM     16  C   UNL     1      -4.673 -10.461  16.082  0.00  0.00    +0.066 C 
ATOM     17  C   UNL     1      -4.565 -15.531  15.883  0.00  0.00    +0.068 C 
BRANCH   5  18
ATOM     18  C   UNL     1      -3.901 -11.535  13.382  0.00  0.00    +0.066 A 
ATOM     20  C   UNL     1      -2.573 -11.214  13.099  0.00  0.00    +0.031 A 
ATOM     21  C   UNL     1      -4.924 -11.063  12.560  0.00  0.00    +0.031 A 
ATOM     22  C   UNL     1      -2.269 -10.420  11.993  0.00  0.00    +0.048 A 
ATOM     23  C   UNL     1      -4.620 -10.269  11.454  0.00  0.00    +0.048 A 
ATOM     24  C   UNL     1      -3.293  -9.948  11.171  0.00  0.00    +0.120 A 
BRANCH  24   4
ATOM      4  O   UNL     1      -2.997  -9.172  10.093  0.00  0.00    -0.495 OA
ATOM     30  C   UNL     1      -4.065  -8.871   9.197  0.00  0.00    +0.277 C 
ENDBRANCH  24   4
ENDBRANCH   5  18
ENDBRANCH   8  11
BRANCH  10   2
ATOM      2  O   UNL     1      -7.056 -10.544  19.621  0.00  0.00    -0.443 OA
BRANCH   2  19
ATOM      3  O   UNL     1      -9.146 -11.161  18.929  0.00  0.00    -0.226 OA
ATOM      7  N   UNL     1      -8.012  -9.350  17.973  0.00  0.00    -0.251 N 
ATOM     19  C   UNL     1      -8.178 -10.417  18.835  0.00  0.00    +0.405 C 
ATOM     32  H   UNL     1      -7.131  -8.847  18.045  0.00  0.00    +0.158 HD
BRANCH   7  25
ATOM      1  F   UNL     1     -11.477  -6.312  16.633  0.00  0.00    -0.205 F 
ATOM     25  C   UNL     1      -8.916  -8.870  17.000  0.00  0.00    +0.039 A 
ATOM     26  C   UNL     1      -9.768  -7.807  17.304  0.00  0.00    +0.061 A 
ATOM     27  C   UNL     1      -8.956  -9.455  15.734  0.00  0.00    +0.023 A 
ATOM     28  C   UNL     1     -10.659  -7.331  16.342  0.00  0.00    +0.125 A 
ATOM     29  C   UNL     1      -9.847  -8.979  14.773  0.00  0.00    +0.005 A 
ATOM     31  C   UNL     1     -10.699  -7.916  15.077  0.00  0.00    +0.038 A 
ENDBRANCH   7  25
ENDBRANCH   2  19
ENDBRANCH  10   2
TORSDOF 6
ENDMDL
MODEL 6
REMARK VINA RESULT:      -7.5      2.115      2.709
REMARK  Name = 40777690
REMARK  9 active torsions:
REMARK  status: ('A' for Active; 'I' for Inactive)
REMARK    1  A    between atoms: O_2  and  C_10
REMARK    2  A    between atoms: O_2  and  C_19
REMARK    3  A    between atoms: O_4  and  C_24
REMARK    4  A    between atoms: O_4  and  C_30
REMARK    5  A    between atoms: N_5  and  C_18
REMARK    6  A    between atoms: N_7  and  C_25
REMARK    7  A    between atoms: C_8  and  C_11
REMARK    8  A    between atoms: C_14  and  C_16
REMARK    9  A    between atoms: C_15  and  C_17
REMARK                            x       y       z     vdW  Elec       q    Type
REMARK                         _______ _______ _______ _____ _____    ______ ____
ROOT
ATOM      8  C   UNL     1      11.803   9.199  20.496  0.00  0.00    +0.049 C 
ATOM      9  C   UNL     1      11.780  10.417  21.439  0.00  0.00    +0.061 C 
ATOM     10  C   UNL     1      10.696  10.118  22.480  0.00  0.00    +0.202 C 
ATOM     12  C   UNL     1      11.157   8.130  21.327  0.00  0.00    -0.019 C 
ATOM     13  C   UNL     1      10.559   8.635  22.411  0.00  0.00    +0.013 C 
ENDROOT
BRANCH   8  11
ATOM      5  N   UNL     1      15.261   8.184  19.841  0.00  0.00    -0.236 N 
ATOM      6  N   UNL     1      14.975   8.605  18.598  0.00  0.00    -0.171 NA
ATOM     11  C   UNL     1      13.188   8.854  20.001  0.00  0.00    +0.003 A 
ATOM     14  C   UNL     1      14.225   8.311  20.720  0.00  0.00    +0.046 A 
ATOM     15  C   UNL     1      13.707   9.014  18.701  0.00  0.00    +0.064 A 
ATOM     16  C   UNL     1      14.311   7.911  22.139  0.00  0.00    +0.066 C 
ATOM     17  C   UNL     1      13.021   9.555  17.514  0.00  0.00    +0.068 C 
BRANCH   5  18
ATOM     18  C   UNL     1      16.530   7.676  20.124  0.00  0.00    +0.066 A 
ATOM     20  C   UNL     1      17.429   8.427  20.881  0.00  0.00    +0.031 A 
ATOM     21  C   UNL     1      16.898   6.416  19.653  0.00  0.00    +0.031 A 
ATOM     22  C   UNL     1      18.696   7.919  21.166  0.00  0.00    +0.048 A 
ATOM     23  C   UNL     1      18.165   5.907  19.937  0.00  0.00    +0.048 A 
ATOM     24  C   UNL     1      19.064   6.659  20.694  0.00  0.00    +0.120 A 
BRANCH  24   4
ATOM      4  O   UNL     1      20.301   6.163  20.970  0.00  0.00    -0.495 OA
ATOM     30  C   UNL     1      20.629   4.891  20.414  0.00  0.00    +0.277 C 
ENDBRANCH  24   4
ENDBRANCH   5  18
ENDBRANCH   8  11
BRANCH  10   2
ATOM      2  O   UNL     1      11.127  10.536  23.763  0.00  0.00    -0.443 OA
BRANCH   2  19
ATOM      3  O   UNL     1      11.940  12.669  23.648  0.00  0.00    -0.226 OA
ATOM      7  N   UNL     1      13.339  10.833  24.033  0.00  0.00    -0.251 N 
ATOM     19  C   UNL     1      12.135  11.470  23.801  0.00  0.00    +0.405 C 
ATOM     32  H   UNL     1      13.299   9.822  24.134  0.00  0.00    +0.158 HD
BRANCH   7  25
ATOM      1  F   UNL     1      17.540  12.086  22.079  0.00  0.00    -0.205 F 
ATOM     25  C   UNL     1      14.622  11.412  24.146  0.00  0.00    +0.039 A 
ATOM     26  C   UNL     1      15.465  11.463  23.035  0.00  0.00    +0.061 A 
ATOM     27  C   UNL     1      15.048  11.935  25.367  0.00  0.00    +0.023 A 
ATOM     28  C   UNL     1      16.731  12.037  23.146  0.00  0.00    +0.125 A 
ATOM     29  C   UNL     1      16.314  12.508  25.478  0.00  0.00    +0.005 A 
ATOM     31  C   UNL     1      17.156  12.560  24.366  0.00  0.00    +0.038 A 
ENDBRANCH   7  25
ENDBRANCH   2  19
ENDBRANCH  10   2
TORSDOF 6
ENDMDL
MODEL 7
REMARK VINA RESULT:      -7.5     26.610     29.917
REMARK  Name = 40777690
REMARK  9 active torsions:
REMARK  status: ('A' for Active; 'I' for Inactive)
REMARK    1  A    between atoms: O_2  and  C_10
REMARK    2  A    between atoms: O_2  and  C_19
REMARK    3  A    between atoms: O_4  and  C_24
REMARK    4  A    between atoms: O_4  and  C_30
REMARK    5  A    between atoms: N_5  and  C_18
REMARK    6  A    between atoms: N_7  and  C_25
REMARK    7  A    between atoms: C_8  and  C_11
REMARK    8  A    between atoms: C_14  and  C_16
REMARK    9  A    between atoms: C_15  and  C_17
REMARK                            x       y       z     vdW  Elec       q    Type
REMARK                         _______ _______ _______ _____ _____    ______ ____
ROOT
ATOM      8  C   UNL     1     -17.158   4.223  23.101  0.00  0.00    +0.049 C 
ATOM      9  C   UNL     1     -17.329   4.937  24.455  0.00  0.00    +0.061 C 
ATOM     10  C   UNL     1     -17.205   3.845  25.522  0.00  0.00    +0.202 C 
ATOM     12  C   UNL     1     -16.455   2.955  23.487  0.00  0.00    -0.019 C 
ATOM     13  C   UNL     1     -16.478   2.755  24.808  0.00  0.00    +0.013 C 
ENDROOT
BRANCH   8  11
ATOM      5  N   UNL     1     -14.984   6.324  21.032  0.00  0.00    -0.236 N 
ATOM      6  N   UNL     1     -15.929   6.101  20.104  0.00  0.00    -0.171 NA
ATOM     11  C   UNL     1     -16.425   5.056  22.075  0.00  0.00    +0.003 A 
ATOM     14  C   UNL     1     -15.233   5.720  22.230  0.00  0.00    +0.046 A 
ATOM     15  C   UNL     1     -16.808   5.326  20.747  0.00  0.00    +0.064 A 
ATOM     16  C   UNL     1     -14.331   5.827  23.395  0.00  0.00    +0.066 C 
ATOM     17  C   UNL     1     -18.014   4.858  20.041  0.00  0.00    +0.068 C 
BRANCH   5  18
ATOM     18  C   UNL     1     -13.878   7.115  20.717  0.00  0.00    +0.066 A 
ATOM     20  C   UNL     1     -14.057   8.449  20.353  0.00  0.00    +0.031 A 
ATOM     21  C   UNL     1     -12.594   6.571  20.767  0.00  0.00    +0.031 A 
ATOM     22  C   UNL     1     -12.951   9.240  20.039  0.00  0.00    +0.048 A 
ATOM     23  C   UNL     1     -11.489   7.361  20.454  0.00  0.00    +0.048 A 
ATOM     24  C   UNL     1     -11.668   8.696  20.090  0.00  0.00    +0.120 A 
BRANCH  24   4
ATOM      4  O   UNL     1     -10.589   9.467  19.783  0.00  0.00    -0.495 OA
ATOM     30  C   UNL     1     -10.084   9.376  18.451  0.00  0.00    +0.277 C 
ENDBRANCH  24   4
ENDBRANCH   5  18
ENDBRANCH   8  11
BRANCH  10   2
ATOM      2  O   UNL     1     -16.457   4.325  26.625  0.00  0.00    -0.443 OA
BRANCH   2  19
ATOM      3  O   UNL     1     -17.670   3.582  28.415  0.00  0.00    -0.226 OA
ATOM      7  N   UNL     1     -15.396   3.082  28.170  0.00  0.00    -0.251 N 
ATOM     19  C   UNL     1     -16.606   3.646  27.812  0.00  0.00    +0.405 C 
ATOM     32  H   UNL     1     -14.619   3.247  27.536  0.00  0.00    +0.158 HD
BRANCH   7  25
ATOM      1  F   UNL     1     -13.236   2.560  32.424  0.00  0.00    -0.205 F 
ATOM     25  C   UNL     1     -15.103   2.304  29.312  0.00  0.00    +0.039 A 
ATOM     26  C   UNL     1     -14.297   2.827  30.324  0.00  0.00    +0.061 A 
ATOM     27  C   UNL     1     -15.621   1.014  29.430  0.00  0.00    +0.023 A 
ATOM     28  C   UNL     1     -14.010   2.059  31.453  0.00  0.00    +0.125 A 
ATOM     29  C   UNL     1     -15.333   0.246  30.558  0.00  0.00    +0.005 A 
ATOM     31  C   UNL     1     -14.527   0.770  31.570  0.00  0.00    +0.038 A 
ENDBRANCH   7  25
ENDBRANCH   2  19
ENDBRANCH  10   2
TORSDOF 6
ENDMDL
MODEL 8
REMARK VINA RESULT:      -7.4      3.747      5.007
REMARK  Name = 40777690
REMARK  9 active torsions:
REMARK  status: ('A' for Active; 'I' for Inactive)
REMARK    1  A    between atoms: O_2  and  C_10
REMARK    2  A    between atoms: O_2  and  C_19
REMARK    3  A    between atoms: O_4  and  C_24
REMARK    4  A    between atoms: O_4  and  C_30
REMARK    5  A    between atoms: N_5  and  C_18
REMARK    6  A    between atoms: N_7  and  C_25
REMARK    7  A    between atoms: C_8  and  C_11
REMARK    8  A    between atoms: C_14  and  C_16
REMARK    9  A    between atoms: C_15  and  C_17
REMARK                            x       y       z     vdW  Elec       q    Type
REMARK                         _______ _______ _______ _____ _____    ______ ____
ROOT
ATOM      8  C   UNL     1      11.974   7.935  18.623  0.00  0.00    +0.049 C 
ATOM      9  C   UNL     1      11.375   8.665  19.840  0.00  0.00    +0.061 C 
ATOM     10  C   UNL     1      11.669   7.771  21.049  0.00  0.00    +0.202 C 
ATOM     12  C   UNL     1      12.972   7.011  19.255  0.00  0.00    -0.019 C 
ATOM     13  C   UNL     1      12.807   6.929  20.579  0.00  0.00    +0.013 C 
ENDROOT
BRANCH   8  11
ATOM      5  N   UNL     1      13.841  10.254  16.488  0.00  0.00    -0.236 N 
ATOM      6  N   UNL     1      12.773  10.115  15.685  0.00  0.00    -0.171 NA
ATOM     11  C   UNL     1      12.558   8.874  17.592  0.00  0.00    +0.003 A 
ATOM     14  C   UNL     1      13.762   9.532  17.643  0.00  0.00    +0.046 A 
ATOM     15  C   UNL     1      11.991   9.271  16.365  0.00  0.00    +0.064 A 
ATOM     16  C   UNL     1      14.822   9.531  18.672  0.00  0.00    +0.066 C 
ATOM     17  C   UNL     1      10.695   8.863  15.794  0.00  0.00    +0.068 C 
BRANCH   5  18
ATOM     18  C   UNL     1      14.894  11.084  16.099  0.00  0.00    +0.066 A 
ATOM     20  C   UNL     1      15.188  12.229  16.839  0.00  0.00    +0.031 A 
ATOM     21  C   UNL     1      15.654  10.766  14.973  0.00  0.00    +0.031 A 
ATOM     22  C   UNL     1      16.242  13.057  16.452  0.00  0.00    +0.048 A 
ATOM     23  C   UNL     1      16.708  11.594  14.587  0.00  0.00    +0.048 A 
ATOM     24  C   UNL     1      17.002  12.739  15.327  0.00  0.00    +0.120 A 
BRANCH  24   4
ATOM      4  O   UNL     1      18.029  13.548  14.948  0.00  0.00    -0.495 OA
ATOM     30  C   UNL     1      18.203  14.761  15.678  0.00  0.00    +0.277 C 
ENDBRANCH  24   4
ENDBRANCH   5  18
ENDBRANCH   8  11
BRANCH  10   2
ATOM      2  O   UNL     1      12.043   8.565  22.161  0.00  0.00    -0.443 OA
BRANCH   2  19
ATOM      3  O   UNL     1       9.959   9.218  22.838  0.00  0.00    -0.226 OA
ATOM      7  N   UNL     1      11.737  10.731  22.680  0.00  0.00    -0.251 N 
ATOM     19  C   UNL     1      11.125   9.496  22.589  0.00  0.00    +0.405 C 
ATOM     32  H   UNL     1      12.722  10.764  22.429  0.00  0.00    +0.158 HD
BRANCH   7  25
ATOM      1  F   UNL     1      10.180  13.686  26.128  0.00  0.00    -0.205 F 
ATOM     25  C   UNL     1      11.164  11.959  23.080  0.00  0.00    +0.039 A 
ATOM     26  C   UNL     1      10.950  12.221  24.434  0.00  0.00    +0.061 A 
ATOM     27  C   UNL     1      10.813  12.911  22.122  0.00  0.00    +0.023 A 
ATOM     28  C   UNL     1      10.386  13.434  24.828  0.00  0.00    +0.125 A 
ATOM     29  C   UNL     1      10.248  14.123  22.517  0.00  0.00    +0.005 A 
ATOM     31  C   UNL     1      10.035  14.385  23.871  0.00  0.00    +0.038 A 
ENDBRANCH   7  25
ENDBRANCH   2  19
ENDBRANCH  10   2
TORSDOF 6
ENDMDL
MODEL 9
REMARK VINA RESULT:      -7.3     27.357     30.248
REMARK  Name = 40777690
REMARK  9 active torsions:
REMARK  status: ('A' for Active; 'I' for Inactive)
REMARK    1  A    between atoms: O_2  and  C_10
REMARK    2  A    between atoms: O_2  and  C_19
REMARK    3  A    between atoms: O_4  and  C_24
REMARK    4  A    between atoms: O_4  and  C_30
REMARK    5  A    between atoms: N_5  and  C_18
REMARK    6  A    between atoms: N_7  and  C_25
REMARK    7  A    between atoms: C_8  and  C_11
REMARK    8  A    between atoms: C_14  and  C_16
REMARK    9  A    between atoms: C_15  and  C_17
REMARK                            x       y       z     vdW  Elec       q    Type
REMARK                         _______ _______ _______ _____ _____    ______ ____
ROOT
ATOM      8  C   UNL     1      -3.860 -10.427  10.486  0.00  0.00    +0.049 C 
ATOM      9  C   UNL     1      -3.768 -10.925  11.941  0.00  0.00    +0.061 C 
ATOM     10  C   UNL     1      -2.328 -10.652  12.385  0.00  0.00    +0.202 C 
ATOM     12  C   UNL     1      -2.704  -9.477  10.393  0.00  0.00    -0.019 C 
ATOM     13  C   UNL     1      -1.873  -9.598  11.433  0.00  0.00    +0.013 C 
ENDROOT
BRANCH   8  11
ATOM      5  N   UNL     1      -6.969  -9.058   9.114  0.00  0.00    -0.236 N 
ATOM      6  N   UNL     1      -7.242  -8.823  10.408  0.00  0.00    -0.171 NA
ATOM     11  C   UNL     1      -5.201  -9.816  10.149  0.00  0.00    +0.003 A 
ATOM     14  C   UNL     1      -5.758  -9.651   8.905  0.00  0.00    +0.046 A 
ATOM     15  C   UNL     1      -6.158  -9.287  11.036  0.00  0.00    +0.064 A 
ATOM     16  C   UNL     1      -5.250 -10.004   7.563  0.00  0.00    +0.066 C 
ATOM     17  C   UNL     1      -6.081  -9.206  12.506  0.00  0.00    +0.068 C 
BRANCH   5  18
ATOM     18  C   UNL     1      -7.895  -8.696   8.135  0.00  0.00    +0.066 A 
ATOM     20  C   UNL     1      -8.811  -9.635   7.661  0.00  0.00    +0.031 A 
ATOM     21  C   UNL     1      -7.906  -7.394   7.632  0.00  0.00    +0.031 A 
ATOM     22  C   UNL     1      -9.737  -9.273   6.683  0.00  0.00    +0.048 A 
ATOM     23  C   UNL     1      -8.833  -7.032   6.655  0.00  0.00    +0.048 A 
ATOM     24  C   UNL     1      -9.748  -7.971   6.181  0.00  0.00    +0.120 A 
BRANCH  24   4
ATOM      4  O   UNL     1     -10.652  -7.618   5.226  0.00  0.00    -0.495 OA
ATOM     30  C   UNL     1     -10.136  -7.045   4.025  0.00  0.00    +0.277 C 
ENDBRANCH  24   4
ENDBRANCH   5  18
ENDBRANCH   8  11
BRANCH  10   2
ATOM      2  O   UNL     1      -2.312 -10.180  13.721  0.00  0.00    -0.443 OA
BRANCH   2  19
ATOM      3  O   UNL     1      -2.736 -12.240  14.616  0.00  0.00    -0.226 OA
ATOM      7  N   UNL     1      -3.440 -10.269  15.663  0.00  0.00    -0.251 N 
ATOM     19  C   UNL     1      -2.830 -11.021  14.678  0.00  0.00    +0.405 C 
ATOM     32  H   UNL     1      -3.416  -9.260  15.538  0.00  0.00    +0.158 HD
BRANCH   7  25
ATOM      1  F   UNL     1      -3.325 -12.468  19.928  0.00  0.00    -0.205 F 
ATOM     25  C   UNL     1      -4.096 -10.728  16.827  0.00  0.00    +0.039 A 
ATOM     26  C   UNL     1      -3.372 -11.385  17.822  0.00  0.00    +0.061 A 
ATOM     27  C   UNL     1      -5.468 -10.523  16.983  0.00  0.00    +0.023 A 
ATOM     28  C   UNL     1      -4.020 -11.837  18.972  0.00  0.00    +0.125 A 
ATOM     29  C   UNL     1      -6.115 -10.975  18.132  0.00  0.00    +0.005 A 
ATOM     31  C   UNL     1      -5.390 -11.632  19.128  0.00  0.00    +0.038 A 
ENDBRANCH   7  25
ENDBRANCH   2  19
ENDBRANCH  10   2
TORSDOF 6
ENDMDL
MODEL 10
REMARK VINA RESULT:      -7.3      5.363     11.112
REMARK  Name = 40777690
REMARK  9 active torsions:
REMARK  status: ('A' for Active; 'I' for Inactive)
REMARK    1  A    between atoms: O_2  and  C_10
REMARK    2  A    between atoms: O_2  and  C_19
REMARK    3  A    between atoms: O_4  and  C_24
REMARK    4  A    between atoms: O_4  and  C_30
REMARK    5  A    between atoms: N_5  and  C_18
REMARK    6  A    between atoms: N_7  and  C_25
REMARK    7  A    between atoms: C_8  and  C_11
REMARK    8  A    between atoms: C_14  and  C_16
REMARK    9  A    between atoms: C_15  and  C_17
REMARK                            x       y       z     vdW  Elec       q    Type
REMARK                         _______ _______ _______ _____ _____    ______ ____
ROOT
ATOM      8  C   UNL     1      19.534   8.292  21.894  0.00  0.00    +0.049 C 
ATOM      9  C   UNL     1      20.490   7.808  20.787  0.00  0.00    +0.061 C 
ATOM     10  C   UNL     1      21.335   6.699  21.421  0.00  0.00    +0.202 C 
ATOM     12  C   UNL     1      19.529   7.136  22.850  0.00  0.00    -0.019 C 
ATOM     13  C   UNL     1      20.509   6.266  22.586  0.00  0.00    +0.013 C 
ENDROOT
BRANCH   8  11
ATOM      5  N   UNL     1      16.217   8.704  20.395  0.00  0.00    -0.236 N 
ATOM      6  N   UNL     1      16.284   9.911  20.981  0.00  0.00    -0.171 NA
ATOM     11  C   UNL     1      18.168   8.680  21.376  0.00  0.00    +0.003 A 
ATOM     14  C   UNL     1      17.321   7.928  20.601  0.00  0.00    +0.046 A 
ATOM     15  C   UNL     1      17.479   9.892  21.579  0.00  0.00    +0.064 A 
ATOM     16  C   UNL     1      17.466   6.564  20.053  0.00  0.00    +0.066 C 
ATOM     17  C   UNL     1      17.925  11.068  22.346  0.00  0.00    +0.068 C 
BRANCH   5  18
ATOM     18  C   UNL     1      15.084   8.355  19.658  0.00  0.00    +0.066 A 
ATOM     20  C   UNL     1      14.804   9.008  18.458  0.00  0.00    +0.031 A 
ATOM     21  C   UNL     1      14.233   7.351  20.121  0.00  0.00    +0.031 A 
ATOM     22  C   UNL     1      13.673   8.658  17.721  0.00  0.00    +0.048 A 
ATOM     23  C   UNL     1      13.102   7.001  19.384  0.00  0.00    +0.048 A 
ATOM     24  C   UNL     1      12.822   7.654  18.184  0.00  0.00    +0.120 A 
BRANCH  24   4
ATOM      4  O   UNL     1      11.718   7.313  17.466  0.00  0.00    -0.495 OA
ATOM     30  C   UNL     1      10.912   8.380  16.969  0.00  0.00    +0.277 C 
ENDBRANCH  24   4
ENDBRANCH   5  18
ENDBRANCH   8  11
BRANCH  10   2
ATOM      2  O   UNL     1      21.518   5.639  20.500  0.00  0.00    -0.443 OA
BRANCH   2  19
ATOM      3  O   UNL     1      23.734   5.145  20.233  0.00  0.00    -0.226 OA
ATOM      7  N   UNL     1      22.289   3.736  21.417  0.00  0.00    -0.251 N 
ATOM     19  C   UNL     1      22.633   4.853  20.679  0.00  0.00    +0.405 C 
ATOM     32  H   UNL     1      21.314   3.668  21.700  0.00  0.00    +0.158 HD
BRANCH   7  25
ATOM      1  F   UNL     1      24.315   1.127  24.898  0.00  0.00    -0.205 F 
ATOM     25  C   UNL     1      23.124   2.674  21.828  0.00  0.00    +0.039 A 
ATOM     26  C   UNL     1      23.312   2.420  23.188  0.00  0.00    +0.061 A 
ATOM     27  C   UNL     1      23.761   1.877  20.876  0.00  0.00    +0.023 A 
ATOM     28  C   UNL     1      24.135   1.370  23.594  0.00  0.00    +0.125 A 
ATOM     29  C   UNL     1      24.584   0.828  21.283  0.00  0.00    +0.005 A 
ATOM     31  C   UNL     1      24.771   0.574  22.642  0.00  0.00    +0.038 A 
ENDBRANCH   7  25
ENDBRANCH   2  19
ENDBRANCH  10   2
TORSDOF 6
ENDMDL
