MODEL 1
REMARK VINA RESULT:      -6.2      0.000      0.000
REMARK  Name = 7662925
REMARK  6 active torsions:
REMARK  status: ('A' for Active; 'I' for Inactive)
REMARK    1  A    between atoms: O_3  and  C_27
REMARK    2  A    between atoms: C_15  and  C_20
REMARK    3  A    between atoms: C_17  and  C_21
REMARK    4  A    between atoms: C_21  and  C_22
REMARK    5  A    between atoms: C_22  and  C_27
REMARK    6  A    between atoms: C_25  and  C_29
REMARK                            x       y       z     vdW  Elec       q    Type
REMARK                         _______ _______ _______ _____ _____    ______ ____
ROOT
ATOM      1  O   UNL     1      10.782   5.481   8.555  0.00  0.00    -0.268 OA
ATOM      2  O   UNL     1      10.533  10.539   7.107  0.00  0.00    -0.276 OA
ATOM      5  N   UNL     1      11.863   9.360   5.611  0.00  0.00    -0.301 N 
ATOM      6  N   UNL     1      11.710   6.333   6.581  0.00  0.00    -0.311 N 
ATOM      8  C   UNL     1      13.672   7.981   6.624  0.00  0.00    +0.027 C 
ATOM      9  C   UNL     1      12.688   7.303   4.477  0.00  0.00    +0.054 C 
ATOM     10  C   UNL     1      13.998   7.405   5.255  0.00  0.00    +0.018 C 
ATOM     11  C   UNL     1      13.029   9.371   6.494  0.00  0.00    +0.113 C 
ATOM     12  C   UNL     1      12.763   6.996   7.361  0.00  0.00    +0.130 C 
ATOM     13  C   UNL     1      12.077   8.710   4.311  0.00  0.00    +0.117 C 
ATOM     14  C   UNL     1      11.690   6.372   5.172  0.00  0.00    +0.034 A 
ATOM     15  C   UNL     1      10.789   5.620   4.488  0.00  0.00    +0.002 A 
ATOM     16  C   UNL     1      10.801   5.562   7.327  0.00  0.00    +0.252 A 
ATOM     17  C   UNL     1      10.689   9.999   6.008  0.00  0.00    +0.216 C 
ATOM     18  C   UNL     1       9.833   4.815   5.224  0.00  0.00    +0.015 A 
ATOM     19  C   UNL     1       9.807   4.781   6.556  0.00  0.00    +0.071 A 
ENDROOT
BRANCH  15  20
ATOM     20  C   UNL     1      10.743   5.614   3.008  0.00  0.00    -0.015 A 
ATOM     23  C   UNL     1      11.522   4.706   2.296  0.00  0.00    +0.027 A 
ATOM     24  C   UNL     1       9.923   6.517   2.340  0.00  0.00    +0.008 A 
ATOM     25  C   UNL     1      11.478   4.703   0.902  0.00  0.00    +0.052 A 
ATOM     26  C   UNL     1       9.879   6.513   0.946  0.00  0.00    +0.002 A 
ATOM     28  C   UNL     1      10.657   5.605   0.227  0.00  0.00    +0.019 A 
BRANCH  25  29
ATOM      7  N   UNL     1      12.921   3.017  -0.436  0.00  0.00    -0.191 NA
ATOM     29  C   UNL     1      12.275   3.773   0.164  0.00  0.00    +0.099 C 
ENDBRANCH  25  29
ENDBRANCH  15  20
BRANCH  17  21
ATOM     21  C   UNL     1       9.554  10.008   5.014  0.00  0.00    +0.107 C 
BRANCH  21  22
ATOM     22  C   UNL     1       8.241   9.769   5.732  0.00  0.00    +0.129 C 
BRANCH  22  27
ATOM      4  O   UNL     1       8.169   7.809   7.144  0.00  0.00    -0.251 OA
ATOM     27  C   UNL     1       8.043   8.303   6.031  0.00  0.00    +0.305 C 
BRANCH  27   3
ATOM      3  O   UNL     1       7.731   7.583   4.925  0.00  0.00    -0.481 OA
ATOM     30  H   UNL     1       6.761   7.524   4.788  0.00  0.00    +0.295 HD
ENDBRANCH  27   3
ENDBRANCH  22  27
ENDBRANCH  21  22
ENDBRANCH  17  21
TORSDOF 6
ENDMDL
MODEL 2
REMARK VINA RESULT:      -6.2     13.862     17.271
REMARK  Name = 7662925
REMARK  6 active torsions:
REMARK  status: ('A' for Active; 'I' for Inactive)
REMARK    1  A    between atoms: O_3  and  C_27
REMARK    2  A    between atoms: C_15  and  C_20
REMARK    3  A    between atoms: C_17  and  C_21
REMARK    4  A    between atoms: C_21  and  C_22
REMARK    5  A    between atoms: C_22  and  C_27
REMARK    6  A    between atoms: C_25  and  C_29
REMARK                            x       y       z     vdW  Elec       q    Type
REMARK                         _______ _______ _______ _____ _____    ______ ____
ROOT
ATOM      1  O   UNL     1      16.861   8.033  20.965  0.00  0.00    -0.268 OA
ATOM      2  O   UNL     1      13.427   7.491  17.009  0.00  0.00    -0.276 OA
ATOM      5  N   UNL     1      12.291   8.018  18.965  0.00  0.00    -0.301 N 
ATOM      6  N   UNL     1      14.567   8.471  21.143  0.00  0.00    -0.311 N 
ATOM      8  C   UNL     1      12.825   6.601  20.943  0.00  0.00    +0.027 C 
ATOM      9  C   UNL     1      12.098   8.925  21.275  0.00  0.00    +0.054 C 
ATOM     10  C   UNL     1      11.969   7.503  21.818  0.00  0.00    +0.018 C 
ATOM     11  C   UNL     1      12.353   6.650  19.480  0.00  0.00    +0.113 C 
ATOM     12  C   UNL     1      14.286   7.030  21.087  0.00  0.00    +0.130 C 
ATOM     13  C   UNL     1      11.576   8.970  19.824  0.00  0.00    +0.117 C 
ATOM     14  C   UNL     1      13.545   9.422  21.333  0.00  0.00    +0.034 A 
ATOM     15  C   UNL     1      13.865  10.728  21.530  0.00  0.00    +0.002 A 
ATOM     16  C   UNL     1      15.929   8.822  21.115  0.00  0.00    +0.252 A 
ATOM     17  C   UNL     1      12.829   8.309  17.713  0.00  0.00    +0.216 C 
ATOM     18  C   UNL     1      15.259  11.128  21.504  0.00  0.00    +0.015 A 
ATOM     19  C   UNL     1      16.246  10.257  21.296  0.00  0.00    +0.071 A 
ENDROOT
BRANCH  15  20
ATOM     20  C   UNL     1      12.827  11.759  21.754  0.00  0.00    -0.015 A 
ATOM     23  C   UNL     1      12.280  11.926  23.023  0.00  0.00    +0.027 A 
ATOM     24  C   UNL     1      12.404  12.553  20.693  0.00  0.00    +0.008 A 
ATOM     25  C   UNL     1      11.301  12.898  23.231  0.00  0.00    +0.052 A 
ATOM     26  C   UNL     1      11.425  13.525  20.901  0.00  0.00    +0.002 A 
ATOM     28  C   UNL     1      10.874  13.697  22.171  0.00  0.00    +0.019 A 
BRANCH  25  29
ATOM      7  N   UNL     1      10.275  13.218  25.589  0.00  0.00    -0.191 NA
ATOM     29  C   UNL     1      10.735  13.075  24.532  0.00  0.00    +0.099 C 
ENDBRANCH  25  29
ENDBRANCH  15  20
BRANCH  17  21
ATOM     21  C   UNL     1      12.662   9.724  17.218  0.00  0.00    +0.107 C 
BRANCH  21  22
ATOM     22  C   UNL     1      12.694   9.746  15.703  0.00  0.00    +0.129 C 
BRANCH  22  27
ATOM      4  O   UNL     1      14.899  10.140  14.795  0.00  0.00    -0.251 OA
ATOM     27  C   UNL     1      13.834  10.594  15.194  0.00  0.00    +0.305 C 
BRANCH  27   3
ATOM      3  O   UNL     1      13.561  11.921  15.248  0.00  0.00    -0.481 OA
ATOM     30  H   UNL     1      14.311  12.434  15.619  0.00  0.00    +0.295 HD
ENDBRANCH  27   3
ENDBRANCH  22  27
ENDBRANCH  21  22
ENDBRANCH  17  21
TORSDOF 6
ENDMDL
MODEL 3
REMARK VINA RESULT:      -6.1      2.303      4.326
REMARK  Name = 7662925
REMARK  6 active torsions:
REMARK  status: ('A' for Active; 'I' for Inactive)
REMARK    1  A    between atoms: O_3  and  C_27
REMARK    2  A    between atoms: C_15  and  C_20
REMARK    3  A    between atoms: C_17  and  C_21
REMARK    4  A    between atoms: C_21  and  C_22
REMARK    5  A    between atoms: C_22  and  C_27
REMARK    6  A    between atoms: C_25  and  C_29
REMARK                            x       y       z     vdW  Elec       q    Type
REMARK                         _______ _______ _______ _____ _____    ______ ____
ROOT
ATOM      1  O   UNL     1       7.241   9.012   4.212  0.00  0.00    -0.268 OA
ATOM      2  O   UNL     1      11.479   9.894   7.212  0.00  0.00    -0.276 OA
ATOM      5  N   UNL     1      11.300   7.623   6.757  0.00  0.00    -0.301 N 
ATOM      6  N   UNL     1       8.801   7.369   4.803  0.00  0.00    -0.311 N 
ATOM      8  C   UNL     1       9.081   6.596   7.231  0.00  0.00    +0.027 C 
ATOM      9  C   UNL     1      10.507   5.646   5.469  0.00  0.00    +0.054 C 
ATOM     10  C   UNL     1       9.554   5.291   6.609  0.00  0.00    +0.018 C 
ATOM     11  C   UNL     1      10.270   7.406   7.773  0.00  0.00    +0.113 C 
ATOM     12  C   UNL     1       8.289   7.376   6.180  0.00  0.00    +0.130 C 
ATOM     13  C   UNL     1      11.719   6.416   6.034  0.00  0.00    +0.117 C 
ATOM     14  C   UNL     1       9.809   6.477   4.388  0.00  0.00    +0.034 A 
ATOM     15  C   UNL     1      10.145   6.400   3.074  0.00  0.00    +0.002 A 
ATOM     16  C   UNL     1       8.135   8.224   3.907  0.00  0.00    +0.252 A 
ATOM     17  C   UNL     1      11.849   8.894   6.591  0.00  0.00    +0.216 C 
ATOM     18  C   UNL     1       9.483   7.270   2.121  0.00  0.00    +0.015 A 
ATOM     19  C   UNL     1       8.547   8.145   2.487  0.00  0.00    +0.071 A 
ENDROOT
BRANCH  15  20
ATOM     20  C   UNL     1      11.184   5.464   2.588  0.00  0.00    -0.015 A 
ATOM     23  C   UNL     1      12.418   5.956   2.173  0.00  0.00    +0.027 A 
ATOM     24  C   UNL     1      10.918   4.099   2.548  0.00  0.00    +0.008 A 
ATOM     25  C   UNL     1      13.395   5.072   1.714  0.00  0.00    +0.052 A 
ATOM     26  C   UNL     1      11.896   3.216   2.089  0.00  0.00    +0.002 A 
ATOM     28  C   UNL     1      13.134   3.703   1.672  0.00  0.00    +0.019 A 
BRANCH  25  29
ATOM      7  N   UNL     1      15.697   5.977   0.938  0.00  0.00    -0.191 NA
ATOM     29  C   UNL     1      14.665   5.571   1.286  0.00  0.00    +0.099 C 
ENDBRANCH  25  29
ENDBRANCH  15  20
BRANCH  17  21
ATOM     21  C   UNL     1      12.957   9.024   5.576  0.00  0.00    +0.107 C 
BRANCH  21  22
ATOM     22  C   UNL     1      14.234   9.466   6.262  0.00  0.00    +0.129 C 
BRANCH  22  27
ATOM      4  O   UNL     1      16.311   8.454   5.555  0.00  0.00    -0.251 OA
ATOM     27  C   UNL     1      15.281   8.382   6.213  0.00  0.00    +0.305 C 
BRANCH  27   3
ATOM      3  O   UNL     1      14.949   7.302   6.964  0.00  0.00    -0.481 OA
ATOM     30  H   UNL     1      14.824   6.499   6.414  0.00  0.00    +0.295 HD
ENDBRANCH  27   3
ENDBRANCH  22  27
ENDBRANCH  21  22
ENDBRANCH  17  21
TORSDOF 6
ENDMDL
MODEL 4
REMARK VINA RESULT:      -5.8      2.122      4.365
REMARK  Name = 7662925
REMARK  6 active torsions:
REMARK  status: ('A' for Active; 'I' for Inactive)
REMARK    1  A    between atoms: O_3  and  C_27
REMARK    2  A    between atoms: C_15  and  C_20
REMARK    3  A    between atoms: C_17  and  C_21
REMARK    4  A    between atoms: C_21  and  C_22
REMARK    5  A    between atoms: C_22  and  C_27
REMARK    6  A    between atoms: C_25  and  C_29
REMARK                            x       y       z     vdW  Elec       q    Type
REMARK                         _______ _______ _______ _____ _____    ______ ____
ROOT
ATOM      1  O   UNL     1      12.186  11.214   4.970  0.00  0.00    -0.268 OA
ATOM      2  O   UNL     1       8.936   8.631   8.211  0.00  0.00    -0.276 OA
ATOM      5  N   UNL     1       8.372   8.170   6.006  0.00  0.00    -0.301 N 
ATOM      6  N   UNL     1      10.566   9.679   4.262  0.00  0.00    -0.311 N 
ATOM      8  C   UNL     1       8.062  10.152   4.530  0.00  0.00    +0.027 C 
ATOM      9  C   UNL     1       8.809   8.022   3.559  0.00  0.00    +0.054 C 
ATOM     10  C   UNL     1       7.906   9.232   3.329  0.00  0.00    +0.018 C 
ATOM     11  C   UNL     1       7.656   9.433   5.827  0.00  0.00    +0.113 C 
ATOM     12  C   UNL     1       9.508  10.647   4.579  0.00  0.00    +0.130 C 
ATOM     13  C   UNL     1       8.361   7.282   4.836  0.00  0.00    +0.117 C 
ATOM     14  C   UNL     1      10.281   8.430   3.673  0.00  0.00    +0.034 A 
ATOM     15  C   UNL     1      11.298   7.631   3.258  0.00  0.00    +0.002 A 
ATOM     16  C   UNL     1      11.881  10.130   4.473  0.00  0.00    +0.252 A 
ATOM     17  C   UNL     1       8.940   7.867   7.242  0.00  0.00    +0.216 C 
ATOM     18  C   UNL     1      12.668   8.062   3.463  0.00  0.00    +0.015 A 
ATOM     19  C   UNL     1      12.970   9.223   4.044  0.00  0.00    +0.071 A 
ENDROOT
BRANCH  15  20
ATOM     20  C   UNL     1      11.047   6.320   2.617  0.00  0.00    -0.015 A 
ATOM     23  C   UNL     1      10.564   6.270   1.313  0.00  0.00    +0.027 A 
ATOM     24  C   UNL     1      11.295   5.148   3.324  0.00  0.00    +0.008 A 
ATOM     25  C   UNL     1      10.327   5.034   0.711  0.00  0.00    +0.052 A 
ATOM     26  C   UNL     1      11.058   3.912   2.722  0.00  0.00    +0.002 A 
ATOM     28  C   UNL     1      10.574   3.856   1.415  0.00  0.00    +0.019 A 
BRANCH  25  29
ATOM      7  N   UNL     1       9.428   4.927  -1.717  0.00  0.00    -0.191 NA
ATOM     29  C   UNL     1       9.830   4.975  -0.629  0.00  0.00    +0.099 C 
ENDBRANCH  25  29
ENDBRANCH  15  20
BRANCH  17  21
ATOM     21  C   UNL     1       9.598   6.516   7.371  0.00  0.00    +0.107 C 
BRANCH  21  22
ATOM     22  C   UNL     1       8.989   5.755   8.532  0.00  0.00    +0.129 C 
BRANCH  22  27
ATOM      4  O   UNL     1      10.392   4.865  10.286  0.00  0.00    -0.251 OA
ATOM     27  C   UNL     1       9.983   4.794   9.135  0.00  0.00    +0.305 C 
BRANCH  27   3
ATOM      3  O   UNL     1      10.396   3.850   8.253  0.00  0.00    -0.481 OA
ATOM     30  H   UNL     1      11.161   3.339   8.595  0.00  0.00    +0.295 HD
ENDBRANCH  27   3
ENDBRANCH  22  27
ENDBRANCH  21  22
ENDBRANCH  17  21
TORSDOF 6
ENDMDL
MODEL 5
REMARK VINA RESULT:      -5.8     24.452     27.338
REMARK  Name = 7662925
REMARK  6 active torsions:
REMARK  status: ('A' for Active; 'I' for Inactive)
REMARK    1  A    between atoms: O_3  and  C_27
REMARK    2  A    between atoms: C_15  and  C_20
REMARK    3  A    between atoms: C_17  and  C_21
REMARK    4  A    between atoms: C_21  and  C_22
REMARK    5  A    between atoms: C_22  and  C_27
REMARK    6  A    between atoms: C_25  and  C_29
REMARK                            x       y       z     vdW  Elec       q    Type
REMARK                         _______ _______ _______ _____ _____    ______ ____
ROOT
ATOM      1  O   UNL     1      -1.034 -12.540  13.689  0.00  0.00    -0.268 OA
ATOM      2  O   UNL     1      -5.660 -12.796  11.185  0.00  0.00    -0.276 OA
ATOM      5  N   UNL     1      -5.925 -13.474  13.391  0.00  0.00    -0.301 N 
ATOM      6  N   UNL     1      -3.067 -13.061  14.728  0.00  0.00    -0.311 N 
ATOM      8  C   UNL     1      -4.336 -15.220  14.185  0.00  0.00    +0.027 C 
ATOM      9  C   UNL     1      -5.278 -13.615  15.790  0.00  0.00    +0.054 C 
ATOM     10  C   UNL     1      -4.889 -15.080  15.595  0.00  0.00    +0.018 C 
ATOM     11  C   UNL     1      -5.390 -14.813  13.142  0.00  0.00    +0.113 C 
ATOM     12  C   UNL     1      -3.065 -14.377  14.075  0.00  0.00    +0.130 C 
ATOM     13  C   UNL     1      -6.369 -13.233  14.769  0.00  0.00    +0.117 C 
ATOM     14  C   UNL     1      -4.069 -12.686  15.646  0.00  0.00    +0.034 A 
ATOM     15  C   UNL     1      -3.950 -11.524  16.340  0.00  0.00    +0.002 A 
ATOM     16  C   UNL     1      -1.943 -12.257  14.468  0.00  0.00    +0.252 A 
ATOM     17  C   UNL     1      -6.041 -12.570  12.336  0.00  0.00    +0.216 C 
ATOM     18  C   UNL     1      -2.806 -10.667  16.095  0.00  0.00    +0.015 A 
ATOM     19  C   UNL     1      -1.857 -10.979  15.212  0.00  0.00    +0.071 A 
ENDROOT
BRANCH  15  20
ATOM     20  C   UNL     1      -4.966 -11.099  17.328  0.00  0.00    -0.015 A 
ATOM     23  C   UNL     1      -6.058 -10.341  16.913  0.00  0.00    +0.027 A 
ATOM     24  C   UNL     1      -4.822 -11.457  18.664  0.00  0.00    +0.008 A 
ATOM     25  C   UNL     1      -7.014  -9.940  17.846  0.00  0.00    +0.052 A 
ATOM     26  C   UNL     1      -5.779 -11.056  19.597  0.00  0.00    +0.002 A 
ATOM     28  C   UNL     1      -6.875 -10.297  19.187  0.00  0.00    +0.019 A 
BRANCH  25  29
ATOM      7  N   UNL     1      -9.052  -8.529  17.089  0.00  0.00    -0.191 NA
ATOM     29  C   UNL     1      -8.138  -9.161  17.428  0.00  0.00    +0.099 C 
ENDBRANCH  25  29
ENDBRANCH  15  20
BRANCH  17  21
ATOM     21  C   UNL     1      -6.670 -11.236  12.656  0.00  0.00    +0.107 C 
BRANCH  21  22
ATOM     22  C   UNL     1      -5.595 -10.241  13.046  0.00  0.00    +0.129 C 
BRANCH  22  27
ATOM      4  O   UNL     1      -5.583  -8.472  11.400  0.00  0.00    -0.251 OA
ATOM     27  C   UNL     1      -5.079  -9.497  11.840  0.00  0.00    +0.305 C 
BRANCH  27   3
ATOM      3  O   UNL     1      -4.003 -10.101  11.275  0.00  0.00    -0.481 OA
ATOM     30  H   UNL     1      -4.151 -10.301  10.326  0.00  0.00    +0.295 HD
ENDBRANCH  27   3
ENDBRANCH  22  27
ENDBRANCH  21  22
ENDBRANCH  17  21
TORSDOF 6
ENDMDL
MODEL 6
REMARK VINA RESULT:      -5.7     24.363     26.851
REMARK  Name = 7662925
REMARK  6 active torsions:
REMARK  status: ('A' for Active; 'I' for Inactive)
REMARK    1  A    between atoms: O_3  and  C_27
REMARK    2  A    between atoms: C_15  and  C_20
REMARK    3  A    between atoms: C_17  and  C_21
REMARK    4  A    between atoms: C_21  and  C_22
REMARK    5  A    between atoms: C_22  and  C_27
REMARK    6  A    between atoms: C_25  and  C_29
REMARK                            x       y       z     vdW  Elec       q    Type
REMARK                         _______ _______ _______ _____ _____    ______ ____
ROOT
ATOM      1  O   UNL     1      -6.316 -15.184  17.030  0.00  0.00    -0.268 OA
ATOM      2  O   UNL     1      -8.028 -10.368  18.301  0.00  0.00    -0.276 OA
ATOM      5  N   UNL     1      -5.844 -10.243  17.519  0.00  0.00    -0.301 N 
ATOM      6  N   UNL     1      -5.107 -13.215  16.653  0.00  0.00    -0.311 N 
ATOM      8  C   UNL     1      -4.218 -11.795  18.592  0.00  0.00    +0.027 C 
ATOM      9  C   UNL     1      -3.853 -11.069  16.273  0.00  0.00    +0.054 C 
ATOM     10  C   UNL     1      -3.152 -11.363  17.598  0.00  0.00    +0.018 C 
ATOM     11  C   UNL     1      -5.265 -10.685  18.787  0.00  0.00    +0.113 C 
ATOM     12  C   UNL     1      -4.849 -13.096  18.094  0.00  0.00    +0.130 C 
ATOM     13  C   UNL     1      -4.866  -9.922  16.472  0.00  0.00    +0.117 C 
ATOM     14  C   UNL     1      -4.561 -12.310  15.721  0.00  0.00    +0.034 A 
ATOM     15  C   UNL     1      -4.698 -12.545  14.390  0.00  0.00    +0.002 A 
ATOM     16  C   UNL     1      -5.830 -14.356  16.261  0.00  0.00    +0.252 A 
ATOM     17  C   UNL     1      -7.225 -10.092  17.405  0.00  0.00    +0.216 C 
ATOM     18  C   UNL     1      -5.441 -13.709  13.949  0.00  0.00    +0.015 A 
ATOM     19  C   UNL     1      -5.995 -14.567  14.805  0.00  0.00    +0.071 A 
ENDROOT
BRANCH  15  20
ATOM     20  C   UNL     1      -4.125 -11.633  13.375  0.00  0.00    -0.015 A 
ATOM     23  C   UNL     1      -4.966 -10.812  12.629  0.00  0.00    +0.027 A 
ATOM     24  C   UNL     1      -2.749 -11.604  13.171  0.00  0.00    +0.008 A 
ATOM     25  C   UNL     1      -4.424  -9.955  11.671  0.00  0.00    +0.052 A 
ATOM     26  C   UNL     1      -2.207 -10.747  12.214  0.00  0.00    +0.002 A 
ATOM     28  C   UNL     1      -3.046  -9.922  11.464  0.00  0.00    +0.019 A 
BRANCH  25  29
ATOM      7  N   UNL     1      -5.980  -8.422  10.277  0.00  0.00    -0.191 NA
ATOM     29  C   UNL     1      -5.283  -9.108  10.902  0.00  0.00    +0.099 C 
ENDBRANCH  25  29
ENDBRANCH  15  20
BRANCH  17  21
ATOM     21  C   UNL     1      -7.741  -9.562  16.091  0.00  0.00    +0.107 C 
BRANCH  21  22
ATOM     22  C   UNL     1      -9.249  -9.423  16.148  0.00  0.00    +0.129 C 
BRANCH  22  27
ATOM      4  O   UNL     1     -10.016  -7.184  15.661  0.00  0.00    -0.251 OA
ATOM     27  C   UNL     1      -9.654  -8.010  16.489  0.00  0.00    +0.305 C 
BRANCH  27   3
ATOM      3  O   UNL     1      -9.550  -7.743  17.814  0.00  0.00    -0.481 OA
ATOM     30  H   UNL     1     -10.423  -7.764  18.261  0.00  0.00    +0.295 HD
ENDBRANCH  27   3
ENDBRANCH  22  27
ENDBRANCH  21  22
ENDBRANCH  17  21
TORSDOF 6
ENDMDL
MODEL 7
REMARK VINA RESULT:      -5.7      3.261      6.294
REMARK  Name = 7662925
REMARK  6 active torsions:
REMARK  status: ('A' for Active; 'I' for Inactive)
REMARK    1  A    between atoms: O_3  and  C_27
REMARK    2  A    between atoms: C_15  and  C_20
REMARK    3  A    between atoms: C_17  and  C_21
REMARK    4  A    between atoms: C_21  and  C_22
REMARK    5  A    between atoms: C_22  and  C_27
REMARK    6  A    between atoms: C_25  and  C_29
REMARK                            x       y       z     vdW  Elec       q    Type
REMARK                         _______ _______ _______ _____ _____    ______ ____
ROOT
ATOM      1  O   UNL     1      15.409   6.938   1.296  0.00  0.00    -0.268 OA
ATOM      2  O   UNL     1      11.444   5.923  -2.018  0.00  0.00    -0.276 OA
ATOM      5  N   UNL     1      11.144   4.728  -0.048  0.00  0.00    -0.301 N 
ATOM      6  N   UNL     1      13.538   5.640   1.840  0.00  0.00    -0.311 N 
ATOM      8  C   UNL     1      13.098   3.382   0.710  0.00  0.00    +0.027 C 
ATOM      9  C   UNL     1      11.507   4.254   2.368  0.00  0.00    +0.054 C 
ATOM     10  C   UNL     1      12.363   3.044   1.998  0.00  0.00    +0.018 C 
ATOM     11  C   UNL     1      12.104   3.690  -0.422  0.00  0.00    +0.113 C 
ATOM     12  C   UNL     1      14.037   4.558   0.982  0.00  0.00    +0.130 C 
ATOM     13  C   UNL     1      10.483   4.522   1.247  0.00  0.00    +0.117 C 
ATOM     14  C   UNL     1      12.366   5.499   2.610  0.00  0.00    +0.034 A 
ATOM     15  C   UNL     1      12.024   6.464   3.504  0.00  0.00    +0.002 A 
ATOM     16  C   UNL     1      14.370   6.770   1.933  0.00  0.00    +0.252 A 
ATOM     17  C   UNL     1      10.874   5.770  -0.934  0.00  0.00    +0.216 C 
ATOM     18  C   UNL     1      12.856   7.646   3.624  0.00  0.00    +0.015 A 
ATOM     19  C   UNL     1      13.954   7.822   2.889  0.00  0.00    +0.071 A 
ENDROOT
BRANCH  15  20
ATOM     20  C   UNL     1      10.813   6.351   4.347  0.00  0.00    -0.015 A 
ATOM     23  C   UNL     1      10.876   5.671   5.560  0.00  0.00    +0.027 A 
ATOM     24  C   UNL     1       9.619   6.923   3.920  0.00  0.00    +0.008 A 
ATOM     25  C   UNL     1       9.734   5.564   6.353  0.00  0.00    +0.052 A 
ATOM     26  C   UNL     1       8.477   6.817   4.713  0.00  0.00    +0.002 A 
ATOM     28  C   UNL     1       8.535   6.137   5.930  0.00  0.00    +0.019 A 
BRANCH  25  29
ATOM      7  N   UNL     1       9.839   4.301   8.613  0.00  0.00    -0.191 NA
ATOM     29  C   UNL     1       9.792   4.868   7.600  0.00  0.00    +0.099 C 
ENDBRANCH  25  29
ENDBRANCH  15  20
BRANCH  17  21
ATOM     21  C   UNL     1       9.820   6.763  -0.510  0.00  0.00    +0.107 C 
BRANCH  21  22
ATOM     22  C   UNL     1      10.461   7.891   0.274  0.00  0.00    +0.129 C 
BRANCH  22  27
ATOM      4  O   UNL     1       8.435   8.853   1.173  0.00  0.00    -0.251 OA
ATOM     27  C   UNL     1       9.473   8.999   0.540  0.00  0.00    +0.305 C 
BRANCH  27   3
ATOM      3  O   UNL     1       9.847  10.176  -0.019  0.00  0.00    -0.481 OA
ATOM     30  H   UNL     1       9.616  10.219  -0.971  0.00  0.00    +0.295 HD
ENDBRANCH  27   3
ENDBRANCH  22  27
ENDBRANCH  21  22
ENDBRANCH  17  21
TORSDOF 6
ENDMDL
MODEL 8
REMARK VINA RESULT:      -5.5      2.721      7.031
REMARK  Name = 7662925
REMARK  6 active torsions:
REMARK  status: ('A' for Active; 'I' for Inactive)
REMARK    1  A    between atoms: O_3  and  C_27
REMARK    2  A    between atoms: C_15  and  C_20
REMARK    3  A    between atoms: C_17  and  C_21
REMARK    4  A    between atoms: C_21  and  C_22
REMARK    5  A    between atoms: C_22  and  C_27
REMARK    6  A    between atoms: C_25  and  C_29
REMARK                            x       y       z     vdW  Elec       q    Type
REMARK                         _______ _______ _______ _____ _____    ______ ____
ROOT
ATOM      1  O   UNL     1       7.764   8.481   2.909  0.00  0.00    -0.268 OA
ATOM      2  O   UNL     1       9.494   4.424   5.788  0.00  0.00    -0.276 OA
ATOM      5  N   UNL     1      11.015   6.176   5.909  0.00  0.00    -0.301 N 
ATOM      6  N   UNL     1       9.675   8.546   4.261  0.00  0.00    -0.311 N 
ATOM      8  C   UNL     1      11.744   7.131   3.728  0.00  0.00    +0.027 C 
ATOM      9  C   UNL     1      11.717   8.557   5.728  0.00  0.00    +0.054 C 
ATOM     10  C   UNL     1      12.503   8.225   4.462  0.00  0.00    +0.018 C 
ATOM     11  C   UNL     1      11.607   5.876   4.606  0.00  0.00    +0.113 C 
ATOM     12  C   UNL     1      10.382   7.685   3.305  0.00  0.00    +0.130 C 
ATOM     13  C   UNL     1      11.629   7.303   6.623  0.00  0.00    +0.117 C 
ATOM     14  C   UNL     1      10.313   9.074   5.401  0.00  0.00    +0.034 A 
ATOM     15  C   UNL     1       9.668   9.986   6.175  0.00  0.00    +0.002 A 
ATOM     16  C   UNL     1       8.363   8.901   3.899  0.00  0.00    +0.252 A 
ATOM     17  C   UNL     1       9.994   5.367   6.407  0.00  0.00    +0.216 C 
ATOM     18  C   UNL     1       8.313  10.373   5.834  0.00  0.00    +0.015 A 
ATOM     19  C   UNL     1       7.672   9.869   4.781  0.00  0.00    +0.071 A 
ENDROOT
BRANCH  15  20
ATOM     20  C   UNL     1      10.305  10.583   7.371  0.00  0.00    -0.015 A 
ATOM     23  C   UNL     1       9.541  10.840   8.505  0.00  0.00    +0.027 A 
ATOM     24  C   UNL     1      11.662  10.885   7.350  0.00  0.00    +0.008 A 
ATOM     25  C   UNL     1      10.143  11.404   9.631  0.00  0.00    +0.052 A 
ATOM     26  C   UNL     1      12.264  11.449   8.476  0.00  0.00    +0.002 A 
ATOM     28  C   UNL     1      11.503  11.708   9.616  0.00  0.00    +0.019 A 
BRANCH  25  29
ATOM      7  N   UNL     1       8.732  11.887  11.750  0.00  0.00    -0.191 NA
ATOM     29  C   UNL     1       9.364  11.670  10.800  0.00  0.00    +0.099 C 
ENDBRANCH  25  29
ENDBRANCH  15  20
BRANCH  17  21
ATOM     21  C   UNL     1       9.485   5.694   7.788  0.00  0.00    +0.107 C 
BRANCH  21  22
ATOM     22  C   UNL     1       9.416   4.432   8.624  0.00  0.00    +0.129 C 
BRANCH  22  27
ATOM      4  O   UNL     1      10.520   4.947  10.711  0.00  0.00    -0.251 OA
ATOM     27  C   UNL     1       9.480   4.750  10.097  0.00  0.00    +0.305 C 
BRANCH  27   3
ATOM      3  O   UNL     1       8.255   4.773  10.679  0.00  0.00    -0.481 OA
ATOM     30  H   UNL     1       7.891   5.682  10.733  0.00  0.00    +0.295 HD
ENDBRANCH  27   3
ENDBRANCH  22  27
ENDBRANCH  21  22
ENDBRANCH  17  21
TORSDOF 6
ENDMDL
MODEL 9
REMARK VINA RESULT:      -5.4     23.875     26.777
REMARK  Name = 7662925
REMARK  6 active torsions:
REMARK  status: ('A' for Active; 'I' for Inactive)
REMARK    1  A    between atoms: O_3  and  C_27
REMARK    2  A    between atoms: C_15  and  C_20
REMARK    3  A    between atoms: C_17  and  C_21
REMARK    4  A    between atoms: C_21  and  C_22
REMARK    5  A    between atoms: C_22  and  C_27
REMARK    6  A    between atoms: C_25  and  C_29
REMARK                            x       y       z     vdW  Elec       q    Type
REMARK                         _______ _______ _______ _____ _____    ______ ____
ROOT
ATOM      1  O   UNL     1      -0.773 -12.359  14.091  0.00  0.00    -0.268 OA
ATOM      2  O   UNL     1      -4.148 -10.909  10.317  0.00  0.00    -0.276 OA
ATOM      5  N   UNL     1      -5.299 -11.976  12.030  0.00  0.00    -0.301 N 
ATOM      6  N   UNL     1      -3.098 -12.584  14.247  0.00  0.00    -0.311 N 
ATOM      8  C   UNL     1      -4.395 -14.189  12.727  0.00  0.00    +0.027 C 
ATOM      9  C   UNL     1      -5.601 -12.803  14.359  0.00  0.00    +0.054 C 
ATOM     10  C   UNL     1      -5.396 -14.236  13.872  0.00  0.00    +0.018 C 
ATOM     11  C   UNL     1      -4.920 -13.314  11.577  0.00  0.00    +0.113 C 
ATOM     12  C   UNL     1      -3.059 -13.680  13.270  0.00  0.00    +0.130 C 
ATOM     13  C   UNL     1      -6.173 -11.947  13.210  0.00  0.00    +0.117 C 
ATOM     14  C   UNL     1      -4.296 -12.190  14.876  0.00  0.00    +0.034 A 
ATOM     15  C   UNL     1      -4.263 -11.278  15.882  0.00  0.00    +0.002 A 
ATOM     16  C   UNL     1      -1.849 -12.043  14.597  0.00  0.00    +0.252 A 
ATOM     17  C   UNL     1      -4.884 -10.859  11.307  0.00  0.00    +0.216 C 
ATOM     18  C   UNL     1      -2.992 -10.694  16.268  0.00  0.00    +0.015 A 
ATOM     19  C   UNL     1      -1.847 -11.024  15.672  0.00  0.00    +0.071 A 
ENDROOT
BRANCH  15  20
ATOM     20  C   UNL     1      -5.492 -10.847  16.585  0.00  0.00    -0.015 A 
ATOM     23  C   UNL     1      -5.973 -11.594  17.657  0.00  0.00    +0.027 A 
ATOM     24  C   UNL     1      -6.159  -9.700  16.168  0.00  0.00    +0.008 A 
ATOM     25  C   UNL     1      -7.133 -11.188  18.317  0.00  0.00    +0.052 A 
ATOM     26  C   UNL     1      -7.319  -9.294  16.829  0.00  0.00    +0.002 A 
ATOM     28  C   UNL     1      -7.805 -10.038  17.904  0.00  0.00    +0.019 A 
BRANCH  25  29
ATOM      7  N   UNL     1      -8.038 -12.569  20.314  0.00  0.00    -0.191 NA
ATOM     29  C   UNL     1      -7.633 -11.950  19.419  0.00  0.00    +0.099 C 
ENDBRANCH  25  29
ENDBRANCH  15  20
BRANCH  17  21
ATOM     21  C   UNL     1      -5.375  -9.518  11.793  0.00  0.00    +0.107 C 
BRANCH  21  22
ATOM     22  C   UNL     1      -5.108  -8.460  10.741  0.00  0.00    +0.129 C 
BRANCH  22  27
ATOM      4  O   UNL     1      -7.317  -8.426   9.762  0.00  0.00    -0.251 OA
ATOM     27  C   UNL     1      -6.107  -8.547   9.615  0.00  0.00    +0.305 C 
BRANCH  27   3
ATOM      3  O   UNL     1      -5.523  -8.800   8.418  0.00  0.00    -0.481 OA
ATOM     30  H   UNL     1      -5.657  -8.065   7.782  0.00  0.00    +0.295 HD
ENDBRANCH  27   3
ENDBRANCH  22  27
ENDBRANCH  21  22
ENDBRANCH  17  21
TORSDOF 6
ENDMDL
MODEL 10
REMARK VINA RESULT:      -5.4      3.207      6.596
REMARK  Name = 7662925
REMARK  6 active torsions:
REMARK  status: ('A' for Active; 'I' for Inactive)
REMARK    1  A    between atoms: O_3  and  C_27
REMARK    2  A    between atoms: C_15  and  C_20
REMARK    3  A    between atoms: C_17  and  C_21
REMARK    4  A    between atoms: C_21  and  C_22
REMARK    5  A    between atoms: C_22  and  C_27
REMARK    6  A    between atoms: C_25  and  C_29
REMARK                            x       y       z     vdW  Elec       q    Type
REMARK                         _______ _______ _______ _____ _____    ______ ____
ROOT
ATOM      1  O   UNL     1       9.028   5.490   6.859  0.00  0.00    -0.268 OA
ATOM      2  O   UNL     1      10.573   4.545   1.913  0.00  0.00    -0.276 OA
ATOM      5  N   UNL     1      11.116   6.726   2.501  0.00  0.00    -0.301 N 
ATOM      6  N   UNL     1      10.260   6.994   5.554  0.00  0.00    -0.311 N 
ATOM      8  C   UNL     1       9.261   8.083   3.460  0.00  0.00    +0.027 C 
ATOM      9  C   UNL     1      11.581   8.570   4.107  0.00  0.00    +0.054 C 
ATOM     10  C   UNL     1      10.240   9.209   3.755  0.00  0.00    +0.018 C 
ATOM     11  C   UNL     1       9.757   7.221   2.287  0.00  0.00    +0.113 C 
ATOM     12  C   UNL     1       9.070   7.260   4.734  0.00  0.00    +0.130 C 
ATOM     13  C   UNL     1      12.090   7.748   2.905  0.00  0.00    +0.117 C 
ATOM     14  C   UNL     1      11.474   7.680   5.349  0.00  0.00    +0.034 A 
ATOM     15  C   UNL     1      12.500   7.515   6.224  0.00  0.00    +0.002 A 
ATOM     16  C   UNL     1      10.068   6.104   6.625  0.00  0.00    +0.252 A 
ATOM     17  C   UNL     1      11.410   5.386   2.252  0.00  0.00    +0.216 C 
ATOM     18  C   UNL     1      12.340   6.602   7.339  0.00  0.00    +0.015 A 
ATOM     19  C   UNL     1      11.215   5.916   7.543  0.00  0.00    +0.071 A 
ENDROOT
BRANCH  15  20
ATOM     20  C   UNL     1      13.786   8.229   6.061  0.00  0.00    -0.015 A 
ATOM     23  C   UNL     1      13.944   9.501   6.603  0.00  0.00    +0.027 A 
ATOM     24  C   UNL     1      14.826   7.624   5.364  0.00  0.00    +0.008 A 
ATOM     25  C   UNL     1      15.157  10.173   6.447  0.00  0.00    +0.052 A 
ATOM     26  C   UNL     1      16.039   8.296   5.207  0.00  0.00    +0.002 A 
ATOM     28  C   UNL     1      16.204   9.571   5.750  0.00  0.00    +0.019 A 
BRANCH  25  29
ATOM      7  N   UNL     1      15.465  12.541   7.452  0.00  0.00    -0.191 NA
ATOM     29  C   UNL     1      15.327  11.480   7.002  0.00  0.00    +0.099 C 
ENDBRANCH  25  29
ENDBRANCH  15  20
BRANCH  17  21
ATOM     21  C   UNL     1      12.848   4.966   2.425  0.00  0.00    +0.107 C 
BRANCH  21  22
ATOM     22  C   UNL     1      13.104   3.680   1.664  0.00  0.00    +0.129 C 
BRANCH  22  27
ATOM      4  O   UNL     1      14.960   3.799   0.122  0.00  0.00    -0.251 OA
ATOM     27  C   UNL     1      14.551   3.569   1.253  0.00  0.00    +0.305 C 
BRANCH  27   3
ATOM      3  O   UNL     1      15.353   3.163   2.268  0.00  0.00    -0.481 OA
ATOM     30  H   UNL     1      14.869   3.115   3.120  0.00  0.00    +0.295 HD
ENDBRANCH  27   3
ENDBRANCH  22  27
ENDBRANCH  21  22
ENDBRANCH  17  21
TORSDOF 6
ENDMDL
