MODEL 1
REMARK VINA RESULT:      -6.8      0.000      0.000
REMARK  Name = 75366995
REMARK  13 active torsions:
REMARK  status: ('A' for Active; 'I' for Inactive)
REMARK    1  A    between atoms: O_2  and  C_9
REMARK    2  A    between atoms: O_5  and  C_24
REMARK    3  A    between atoms: O_5  and  C_25
REMARK    4  A    between atoms: N_6  and  C_13
REMARK    5  A    between atoms: C_8  and  C_13
REMARK    6  A    between atoms: C_10  and  C_14
REMARK    7  A    between atoms: C_14  and  C_15
REMARK    8  A    between atoms: C_16  and  C_17
REMARK    9  A    between atoms: C_16  and  C_18
REMARK   10  A    between atoms: C_16  and  C_19
REMARK   11  A    between atoms: C_18  and  C_22
REMARK   12  A    between atoms: C_19  and  C_23
REMARK   13  A    between atoms: C_21  and  C_24
REMARK                            x       y       z     vdW  Elec       q    Type
REMARK                         _______ _______ _______ _____ _____    ______ ____
ROOT
ATOM      1  O   UNL     1      -6.778 -11.490  17.217  0.00  0.00    -0.369 OA
ATOM      8  C   UNL     1      -7.729 -10.627  17.855  0.00  0.00    +0.164 C 
ATOM      9  C   UNL     1      -7.558 -10.640  19.380  0.00  0.00    +0.145 C 
ATOM     10  C   UNL     1      -5.409 -11.225  17.531  0.00  0.00    +0.125 C 
ATOM     11  C   UNL     1      -6.109 -10.420  19.804  0.00  0.00    +0.036 C 
ATOM     12  C   UNL     1      -5.168 -11.344  19.035  0.00  0.00    +0.034 C 
ENDROOT
BRANCH   9   2
ATOM      2  O   UNL     1      -7.970 -11.915  19.880  0.00  0.00    -0.389 OA
ATOM     32  H   UNL     1      -7.588 -12.020  20.768  0.00  0.00    +0.210 HD
ENDBRANCH   9   2
BRANCH   8  13
ATOM     13  C   UNL     1      -7.681  -9.222  17.262  0.00  0.00    +0.138 C 
BRANCH  13   6
ATOM      4  O   UNL     1      -9.633  -8.557  15.260  0.00  0.00    -0.276 OA
ATOM      6  N   UNL     1      -8.925  -8.518  17.467  0.00  0.00    -0.313 N 
ATOM     17  C   UNL     1      -9.809  -8.241  16.435  0.00  0.00    +0.216 C 
ATOM     31  H   UNL     1      -9.137  -8.198  18.408  0.00  0.00    +0.149 HD
BRANCH  17  16
ATOM     16  C   UNL     1     -11.045  -7.470  16.911  0.00  0.00    +0.074 C 
BRANCH  16  18
ATOM     18  C   UNL     1     -11.097  -6.083  16.239  0.00  0.00    +0.009 C 
ATOM     22  C   UNL     1     -12.112  -5.960  15.110  0.00  0.00    +0.004 C 
ENDBRANCH  16  18
BRANCH  16  19
ATOM     19  C   UNL     1     -12.344  -8.265  16.694  0.00  0.00    +0.009 C 
ATOM     23  C   UNL     1     -12.430  -9.496  17.589  0.00  0.00    +0.004 C 
ENDBRANCH  16  19
ENDBRANCH  17  16
ENDBRANCH  13   6
ENDBRANCH   8  13
BRANCH  10  14
ATOM     14  C   UNL     1      -4.560 -12.233  16.765  0.00  0.00    +0.090 C 
BRANCH  14  15
ATOM      3  O   UNL     1      -1.919 -10.355  15.187  0.00  0.00    -0.356 OA
ATOM      7  N   UNL     1      -2.591 -10.830  16.307  0.00  0.00    -0.083 NA
ATOM     15  C   UNL     1      -3.605 -11.552  15.821  0.00  0.00    +0.086 A 
ATOM     20  C   UNL     1      -3.623 -11.568  14.416  0.00  0.00    +0.074 A 
ATOM     21  C   UNL     1      -2.543 -10.800  14.067  0.00  0.00    +0.175 A 
BRANCH  21  24
ATOM     24  C   UNL     1      -1.961 -10.389  12.785  0.00  0.00    +0.306 C 
BRANCH  24   5
ATOM      5  O   UNL     1      -2.332 -11.308  11.754  0.00  0.00    -0.484 OA
BRANCH   5  25
ATOM     25  C   UNL     1      -3.107 -10.810  10.745  0.00  0.00    +0.121 A 
ATOM     26  C   UNL     1      -3.922 -11.665  10.004  0.00  0.00    +0.045 A 
ATOM     27  C   UNL     1      -3.082  -9.446  10.454  0.00  0.00    +0.045 A 
ATOM     28  C   UNL     1      -4.713 -11.157   8.973  0.00  0.00    +0.004 A 
ATOM     29  C   UNL     1      -3.873  -8.937   9.424  0.00  0.00    +0.004 A 
ATOM     30  C   UNL     1      -4.689  -9.793   8.683  0.00  0.00    +0.000 A 
ENDBRANCH   5  25
ENDBRANCH  24   5
ENDBRANCH  21  24
ENDBRANCH  14  15
ENDBRANCH  10  14
TORSDOF 11
ENDMDL
MODEL 2
REMARK VINA RESULT:      -6.4     18.641     21.398
REMARK  Name = 75366995
REMARK  13 active torsions:
REMARK  status: ('A' for Active; 'I' for Inactive)
REMARK    1  A    between atoms: O_2  and  C_9
REMARK    2  A    between atoms: O_5  and  C_24
REMARK    3  A    between atoms: O_5  and  C_25
REMARK    4  A    between atoms: N_6  and  C_13
REMARK    5  A    between atoms: C_8  and  C_13
REMARK    6  A    between atoms: C_10  and  C_14
REMARK    7  A    between atoms: C_14  and  C_15
REMARK    8  A    between atoms: C_16  and  C_17
REMARK    9  A    between atoms: C_16  and  C_18
REMARK   10  A    between atoms: C_16  and  C_19
REMARK   11  A    between atoms: C_18  and  C_22
REMARK   12  A    between atoms: C_19  and  C_23
REMARK   13  A    between atoms: C_21  and  C_24
REMARK                            x       y       z     vdW  Elec       q    Type
REMARK                         _______ _______ _______ _____ _____    ______ ____
ROOT
ATOM      1  O   UNL     1     -16.143   1.835  30.007  0.00  0.00    -0.369 OA
ATOM      8  C   UNL     1     -15.274   2.227  31.079  0.00  0.00    +0.164 C 
ATOM      9  C   UNL     1     -14.292   1.105  31.440  0.00  0.00    +0.145 C 
ATOM     10  C   UNL     1     -15.483   1.397  28.818  0.00  0.00    +0.125 C 
ATOM     11  C   UNL     1     -13.582   0.537  30.215  0.00  0.00    +0.036 C 
ATOM     12  C   UNL     1     -14.581   0.199  29.112  0.00  0.00    +0.034 C 
ENDROOT
BRANCH   9   2
ATOM      2  O   UNL     1     -15.019   0.038  32.057  0.00  0.00    -0.389 OA
ATOM     32  H   UNL     1     -15.515  -0.422  31.359  0.00  0.00    +0.210 HD
ENDBRANCH   9   2
BRANCH   8  13
ATOM     13  C   UNL     1     -14.578   3.549  30.765  0.00  0.00    +0.138 C 
BRANCH  13   6
ATOM      4  O   UNL     1     -15.866   6.095  31.105  0.00  0.00    -0.276 OA
ATOM      6  N   UNL     1     -14.514   4.402  31.929  0.00  0.00    -0.313 N 
ATOM     17  C   UNL     1     -15.173   5.621  32.002  0.00  0.00    +0.216 C 
ATOM     31  H   UNL     1     -13.941   4.095  32.710  0.00  0.00    +0.149 HD
BRANCH  17  16
ATOM     16  C   UNL     1     -14.932   6.339  33.335  0.00  0.00    +0.074 C 
BRANCH  16  18
ATOM     18  C   UNL     1     -15.346   5.429  34.510  0.00  0.00    +0.009 C 
ATOM     22  C   UNL     1     -14.208   5.038  35.444  0.00  0.00    +0.004 C 
ENDBRANCH  16  18
BRANCH  16  19
ATOM     19  C   UNL     1     -13.482   6.836  33.473  0.00  0.00    +0.009 C 
ATOM     23  C   UNL     1     -13.406   8.314  33.836  0.00  0.00    +0.004 C 
ENDBRANCH  16  19
ENDBRANCH  17  16
ENDBRANCH  13   6
ENDBRANCH   8  13
BRANCH  10  14
ATOM     14  C   UNL     1     -16.561   1.028  27.805  0.00  0.00    +0.090 C 
BRANCH  14  15
ATOM      3  O   UNL     1     -16.296   2.121  24.381  0.00  0.00    -0.356 OA
ATOM      7  N   UNL     1     -16.494   1.143  25.348  0.00  0.00    -0.083 NA
ATOM     15  C   UNL     1     -16.395   1.786  26.515  0.00  0.00    +0.086 A 
ATOM     20  C   UNL     1     -16.137   3.158  26.349  0.00  0.00    +0.074 A 
ATOM     21  C   UNL     1     -16.084   3.316  24.989  0.00  0.00    +0.175 A 
BRANCH  21  24
ATOM     24  C   UNL     1     -15.855   4.467  24.108  0.00  0.00    +0.306 C 
BRANCH  24   5
ATOM      5  O   UNL     1     -15.227   4.046  22.895  0.00  0.00    -0.484 OA
BRANCH   5  25
ATOM     25  C   UNL     1     -14.545   5.004  22.198  0.00  0.00    +0.121 A 
ATOM     26  C   UNL     1     -13.157   5.082  22.295  0.00  0.00    +0.045 A 
ATOM     27  C   UNL     1     -15.239   5.905  21.390  0.00  0.00    +0.045 A 
ATOM     28  C   UNL     1     -12.461   6.060  21.584  0.00  0.00    +0.004 A 
ATOM     29  C   UNL     1     -14.544   6.882  20.678  0.00  0.00    +0.004 A 
ATOM     30  C   UNL     1     -13.154   6.961  20.775  0.00  0.00    +0.000 A 
ENDBRANCH   5  25
ENDBRANCH  24   5
ENDBRANCH  21  24
ENDBRANCH  14  15
ENDBRANCH  10  14
TORSDOF 11
ENDMDL
MODEL 3
REMARK VINA RESULT:      -6.3     26.744     28.800
REMARK  Name = 75366995
REMARK  13 active torsions:
REMARK  status: ('A' for Active; 'I' for Inactive)
REMARK    1  A    between atoms: O_2  and  C_9
REMARK    2  A    between atoms: O_5  and  C_24
REMARK    3  A    between atoms: O_5  and  C_25
REMARK    4  A    between atoms: N_6  and  C_13
REMARK    5  A    between atoms: C_8  and  C_13
REMARK    6  A    between atoms: C_10  and  C_14
REMARK    7  A    between atoms: C_14  and  C_15
REMARK    8  A    between atoms: C_16  and  C_17
REMARK    9  A    between atoms: C_16  and  C_18
REMARK   10  A    between atoms: C_16  and  C_19
REMARK   11  A    between atoms: C_18  and  C_22
REMARK   12  A    between atoms: C_19  and  C_23
REMARK   13  A    between atoms: C_21  and  C_24
REMARK                            x       y       z     vdW  Elec       q    Type
REMARK                         _______ _______ _______ _____ _____    ______ ____
ROOT
ATOM      1  O   UNL     1      12.867  11.764  23.688  0.00  0.00    -0.369 OA
ATOM      8  C   UNL     1      11.688  11.237  24.312  0.00  0.00    +0.164 C 
ATOM      9  C   UNL     1      10.880  12.343  25.003  0.00  0.00    +0.145 C 
ATOM     10  C   UNL     1      12.640  12.823  22.755  0.00  0.00    +0.125 C 
ATOM     11  C   UNL     1      10.639  13.543  24.092  0.00  0.00    +0.036 C 
ATOM     12  C   UNL     1      11.939  13.999  23.434  0.00  0.00    +0.034 C 
ENDROOT
BRANCH   9   2
ATOM      2  O   UNL     1      11.609  12.801  26.145  0.00  0.00    -0.389 OA
ATOM     32  H   UNL     1      11.233  13.658  26.410  0.00  0.00    +0.210 HD
ENDBRANCH   9   2
BRANCH   8  13
ATOM     13  C   UNL     1      10.858  10.424  23.321  0.00  0.00    +0.138 C 
BRANCH  13   6
ATOM      4  O   UNL     1      12.108   9.872  20.793  0.00  0.00    -0.276 OA
ATOM      6  N   UNL     1      11.535   9.207  22.938  0.00  0.00    -0.313 N 
ATOM     17  C   UNL     1      12.111   9.030  21.688  0.00  0.00    +0.216 C 
ATOM     31  H   UNL     1      11.562   8.448  23.614  0.00  0.00    +0.149 HD
BRANCH  17  16
ATOM     16  C   UNL     1      12.751   7.647  21.527  0.00  0.00    +0.074 C 
BRANCH  16  18
ATOM     18  C   UNL     1      11.770   6.689  20.820  0.00  0.00    +0.009 C 
ATOM     22  C   UNL     1      11.115   5.660  21.733  0.00  0.00    +0.004 C 
ENDBRANCH  16  18
BRANCH  16  19
ATOM     19  C   UNL     1      14.109   7.716  20.807  0.00  0.00    +0.009 C 
ATOM     23  C   UNL     1      15.236   7.106  21.633  0.00  0.00    +0.004 C 
ENDBRANCH  16  19
ENDBRANCH  17  16
ENDBRANCH  13   6
ENDBRANCH   8  13
BRANCH  10  14
ATOM     14  C   UNL     1      13.995  13.246  22.202  0.00  0.00    +0.090 C 
BRANCH  14  15
ATOM      3  O   UNL     1      15.449  10.706  20.099  0.00  0.00    -0.356 OA
ATOM      7  N   UNL     1      15.236  11.307  21.333  0.00  0.00    -0.083 NA
ATOM     15  C   UNL     1      14.442  12.350  21.078  0.00  0.00    +0.086 A 
ATOM     20  C   UNL     1      14.124  12.457  19.713  0.00  0.00    +0.074 A 
ATOM     21  C   UNL     1      14.782  11.400  19.141  0.00  0.00    +0.175 A 
BRANCH  21  24
ATOM     24  C   UNL     1      14.898  10.898  17.767  0.00  0.00    +0.306 C 
BRANCH  24   5
ATOM      5  O   UNL     1      14.454   9.541  17.696  0.00  0.00    -0.484 OA
BRANCH   5  25
ATOM     25  C   UNL     1      13.229   9.330  17.129  0.00  0.00    +0.121 A 
ATOM     26  C   UNL     1      12.961   9.807  15.847  0.00  0.00    +0.045 A 
ATOM     27  C   UNL     1      12.244   8.637  17.834  0.00  0.00    +0.045 A 
ATOM     28  C   UNL     1      11.710   9.592  15.268  0.00  0.00    +0.004 A 
ATOM     29  C   UNL     1      10.994   8.421  17.256  0.00  0.00    +0.004 A 
ATOM     30  C   UNL     1      10.726   8.899  15.972  0.00  0.00    +0.000 A 
ENDBRANCH   5  25
ENDBRANCH  24   5
ENDBRANCH  21  24
ENDBRANCH  14  15
ENDBRANCH  10  14
TORSDOF 11
ENDMDL
MODEL 4
REMARK VINA RESULT:      -6.3      2.733      3.768
REMARK  Name = 75366995
REMARK  13 active torsions:
REMARK  status: ('A' for Active; 'I' for Inactive)
REMARK    1  A    between atoms: O_2  and  C_9
REMARK    2  A    between atoms: O_5  and  C_24
REMARK    3  A    between atoms: O_5  and  C_25
REMARK    4  A    between atoms: N_6  and  C_13
REMARK    5  A    between atoms: C_8  and  C_13
REMARK    6  A    between atoms: C_10  and  C_14
REMARK    7  A    between atoms: C_14  and  C_15
REMARK    8  A    between atoms: C_16  and  C_17
REMARK    9  A    between atoms: C_16  and  C_18
REMARK   10  A    between atoms: C_16  and  C_19
REMARK   11  A    between atoms: C_18  and  C_22
REMARK   12  A    between atoms: C_19  and  C_23
REMARK   13  A    between atoms: C_21  and  C_24
REMARK                            x       y       z     vdW  Elec       q    Type
REMARK                         _______ _______ _______ _____ _____    ______ ____
ROOT
ATOM      1  O   UNL     1      -5.987 -12.265  17.264  0.00  0.00    -0.369 OA
ATOM      8  C   UNL     1      -7.419 -12.201  17.310  0.00  0.00    +0.164 C 
ATOM      9  C   UNL     1      -7.925 -12.060  18.752  0.00  0.00    +0.145 C 
ATOM     10  C   UNL     1      -5.309 -11.172  17.886  0.00  0.00    +0.125 C 
ATOM     11  C   UNL     1      -7.210 -10.946  19.512  0.00  0.00    +0.036 C 
ATOM     12  C   UNL     1      -5.696 -11.067  19.361  0.00  0.00    +0.034 C 
ENDROOT
BRANCH   9   2
ATOM      2  O   UNL     1      -7.685 -13.286  19.448  0.00  0.00    -0.389 OA
ATOM     32  H   UNL     1      -7.380 -13.061  20.343  0.00  0.00    +0.210 HD
ENDBRANCH   9   2
BRANCH   8  13
ATOM     13  C   UNL     1      -7.951 -11.112  16.382  0.00  0.00    +0.138 C 
BRANCH  13   6
ATOM      4  O   UNL     1      -5.976  -9.552  14.995  0.00  0.00    -0.276 OA
ATOM      6  N   UNL     1      -7.494 -11.304  15.026  0.00  0.00    -0.313 N 
ATOM     17  C   UNL     1      -6.531 -10.496  14.438  0.00  0.00    +0.216 C 
ATOM     31  H   UNL     1      -7.920 -12.050  14.484  0.00  0.00    +0.149 HD
BRANCH  17  16
ATOM     16  C   UNL     1      -6.235 -10.896  12.988  0.00  0.00    +0.074 C 
BRANCH  16  18
ATOM     18  C   UNL     1      -6.912 -12.243  12.661  0.00  0.00    +0.009 C 
ATOM     22  C   UNL     1      -5.968 -13.438  12.622  0.00  0.00    +0.004 C 
ENDBRANCH  16  18
BRANCH  16  19
ATOM     19  C   UNL     1      -6.630  -9.795  11.989  0.00  0.00    +0.009 C 
ATOM     23  C   UNL     1      -7.612 -10.293  10.934  0.00  0.00    +0.004 C 
ENDBRANCH  16  19
ENDBRANCH  17  16
ENDBRANCH  13   6
ENDBRANCH   8  13
BRANCH  10  14
ATOM     14  C   UNL     1      -3.812 -11.415  17.735  0.00  0.00    +0.090 C 
BRANCH  14  15
ATOM      3  O   UNL     1      -3.161 -12.116  14.260  0.00  0.00    -0.356 OA
ATOM      7  N   UNL     1      -3.683 -12.446  15.505  0.00  0.00    -0.083 NA
ATOM     15  C   UNL     1      -3.390 -11.406  16.290  0.00  0.00    +0.086 A 
ATOM     20  C   UNL     1      -2.690 -10.399  15.603  0.00  0.00    +0.074 A 
ATOM     21  C   UNL     1      -2.572 -10.895  14.331  0.00  0.00    +0.175 A 
BRANCH  21  24
ATOM     24  C   UNL     1      -1.964 -10.387  13.096  0.00  0.00    +0.306 C 
BRANCH  24   5
ATOM      5  O   UNL     1      -2.160 -11.318  12.028  0.00  0.00    -0.484 OA
BRANCH   5  25
ATOM     25  C   UNL     1      -2.937 -10.896  10.987  0.00  0.00    +0.121 A 
ATOM     26  C   UNL     1      -3.685 -11.817  10.255  0.00  0.00    +0.045 A 
ATOM     27  C   UNL     1      -2.982  -9.542  10.654  0.00  0.00    +0.045 A 
ATOM     28  C   UNL     1      -4.478 -11.386   9.192  0.00  0.00    +0.004 A 
ATOM     29  C   UNL     1      -3.775  -9.110   9.592  0.00  0.00    +0.004 A 
ATOM     30  C   UNL     1      -4.524 -10.033   8.859  0.00  0.00    +0.000 A 
ENDBRANCH   5  25
ENDBRANCH  24   5
ENDBRANCH  21  24
ENDBRANCH  14  15
ENDBRANCH  10  14
TORSDOF 11
ENDMDL
MODEL 5
REMARK VINA RESULT:      -6.3     24.814     28.962
REMARK  Name = 75366995
REMARK  13 active torsions:
REMARK  status: ('A' for Active; 'I' for Inactive)
REMARK    1  A    between atoms: O_2  and  C_9
REMARK    2  A    between atoms: O_5  and  C_24
REMARK    3  A    between atoms: O_5  and  C_25
REMARK    4  A    between atoms: N_6  and  C_13
REMARK    5  A    between atoms: C_8  and  C_13
REMARK    6  A    between atoms: C_10  and  C_14
REMARK    7  A    between atoms: C_14  and  C_15
REMARK    8  A    between atoms: C_16  and  C_17
REMARK    9  A    between atoms: C_16  and  C_18
REMARK   10  A    between atoms: C_16  and  C_19
REMARK   11  A    between atoms: C_18  and  C_22
REMARK   12  A    between atoms: C_19  and  C_23
REMARK   13  A    between atoms: C_21  and  C_24
REMARK                            x       y       z     vdW  Elec       q    Type
REMARK                         _______ _______ _______ _____ _____    ______ ____
ROOT
ATOM      1  O   UNL     1      11.586   6.245   5.382  0.00  0.00    -0.369 OA
ATOM      8  C   UNL     1      10.877   5.114   4.859  0.00  0.00    +0.164 C 
ATOM      9  C   UNL     1       9.572   4.870   5.628  0.00  0.00    +0.145 C 
ATOM     10  C   UNL     1      10.841   7.463   5.427  0.00  0.00    +0.125 C 
ATOM     11  C   UNL     1       8.736   6.138   5.772  0.00  0.00    +0.036 C 
ATOM     12  C   UNL     1       9.587   7.297   6.283  0.00  0.00    +0.034 C 
ENDROOT
BRANCH   9   2
ATOM      2  O   UNL     1       9.891   4.406   6.943  0.00  0.00    -0.389 OA
ATOM     32  H   UNL     1       9.829   5.166   7.546  0.00  0.00    +0.210 HD
ENDBRANCH   9   2
BRANCH   8  13
ATOM     13  C   UNL     1      10.666   5.246   3.353  0.00  0.00    +0.138 C 
BRANCH  13   6
ATOM      4  O   UNL     1      10.380   4.012   0.774  0.00  0.00    -0.276 OA
ATOM      6  N   UNL     1      11.688   4.543   2.613  0.00  0.00    -0.313 N 
ATOM     17  C   UNL     1      11.455   3.977   1.367  0.00  0.00    +0.216 C 
ATOM     31  H   UNL     1      12.603   4.447   3.044  0.00  0.00    +0.149 HD
BRANCH  17  16
ATOM     16  C   UNL     1      12.695   3.276   0.802  0.00  0.00    +0.074 C 
BRANCH  16  18
ATOM     18  C   UNL     1      12.953   3.741  -0.646  0.00  0.00    +0.009 C 
ATOM     22  C   UNL     1      12.499   2.762  -1.721  0.00  0.00    +0.004 C 
ENDBRANCH  16  18
BRANCH  16  19
ATOM     19  C   UNL     1      13.931   3.469   1.698  0.00  0.00    +0.009 C 
ATOM     23  C   UNL     1      15.183   3.805   0.896  0.00  0.00    +0.004 C 
ENDBRANCH  16  19
ENDBRANCH  17  16
ENDBRANCH  13   6
ENDBRANCH   8  13
BRANCH  10  14
ATOM     14  C   UNL     1      11.753   8.539   6.004  0.00  0.00    +0.090 C 
BRANCH  14  15
ATOM      3  O   UNL     1      15.198   7.514   6.265  0.00  0.00    -0.356 OA
ATOM      7  N   UNL     1      13.926   7.697   6.793  0.00  0.00    -0.083 NA
ATOM     15  C   UNL     1      13.207   8.210   5.791  0.00  0.00    +0.086 A 
ATOM     20  C   UNL     1      13.964   8.371   4.618  0.00  0.00    +0.074 A 
ATOM     21  C   UNL     1      15.209   7.919   4.970  0.00  0.00    +0.175 A 
BRANCH  21  24
ATOM     24  C   UNL     1      16.484   7.793   4.254  0.00  0.00    +0.306 C 
BRANCH  24   5
ATOM      5  O   UNL     1      17.379   8.836   4.648  0.00  0.00    -0.484 OA
BRANCH   5  25
ATOM     25  C   UNL     1      18.600   8.444   5.121  0.00  0.00    +0.121 A 
ATOM     26  C   UNL     1      18.974   8.753   6.427  0.00  0.00    +0.045 A 
ATOM     27  C   UNL     1      19.472   7.736   4.294  0.00  0.00    +0.045 A 
ATOM     28  C   UNL     1      20.221   8.354   6.909  0.00  0.00    +0.004 A 
ATOM     29  C   UNL     1      20.718   7.335   4.776  0.00  0.00    +0.004 A 
ATOM     30  C   UNL     1      21.093   7.645   6.084  0.00  0.00    +0.000 A 
ENDBRANCH   5  25
ENDBRANCH  24   5
ENDBRANCH  21  24
ENDBRANCH  14  15
ENDBRANCH  10  14
TORSDOF 11
ENDMDL
MODEL 6
REMARK VINA RESULT:      -6.2     18.421     20.412
REMARK  Name = 75366995
REMARK  13 active torsions:
REMARK  status: ('A' for Active; 'I' for Inactive)
REMARK    1  A    between atoms: O_2  and  C_9
REMARK    2  A    between atoms: O_5  and  C_24
REMARK    3  A    between atoms: O_5  and  C_25
REMARK    4  A    between atoms: N_6  and  C_13
REMARK    5  A    between atoms: C_8  and  C_13
REMARK    6  A    between atoms: C_10  and  C_14
REMARK    7  A    between atoms: C_14  and  C_15
REMARK    8  A    between atoms: C_16  and  C_17
REMARK    9  A    between atoms: C_16  and  C_18
REMARK   10  A    between atoms: C_16  and  C_19
REMARK   11  A    between atoms: C_18  and  C_22
REMARK   12  A    between atoms: C_19  and  C_23
REMARK   13  A    between atoms: C_21  and  C_24
REMARK                            x       y       z     vdW  Elec       q    Type
REMARK                         _______ _______ _______ _____ _____    ______ ____
ROOT
ATOM      1  O   UNL     1     -16.125   3.727  26.823  0.00  0.00    -0.369 OA
ATOM      8  C   UNL     1     -16.655   4.361  27.996  0.00  0.00    +0.164 C 
ATOM      9  C   UNL     1     -17.828   5.287  27.648  0.00  0.00    +0.145 C 
ATOM     10  C   UNL     1     -17.075   2.997  26.044  0.00  0.00    +0.125 C 
ATOM     11  C   UNL     1     -18.867   4.602  26.765  0.00  0.00    +0.036 C 
ATOM     12  C   UNL     1     -18.205   3.913  25.576  0.00  0.00    +0.034 C 
ENDROOT
BRANCH   9   2
ATOM      2  O   UNL     1     -17.325   6.418  26.931  0.00  0.00    -0.389 OA
ATOM     32  H   UNL     1     -16.423   6.203  26.638  0.00  0.00    +0.210 HD
ENDBRANCH   9   2
BRANCH   8  13
ATOM     13  C   UNL     1     -17.007   3.330  29.066  0.00  0.00    +0.138 C 
BRANCH  13   6
ATOM      4  O   UNL     1     -16.098   0.651  28.566  0.00  0.00    -0.276 OA
ATOM      6  N   UNL     1     -15.823   2.704  29.606  0.00  0.00    -0.313 N 
ATOM     17  C   UNL     1     -15.463   1.398  29.307  0.00  0.00    +0.216 C 
ATOM     31  H   UNL     1     -15.252   3.246  30.249  0.00  0.00    +0.149 HD
BRANCH  17  16
ATOM     16  C   UNL     1     -14.176   0.966  30.019  0.00  0.00    +0.074 C 
BRANCH  16  18
ATOM     18  C   UNL     1     -14.034   1.717  31.359  0.00  0.00    +0.009 C 
ATOM     22  C   UNL     1     -14.732   1.054  32.539  0.00  0.00    +0.004 C 
ENDBRANCH  16  18
BRANCH  16  19
ATOM     19  C   UNL     1     -14.099  -0.560  30.203  0.00  0.00    +0.009 C 
ATOM     23  C   UNL     1     -13.122  -1.214  29.233  0.00  0.00    +0.004 C 
ENDBRANCH  16  19
ENDBRANCH  17  16
ENDBRANCH  13   6
ENDBRANCH   8  13
BRANCH  10  14
ATOM     14  C   UNL     1     -16.332   2.401  24.855  0.00  0.00    +0.090 C 
BRANCH  14  15
ATOM      3  O   UNL     1     -15.985   4.506  21.950  0.00  0.00    -0.356 OA
ATOM      7  N   UNL     1     -16.519   3.412  22.619  0.00  0.00    -0.083 NA
ATOM     15  C   UNL     1     -15.973   3.452  23.838  0.00  0.00    +0.086 A 
ATOM     20  C   UNL     1     -15.095   4.539  23.995  0.00  0.00    +0.074 A 
ATOM     21  C   UNL     1     -15.139   5.169  22.779  0.00  0.00    +0.175 A 
BRANCH  21  24
ATOM     24  C   UNL     1     -14.482   6.361  22.229  0.00  0.00    +0.306 C 
BRANCH  24   5
ATOM      5  O   UNL     1     -13.409   5.980  21.364  0.00  0.00    -0.484 OA
BRANCH   5  25
ATOM     25  C   UNL     1     -12.912   6.956  20.545  0.00  0.00    +0.121 A 
ATOM     26  C   UNL     1     -11.572   7.326  20.635  0.00  0.00    +0.045 A 
ATOM     27  C   UNL     1     -13.748   7.581  19.619  0.00  0.00    +0.045 A 
ATOM     28  C   UNL     1     -11.065   8.322  19.799  0.00  0.00    +0.004 A 
ATOM     29  C   UNL     1     -13.242   8.575  18.783  0.00  0.00    +0.004 A 
ATOM     30  C   UNL     1     -11.899   8.947  18.873  0.00  0.00    +0.000 A 
ENDBRANCH   5  25
ENDBRANCH  24   5
ENDBRANCH  21  24
ENDBRANCH  14  15
ENDBRANCH  10  14
TORSDOF 11
ENDMDL
MODEL 7
REMARK VINA RESULT:      -6.2     17.122     20.724
REMARK  Name = 75366995
REMARK  13 active torsions:
REMARK  status: ('A' for Active; 'I' for Inactive)
REMARK    1  A    between atoms: O_2  and  C_9
REMARK    2  A    between atoms: O_5  and  C_24
REMARK    3  A    between atoms: O_5  and  C_25
REMARK    4  A    between atoms: N_6  and  C_13
REMARK    5  A    between atoms: C_8  and  C_13
REMARK    6  A    between atoms: C_10  and  C_14
REMARK    7  A    between atoms: C_14  and  C_15
REMARK    8  A    between atoms: C_16  and  C_17
REMARK    9  A    between atoms: C_16  and  C_18
REMARK   10  A    between atoms: C_16  and  C_19
REMARK   11  A    between atoms: C_18  and  C_22
REMARK   12  A    between atoms: C_19  and  C_23
REMARK   13  A    between atoms: C_21  and  C_24
REMARK                            x       y       z     vdW  Elec       q    Type
REMARK                         _______ _______ _______ _____ _____    ______ ____
ROOT
ATOM      1  O   UNL     1       3.446 -14.156  -0.362  0.00  0.00    -0.369 OA
ATOM      8  C   UNL     1       4.414 -14.847  -1.163  0.00  0.00    +0.164 C 
ATOM      9  C   UNL     1       5.146 -15.922  -0.348  0.00  0.00    +0.145 C 
ATOM     10  C   UNL     1       2.478 -14.989   0.278  0.00  0.00    +0.125 C 
ATOM     11  C   UNL     1       4.184 -16.827   0.417  0.00  0.00    +0.036 C 
ATOM     12  C   UNL     1       3.161 -16.003   1.194  0.00  0.00    +0.034 C 
ENDROOT
BRANCH   9   2
ATOM      2  O   UNL     1       5.994 -15.279   0.608  0.00  0.00    -0.389 OA
ATOM     32  H   UNL     1       6.867 -15.703   0.558  0.00  0.00    +0.210 HD
ENDBRANCH   9   2
BRANCH   8  13
ATOM     13  C   UNL     1       3.781 -15.395  -2.439  0.00  0.00    +0.138 C 
BRANCH  13   6
ATOM      4  O   UNL     1       2.402 -15.690  -4.943  0.00  0.00    -0.276 OA
ATOM      6  N   UNL     1       3.155 -14.346  -3.211  0.00  0.00    -0.313 N 
ATOM     17  C   UNL     1       2.509 -14.585  -4.415  0.00  0.00    +0.216 C 
ATOM     31  H   UNL     1       3.219 -13.396  -2.856  0.00  0.00    +0.149 HD
BRANCH  17  16
ATOM     16  C   UNL     1       1.945 -13.306  -5.042  0.00  0.00    +0.074 C 
BRANCH  16  18
ATOM     18  C   UNL     1       1.596 -12.284  -3.940  0.00  0.00    +0.009 C 
ATOM     22  C   UNL     1       1.601 -10.831  -4.394  0.00  0.00    +0.004 C 
ENDBRANCH  16  18
BRANCH  16  19
ATOM     19  C   UNL     1       2.891 -12.711  -6.100  0.00  0.00    +0.009 C 
ATOM     23  C   UNL     1       2.645 -13.288  -7.489  0.00  0.00    +0.004 C 
ENDBRANCH  16  19
ENDBRANCH  17  16
ENDBRANCH  13   6
ENDBRANCH   8  13
BRANCH  10  14
ATOM     14  C   UNL     1       1.545 -14.083   1.073  0.00  0.00    +0.090 C 
BRANCH  14  15
ATOM      3  O   UNL     1      -1.890 -13.490   0.157  0.00  0.00    -0.356 OA
ATOM      7  N   UNL     1      -0.864 -13.582   1.090  0.00  0.00    -0.083 NA
ATOM     15  C   UNL     1       0.222 -13.901   0.379  0.00  0.00    +0.086 A 
ATOM     20  C   UNL     1      -0.056 -14.023  -0.994  0.00  0.00    +0.074 A 
ATOM     21  C   UNL     1      -1.397 -13.755  -1.079  0.00  0.00    +0.175 A 
BRANCH  21  24
ATOM     24  C   UNL     1      -2.353 -13.700  -2.192  0.00  0.00    +0.306 C 
BRANCH  24   5
ATOM      5  O   UNL     1      -2.067 -14.730  -3.142  0.00  0.00    -0.484 OA
BRANCH   5  25
ATOM     25  C   UNL     1      -1.756 -14.320  -4.408  0.00  0.00    +0.121 A 
ATOM     26  C   UNL     1      -1.916 -12.983  -4.768  0.00  0.00    +0.045 A 
ATOM     27  C   UNL     1      -1.280 -15.241  -5.342  0.00  0.00    +0.045 A 
ATOM     28  C   UNL     1      -1.599 -12.565  -6.061  0.00  0.00    +0.004 A 
ATOM     29  C   UNL     1      -0.963 -14.824  -6.634  0.00  0.00    +0.004 A 
ATOM     30  C   UNL     1      -1.123 -13.485  -6.994  0.00  0.00    +0.000 A 
ENDBRANCH   5  25
ENDBRANCH  24   5
ENDBRANCH  21  24
ENDBRANCH  14  15
ENDBRANCH  10  14
TORSDOF 11
ENDMDL
MODEL 8
REMARK VINA RESULT:      -6.2     18.747     21.930
REMARK  Name = 75366995
REMARK  13 active torsions:
REMARK  status: ('A' for Active; 'I' for Inactive)
REMARK    1  A    between atoms: O_2  and  C_9
REMARK    2  A    between atoms: O_5  and  C_24
REMARK    3  A    between atoms: O_5  and  C_25
REMARK    4  A    between atoms: N_6  and  C_13
REMARK    5  A    between atoms: C_8  and  C_13
REMARK    6  A    between atoms: C_10  and  C_14
REMARK    7  A    between atoms: C_14  and  C_15
REMARK    8  A    between atoms: C_16  and  C_17
REMARK    9  A    between atoms: C_16  and  C_18
REMARK   10  A    between atoms: C_16  and  C_19
REMARK   11  A    between atoms: C_18  and  C_22
REMARK   12  A    between atoms: C_19  and  C_23
REMARK   13  A    between atoms: C_21  and  C_24
REMARK                            x       y       z     vdW  Elec       q    Type
REMARK                         _______ _______ _______ _____ _____    ______ ____
ROOT
ATOM      1  O   UNL     1     -16.068   2.186  25.043  0.00  0.00    -0.369 OA
ATOM      8  C   UNL     1     -16.123   3.089  23.931  0.00  0.00    +0.164 C 
ATOM      9  C   UNL     1     -17.389   2.867  23.093  0.00  0.00    +0.145 C 
ATOM     10  C   UNL     1     -17.205   2.216  25.908  0.00  0.00    +0.125 C 
ATOM     11  C   UNL     1     -18.652   2.829  23.949  0.00  0.00    +0.036 C 
ATOM     12  C   UNL     1     -18.480   1.883  25.134  0.00  0.00    +0.034 C 
ENDROOT
BRANCH   9   2
ATOM      2  O   UNL     1     -17.281   1.611  22.418  0.00  0.00    -0.389 OA
ATOM     32  H   UNL     1     -16.975   0.954  23.066  0.00  0.00    +0.210 HD
ENDBRANCH   9   2
BRANCH   8  13
ATOM     13  C   UNL     1     -15.957   4.536  24.389  0.00  0.00    +0.138 C 
BRANCH  13   6
ATOM      4  O   UNL     1     -13.284   4.883  23.394  0.00  0.00    -0.276 OA
ATOM      6  N   UNL     1     -15.544   5.391  23.301  0.00  0.00    -0.313 N 
ATOM     17  C   UNL     1     -14.223   5.495  22.889  0.00  0.00    +0.216 C 
ATOM     31  H   UNL     1     -16.257   5.952  22.844  0.00  0.00    +0.149 HD
BRANCH  17  16
ATOM     16  C   UNL     1     -14.046   6.480  21.729  0.00  0.00    +0.074 C 
BRANCH  16  18
ATOM     18  C   UNL     1     -12.722   6.196  20.990  0.00  0.00    +0.009 C 
ATOM     22  C   UNL     1     -11.756   7.373  20.939  0.00  0.00    +0.004 C 
ENDBRANCH  16  18
BRANCH  16  19
ATOM     19  C   UNL     1     -15.252   6.474  20.773  0.00  0.00    +0.009 C 
ATOM     23  C   UNL     1     -15.030   7.358  19.552  0.00  0.00    +0.004 C 
ENDBRANCH  16  19
ENDBRANCH  17  16
ENDBRANCH  13   6
ENDBRANCH   8  13
BRANCH  10  14
ATOM     14  C   UNL     1     -16.965   1.201  27.019  0.00  0.00    +0.090 C 
BRANCH  14  15
ATOM      3  O   UNL     1     -14.976   3.245  29.221  0.00  0.00    -0.356 OA
ATOM      7  N   UNL     1     -15.744   3.055  28.080  0.00  0.00    -0.083 NA
ATOM     15  C   UNL     1     -16.107   1.770  28.117  0.00  0.00    +0.086 A 
ATOM     20  C   UNL     1     -15.601   1.105  29.248  0.00  0.00    +0.074 A 
ATOM     21  C   UNL     1     -14.897   2.077  29.909  0.00  0.00    +0.175 A 
BRANCH  21  24
ATOM     24  C   UNL     1     -14.117   2.099  31.151  0.00  0.00    +0.306 C 
BRANCH  24   5
ATOM      5  O   UNL     1     -13.447   3.354  31.295  0.00  0.00    -0.484 OA
BRANCH   5  25
ATOM     25  C   UNL     1     -13.808   4.118  32.369  0.00  0.00    +0.121 A 
ATOM     26  C   UNL     1     -14.196   3.507  33.560  0.00  0.00    +0.045 A 
ATOM     27  C   UNL     1     -13.789   5.509  32.273  0.00  0.00    +0.045 A 
ATOM     28  C   UNL     1     -14.565   4.286  34.657  0.00  0.00    +0.004 A 
ATOM     29  C   UNL     1     -14.156   6.289  33.369  0.00  0.00    +0.004 A 
ATOM     30  C   UNL     1     -14.545   5.677  34.562  0.00  0.00    +0.000 A 
ENDBRANCH   5  25
ENDBRANCH  24   5
ENDBRANCH  21  24
ENDBRANCH  14  15
ENDBRANCH  10  14
TORSDOF 11
ENDMDL
MODEL 9
REMARK VINA RESULT:      -6.1     24.870     27.797
REMARK  Name = 75366995
REMARK  13 active torsions:
REMARK  status: ('A' for Active; 'I' for Inactive)
REMARK    1  A    between atoms: O_2  and  C_9
REMARK    2  A    between atoms: O_5  and  C_24
REMARK    3  A    between atoms: O_5  and  C_25
REMARK    4  A    between atoms: N_6  and  C_13
REMARK    5  A    between atoms: C_8  and  C_13
REMARK    6  A    between atoms: C_10  and  C_14
REMARK    7  A    between atoms: C_14  and  C_15
REMARK    8  A    between atoms: C_16  and  C_17
REMARK    9  A    between atoms: C_16  and  C_18
REMARK   10  A    between atoms: C_16  and  C_19
REMARK   11  A    between atoms: C_18  and  C_22
REMARK   12  A    between atoms: C_19  and  C_23
REMARK   13  A    between atoms: C_21  and  C_24
REMARK                            x       y       z     vdW  Elec       q    Type
REMARK                         _______ _______ _______ _____ _____    ______ ____
ROOT
ATOM      1  O   UNL     1      12.838   2.912   0.498  0.00  0.00    -0.369 OA
ATOM      8  C   UNL     1      13.163   3.730   1.630  0.00  0.00    +0.164 C 
ATOM      9  C   UNL     1      14.602   4.257   1.543  0.00  0.00    +0.145 C 
ATOM     10  C   UNL     1      13.026   3.533  -0.775  0.00  0.00    +0.125 C 
ATOM     11  C   UNL     1      14.907   4.889   0.188  0.00  0.00    +0.036 C 
ATOM     12  C   UNL     1      14.479   3.970  -0.953  0.00  0.00    +0.034 C 
ENDROOT
BRANCH   9   2
ATOM      2  O   UNL     1      15.505   3.164   1.728  0.00  0.00    -0.389 OA
ATOM     32  H   UNL     1      15.731   2.817   0.849  0.00  0.00    +0.210 HD
ENDBRANCH   9   2
BRANCH   8  13
ATOM     13  C   UNL     1      12.132   4.839   1.821  0.00  0.00    +0.138 C 
BRANCH  13   6
ATOM      4  O   UNL     1       9.838   6.230   2.851  0.00  0.00    -0.276 OA
ATOM      6  N   UNL     1      11.756   4.978   3.209  0.00  0.00    -0.313 N 
ATOM     17  C   UNL     1      10.624   5.672   3.613  0.00  0.00    +0.216 C 
ATOM     31  H   UNL     1      12.367   4.566   3.908  0.00  0.00    +0.149 HD
BRANCH  17  16
ATOM     16  C   UNL     1      10.458   5.687   5.136  0.00  0.00    +0.074 C 
BRANCH  16  18
ATOM     18  C   UNL     1      11.097   6.961   5.727  0.00  0.00    +0.009 C 
ATOM     22  C   UNL     1      12.068   6.713   6.873  0.00  0.00    +0.004 C 
ENDBRANCH  16  18
BRANCH  16  19
ATOM     19  C   UNL     1       8.987   5.529   5.561  0.00  0.00    +0.009 C 
ATOM     23  C   UNL     1       8.375   6.843   6.033  0.00  0.00    +0.004 C 
ENDBRANCH  16  19
ENDBRANCH  17  16
ENDBRANCH  13   6
ENDBRANCH   8  13
BRANCH  10  14
ATOM     14  C   UNL     1      12.630   2.520  -1.843  0.00  0.00    +0.090 C 
BRANCH  14  15
ATOM      3  O   UNL     1       9.384   2.936  -3.352  0.00  0.00    -0.356 OA
ATOM      7  N   UNL     1      10.286   2.257  -2.542  0.00  0.00    -0.083 NA
ATOM     15  C   UNL     1      11.415   2.967  -2.611  0.00  0.00    +0.086 A 
ATOM     20  C   UNL     1      11.287   4.094  -3.442  0.00  0.00    +0.074 A 
ATOM     21  C   UNL     1       9.991   4.028  -3.882  0.00  0.00    +0.175 A 
BRANCH  21  24
ATOM     24  C   UNL     1       9.176   4.866  -4.769  0.00  0.00    +0.306 C 
BRANCH  24   5
ATOM      5  O   UNL     1       8.698   6.015  -4.064  0.00  0.00    -0.484 OA
BRANCH   5  25
ATOM     25  C   UNL     1       7.342   6.142  -3.956  0.00  0.00    +0.121 A 
ATOM     26  C   UNL     1       6.787   6.790  -2.853  0.00  0.00    +0.045 A 
ATOM     27  C   UNL     1       6.511   5.624  -4.950  0.00  0.00    +0.045 A 
ATOM     28  C   UNL     1       5.403   6.919  -2.743  0.00  0.00    +0.004 A 
ATOM     29  C   UNL     1       5.127   5.754  -4.841  0.00  0.00    +0.004 A 
ATOM     30  C   UNL     1       4.572   6.402  -3.736  0.00  0.00    +0.000 A 
ENDBRANCH   5  25
ENDBRANCH  24   5
ENDBRANCH  21  24
ENDBRANCH  14  15
ENDBRANCH  10  14
TORSDOF 11
ENDMDL
MODEL 10
REMARK VINA RESULT:      -6.0      3.511      8.141
REMARK  Name = 75366995
REMARK  13 active torsions:
REMARK  status: ('A' for Active; 'I' for Inactive)
REMARK    1  A    between atoms: O_2  and  C_9
REMARK    2  A    between atoms: O_5  and  C_24
REMARK    3  A    between atoms: O_5  and  C_25
REMARK    4  A    between atoms: N_6  and  C_13
REMARK    5  A    between atoms: C_8  and  C_13
REMARK    6  A    between atoms: C_10  and  C_14
REMARK    7  A    between atoms: C_14  and  C_15
REMARK    8  A    between atoms: C_16  and  C_17
REMARK    9  A    between atoms: C_16  and  C_18
REMARK   10  A    between atoms: C_16  and  C_19
REMARK   11  A    between atoms: C_18  and  C_22
REMARK   12  A    between atoms: C_19  and  C_23
REMARK   13  A    between atoms: C_21  and  C_24
REMARK                            x       y       z     vdW  Elec       q    Type
REMARK                         _______ _______ _______ _____ _____    ______ ____
ROOT
ATOM      1  O   UNL     1      -3.355  -9.432   9.790  0.00  0.00    -0.369 OA
ATOM      8  C   UNL     1      -4.571  -9.219   9.061  0.00  0.00    +0.164 C 
ATOM      9  C   UNL     1      -5.228 -10.550   8.672  0.00  0.00    +0.145 C 
ATOM     10  C   UNL     1      -3.480 -10.245  10.959  0.00  0.00    +0.125 C 
ATOM     11  C   UNL     1      -5.351 -11.506   9.855  0.00  0.00    +0.036 C 
ATOM     12  C   UNL     1      -4.023 -11.627  10.598  0.00  0.00    +0.034 C 
ENDROOT
BRANCH   9   2
ATOM      2  O   UNL     1      -4.423 -11.188   7.676  0.00  0.00    -0.389 OA
ATOM     32  H   UNL     1      -4.311 -10.560   6.943  0.00  0.00    +0.210 HD
ENDBRANCH   9   2
BRANCH   8  13
ATOM     13  C   UNL     1      -5.513  -8.289   9.822  0.00  0.00    +0.138 C 
BRANCH  13   6
ATOM      4  O   UNL     1      -8.341  -8.448   9.335  0.00  0.00    -0.276 OA
ATOM      6  N   UNL     1      -6.283  -7.464   8.921  0.00  0.00    -0.313 N 
ATOM     17  C   UNL     1      -7.652  -7.615   8.751  0.00  0.00    +0.216 C 
ATOM     31  H   UNL     1      -5.785  -6.764   8.379  0.00  0.00    +0.149 HD
BRANCH  17  16
ATOM     16  C   UNL     1      -8.228  -6.629   7.729  0.00  0.00    +0.074 C 
BRANCH  16  18
ATOM     18  C   UNL     1      -8.246  -7.270   6.326  0.00  0.00    +0.009 C 
ATOM     22  C   UNL     1      -9.629  -7.399   5.702  0.00  0.00    +0.004 C 
ENDBRANCH  16  18
BRANCH  16  19
ATOM     19  C   UNL     1      -9.615  -6.108   8.142  0.00  0.00    +0.009 C 
ATOM     23  C   UNL     1      -9.564  -4.686   8.688  0.00  0.00    +0.004 C 
ENDBRANCH  16  19
ENDBRANCH  17  16
ENDBRANCH  13   6
ENDBRANCH   8  13
BRANCH  10  14
ATOM     14  C   UNL     1      -2.099 -10.353  11.592  0.00  0.00    +0.090 C 
BRANCH  14  15
ATOM      3  O   UNL     1      -1.607 -10.015  15.146  0.00  0.00    -0.356 OA
ATOM      7  N   UNL     1      -1.235  -9.791  13.827  0.00  0.00    -0.083 NA
ATOM     15  C   UNL     1      -2.177 -10.393  13.095  0.00  0.00    +0.086 A 
ATOM     20  C   UNL     1      -3.158 -11.009  13.891  0.00  0.00    +0.074 A 
ATOM     21  C   UNL     1      -2.753 -10.742  15.172  0.00  0.00    +0.175 A 
BRANCH  21  24
ATOM     24  C   UNL     1      -3.291 -11.071  16.497  0.00  0.00    +0.306 C 
BRANCH  24   5
ATOM      5  O   UNL     1      -4.436 -11.918  16.371  0.00  0.00    -0.484 OA
BRANCH   5  25
ATOM     25  C   UNL     1      -5.461 -11.690  17.245  0.00  0.00    +0.121 A 
ATOM     26  C   UNL     1      -6.014 -12.748  17.965  0.00  0.00    +0.045 A 
ATOM     27  C   UNL     1      -5.956 -10.397  17.417  0.00  0.00    +0.045 A 
ATOM     28  C   UNL     1      -7.061 -12.516  18.856  0.00  0.00    +0.004 A 
ATOM     29  C   UNL     1      -7.002 -10.163  18.309  0.00  0.00    +0.004 A 
ATOM     30  C   UNL     1      -7.556 -11.223  19.029  0.00  0.00    +0.000 A 
ENDBRANCH   5  25
ENDBRANCH  24   5
ENDBRANCH  21  24
ENDBRANCH  14  15
ENDBRANCH  10  14
TORSDOF 11
ENDMDL
