MODEL 1
REMARK VINA RESULT:      -6.2      0.000      0.000
REMARK  Name = 40777115
REMARK  6 active torsions:
REMARK  status: ('A' for Active; 'I' for Inactive)
REMARK    1  A    between atoms: N_4  and  C_14
REMARK    2  A    between atoms: C_8  and  C_14
REMARK    3  A    between atoms: C_9  and  C_15
REMARK    4  A    between atoms: C_16  and  C_19
REMARK    5  A    between atoms: C_21  and  C_23
REMARK    6  A    between atoms: C_22  and  C_24
REMARK                            x       y       z     vdW  Elec       q    Type
REMARK                         _______ _______ _______ _____ _____    ______ ____
ROOT
ATOM      3  N   UNL     1       9.939   6.940   7.541  0.00  0.00    -0.297 NA
ATOM      7  C   UNL     1       9.855   5.048   5.753  0.00  0.00    +0.002 C 
ATOM      8  C   UNL     1       8.652   6.999   6.799  0.00  0.00    +0.074 C 
ATOM      9  C   UNL     1      11.188   5.840   5.646  0.00  0.00    +0.055 C 
ATOM     10  C   UNL     1       8.669   6.023   5.603  0.00  0.00    +0.024 C 
ATOM     11  C   UNL     1       9.792   4.476   7.186  0.00  0.00    +0.019 C 
ATOM     12  C   UNL     1      11.077   7.065   6.597  0.00  0.00    +0.094 C 
ATOM     13  C   UNL     1      10.025   5.613   8.197  0.00  0.00    +0.085 C 
ENDROOT
BRANCH   9  15
ATOM      5  N   UNL     1      12.233   7.454   4.133  0.00  0.00    -0.237 NA
ATOM      6  N   UNL     1      12.581   6.983   1.795  0.00  0.00    -0.232 NA
ATOM     15  C   UNL     1      11.682   6.229   4.259  0.00  0.00    +0.050 A 
ATOM     20  C   UNL     1      11.546   5.338   3.214  0.00  0.00    +0.052 A 
ATOM     21  C   UNL     1      12.019   5.773   1.993  0.00  0.00    +0.076 A 
ATOM     22  C   UNL     1      12.656   7.762   2.892  0.00  0.00    +0.127 A 
ATOM     24  C   UNL     1      13.269   9.109   2.712  0.00  0.00    +0.088 C 
BRANCH  21  23
ATOM      1 BR   UNL     1      14.444   3.723   1.613  0.00  0.00    -0.050 Br
ATOM     23  C   UNL     1      11.936   4.936   0.820  0.00  0.00    +0.014 A 
ATOM     25  C   UNL     1      12.916   3.990   0.515  0.00  0.00    +0.027 A 
ATOM     26  C   UNL     1      10.833   5.093  -0.019  0.00  0.00    +0.011 A 
ATOM     27  C   UNL     1      12.792   3.203  -0.630  0.00  0.00    +0.016 A 
ATOM     28  C   UNL     1      10.711   4.306  -1.164  0.00  0.00    +0.001 A 
ATOM     29  C   UNL     1      11.690   3.361  -1.469  0.00  0.00    +0.001 A 
ENDBRANCH  21  23
ENDBRANCH   9  15
BRANCH   8  14
ATOM     14  C   UNL     1       8.293   8.423   6.369  0.00  0.00    +0.123 C 
BRANCH  14   4
ATOM      2  O   UNL     1      10.142  10.087   4.864  0.00  0.00    -0.276 OA
ATOM      4  N   UNL     1       8.380   8.563   4.948  0.00  0.00    -0.314 N 
ATOM     19  C   UNL     1       9.302   9.387   4.311  0.00  0.00    +0.216 C 
ATOM     30  H   UNL     1       7.734   8.024   4.379  0.00  0.00    +0.149 HD
BRANCH  19  16
ATOM     16  C   UNL     1       9.217   9.378   2.821  0.00  0.00    +0.075 C 
ATOM     17  C   UNL     1       9.043   8.069   2.109  0.00  0.00    +0.013 C 
ATOM     18  C   UNL     1       7.906   9.049   2.168  0.00  0.00    +0.013 C 
ENDBRANCH  19  16
ENDBRANCH  14   4
ENDBRANCH   8  14
TORSDOF 5
ENDMDL
MODEL 2
REMARK VINA RESULT:      -6.0     25.255     28.264
REMARK  Name = 40777115
REMARK  6 active torsions:
REMARK  status: ('A' for Active; 'I' for Inactive)
REMARK    1  A    between atoms: N_4  and  C_14
REMARK    2  A    between atoms: C_8  and  C_14
REMARK    3  A    between atoms: C_9  and  C_15
REMARK    4  A    between atoms: C_16  and  C_19
REMARK    5  A    between atoms: C_21  and  C_23
REMARK    6  A    between atoms: C_22  and  C_24
REMARK                            x       y       z     vdW  Elec       q    Type
REMARK                         _______ _______ _______ _____ _____    ______ ____
ROOT
ATOM      3  N   UNL     1     -10.570 -10.704  16.993  0.00  0.00    -0.297 NA
ATOM      7  C   UNL     1      -8.602  -9.473  15.812  0.00  0.00    +0.002 C 
ATOM      8  C   UNL     1      -9.826  -9.874  17.978  0.00  0.00    +0.074 C 
ATOM      9  C   UNL     1      -8.586 -10.987  15.462  0.00  0.00    +0.055 C 
ATOM     10  C   UNL     1      -8.539  -9.303  17.345  0.00  0.00    +0.024 C 
ATOM     11  C   UNL     1      -9.970  -8.925  15.352  0.00  0.00    +0.019 C 
ATOM     12  C   UNL     1      -9.654 -11.681  16.354  0.00  0.00    +0.094 C 
ATOM     13  C   UNL     1     -11.091  -9.800  15.940  0.00  0.00    +0.085 C 
ENDROOT
BRANCH   9  15
ATOM      5  N   UNL     1      -7.283 -13.033  15.775  0.00  0.00    -0.237 NA
ATOM      6  N   UNL     1      -4.883 -13.073  15.555  0.00  0.00    -0.232 NA
ATOM     15  C   UNL     1      -7.250 -11.715  15.488  0.00  0.00    +0.050 A 
ATOM     20  C   UNL     1      -6.089 -11.016  15.229  0.00  0.00    +0.052 A 
ATOM     21  C   UNL     1      -4.923 -11.754  15.276  0.00  0.00    +0.076 A 
ATOM     22  C   UNL     1      -6.081 -13.642  15.790  0.00  0.00    +0.127 A 
ATOM     24  C   UNL     1      -6.077 -15.099  16.105  0.00  0.00    +0.088 C 
BRANCH  21  23
ATOM      1 BR   UNL     1      -4.275 -11.177  12.197  0.00  0.00    -0.050 Br
ATOM     23  C   UNL     1      -3.641 -11.140  15.024  0.00  0.00    +0.014 A 
ATOM     25  C   UNL     1      -3.213 -10.826  13.734  0.00  0.00    +0.027 A 
ATOM     26  C   UNL     1      -2.824 -10.861  16.119  0.00  0.00    +0.011 A 
ATOM     27  C   UNL     1      -1.965 -10.232  13.540  0.00  0.00    +0.016 A 
ATOM     28  C   UNL     1      -1.576 -10.269  15.924  0.00  0.00    +0.001 A 
ATOM     29  C   UNL     1      -1.147  -9.954  14.635  0.00  0.00    +0.001 A 
ENDBRANCH  21  23
ENDBRANCH   9  15
BRANCH   8  14
ATOM     14  C   UNL     1      -9.537 -10.631  19.275  0.00  0.00    +0.123 C 
BRANCH  14   4
ATOM      2  O   UNL     1      -7.736 -12.910  19.137  0.00  0.00    -0.276 OA
ATOM      4  N   UNL     1      -8.133 -10.651  19.551  0.00  0.00    -0.314 N 
ATOM     19  C   UNL     1      -7.347 -11.794  19.459  0.00  0.00    +0.216 C 
ATOM     30  H   UNL     1      -7.693  -9.777  19.824  0.00  0.00    +0.149 HD
BRANCH  19  16
ATOM     16  C   UNL     1      -5.907 -11.584  19.789  0.00  0.00    +0.075 C 
ATOM     17  C   UNL     1      -4.861 -12.296  18.982  0.00  0.00    +0.013 C 
ATOM     18  C   UNL     1      -5.043 -10.813  18.834  0.00  0.00    +0.013 C 
ENDBRANCH  19  16
ENDBRANCH  14   4
ENDBRANCH   8  14
TORSDOF 5
ENDMDL
MODEL 3
REMARK VINA RESULT:      -6.0     22.682     26.721
REMARK  Name = 40777115
REMARK  6 active torsions:
REMARK  status: ('A' for Active; 'I' for Inactive)
REMARK    1  A    between atoms: N_4  and  C_14
REMARK    2  A    between atoms: C_8  and  C_14
REMARK    3  A    between atoms: C_9  and  C_15
REMARK    4  A    between atoms: C_16  and  C_19
REMARK    5  A    between atoms: C_21  and  C_23
REMARK    6  A    between atoms: C_22  and  C_24
REMARK                            x       y       z     vdW  Elec       q    Type
REMARK                         _______ _______ _______ _____ _____    ______ ____
ROOT
ATOM      3  N   UNL     1      18.151  -3.013  22.910  0.00  0.00    -0.297 NA
ATOM      7  C   UNL     1      16.813  -1.879  24.836  0.00  0.00    +0.002 C 
ATOM      8  C   UNL     1      16.957  -3.832  23.251  0.00  0.00    +0.074 C 
ATOM      9  C   UNL     1      18.319  -1.980  25.205  0.00  0.00    +0.055 C 
ATOM     10  C   UNL     1      16.270  -3.289  24.522  0.00  0.00    +0.024 C 
ATOM     11  C   UNL     1      16.729  -1.060  23.531  0.00  0.00    +0.019 C 
ATOM     12  C   UNL     1      19.009  -2.840  24.108  0.00  0.00    +0.094 C 
ATOM     13  C   UNL     1      17.675  -1.674  22.484  0.00  0.00    +0.085 C 
ENDROOT
BRANCH   9  15
ATOM      5  N   UNL     1      19.978  -2.751  26.830  0.00  0.00    -0.237 NA
ATOM      6  N   UNL     1      19.398  -3.265  29.112  0.00  0.00    -0.232 NA
ATOM     15  C   UNL     1      18.685  -2.436  26.611  0.00  0.00    +0.050 A 
ATOM     20  C   UNL     1      17.703  -2.510  27.579  0.00  0.00    +0.052 A 
ATOM     21  C   UNL     1      18.122  -2.934  28.823  0.00  0.00    +0.076 A 
ATOM     22  C   UNL     1      20.261  -3.151  28.084  0.00  0.00    +0.127 A 
ATOM     24  C   UNL     1      21.682  -3.510  28.364  0.00  0.00    +0.088 C 
BRANCH  21  23
ATOM      1 BR   UNL     1      16.684  -5.780  29.078  0.00  0.00    -0.050 Br
ATOM     23  C   UNL     1      17.193  -3.055  29.922  0.00  0.00    +0.014 A 
ATOM     25  C   UNL     1      16.488  -4.234  30.166  0.00  0.00    +0.027 A 
ATOM     26  C   UNL     1      17.013  -1.949  30.750  0.00  0.00    +0.011 A 
ATOM     27  C   UNL     1      15.601  -4.304  31.241  0.00  0.00    +0.016 A 
ATOM     28  C   UNL     1      16.125  -2.020  31.824  0.00  0.00    +0.001 A 
ATOM     29  C   UNL     1      15.420  -3.197  32.070  0.00  0.00    +0.001 A 
ENDBRANCH  21  23
ENDBRANCH   9  15
BRANCH   8  14
ATOM     14  C   UNL     1      17.289  -5.321  23.374  0.00  0.00    +0.123 C 
BRANCH  14   4
ATOM      2  O   UNL     1      19.807  -6.760  23.589  0.00  0.00    -0.276 OA
ATOM      4  N   UNL     1      18.147  -5.741  22.309  0.00  0.00    -0.314 N 
ATOM     19  C   UNL     1      19.340  -6.428  22.507  0.00  0.00    +0.216 C 
ATOM     30  H   UNL     1      17.860  -5.526  21.358  0.00  0.00    +0.149 HD
BRANCH  19  16
ATOM     16  C   UNL     1      20.074  -6.770  21.253  0.00  0.00    +0.075 C 
ATOM     17  C   UNL     1      19.309  -6.875  19.965  0.00  0.00    +0.013 C 
ATOM     18  C   UNL     1      20.239  -5.718  20.194  0.00  0.00    +0.013 C 
ENDBRANCH  19  16
ENDBRANCH  14   4
ENDBRANCH   8  14
TORSDOF 5
ENDMDL
MODEL 4
REMARK VINA RESULT:      -5.9     23.577     26.664
REMARK  Name = 40777115
REMARK  6 active torsions:
REMARK  status: ('A' for Active; 'I' for Inactive)
REMARK    1  A    between atoms: N_4  and  C_14
REMARK    2  A    between atoms: C_8  and  C_14
REMARK    3  A    between atoms: C_9  and  C_15
REMARK    4  A    between atoms: C_16  and  C_19
REMARK    5  A    between atoms: C_21  and  C_23
REMARK    6  A    between atoms: C_22  and  C_24
REMARK                            x       y       z     vdW  Elec       q    Type
REMARK                         _______ _______ _______ _____ _____    ______ ____
ROOT
ATOM      3  N   UNL     1      -4.688 -14.854  12.061  0.00  0.00    -0.297 NA
ATOM      7  C   UNL     1      -2.313 -13.925  12.592  0.00  0.00    +0.002 C 
ATOM      8  C   UNL     1      -4.326 -13.793  11.082  0.00  0.00    +0.074 C 
ATOM      9  C   UNL     1      -3.191 -13.942  13.874  0.00  0.00    +0.055 C 
ATOM     10  C   UNL     1      -3.018 -13.090  11.502  0.00  0.00    +0.024 C 
ATOM     11  C   UNL     1      -2.250 -15.379  12.078  0.00  0.00    +0.019 C 
ATOM     12  C   UNL     1      -4.638 -14.312  13.441  0.00  0.00    +0.094 C 
ATOM     13  C   UNL     1      -3.679 -15.935  11.951  0.00  0.00    +0.085 C 
ENDROOT
BRANCH   9  15
ATOM      5  N   UNL     1      -2.023 -11.988  14.771  0.00  0.00    -0.237 NA
ATOM      6  N   UNL     1      -3.031 -10.525  16.400  0.00  0.00    -0.232 NA
ATOM     15  C   UNL     1      -3.155 -12.722  14.784  0.00  0.00    +0.050 A 
ATOM     20  C   UNL     1      -4.251 -12.426  15.569  0.00  0.00    +0.052 A 
ATOM     21  C   UNL     1      -4.132 -11.305  16.364  0.00  0.00    +0.076 A 
ATOM     22  C   UNL     1      -2.029 -10.919  15.590  0.00  0.00    +0.127 A 
ATOM     24  C   UNL     1      -0.794 -10.083  15.603  0.00  0.00    +0.088 C 
BRANCH  21  23
ATOM      1 BR   UNL     1      -3.825 -12.182  19.424  0.00  0.00    -0.050 Br
ATOM     23  C   UNL     1      -5.207 -10.888  17.231  0.00  0.00    +0.014 A 
ATOM     25  C   UNL     1      -5.219 -11.193  18.593  0.00  0.00    +0.027 A 
ATOM     26  C   UNL     1      -6.255 -10.159  16.670  0.00  0.00    +0.011 A 
ATOM     27  C   UNL     1      -6.280 -10.768  19.393  0.00  0.00    +0.016 A 
ATOM     28  C   UNL     1      -7.316  -9.735  17.470  0.00  0.00    +0.001 A 
ATOM     29  C   UNL     1      -7.329 -10.038  18.832  0.00  0.00    +0.001 A 
ENDBRANCH  21  23
ENDBRANCH   9  15
BRANCH   8  14
ATOM     14  C   UNL     1      -5.464 -12.796  10.859  0.00  0.00    +0.123 C 
BRANCH  14   4
ATOM      2  O   UNL     1      -6.168 -10.208  11.983  0.00  0.00    -0.276 OA
ATOM      4  N   UNL     1      -4.951 -11.514  10.483  0.00  0.00    -0.314 N 
ATOM     19  C   UNL     1      -5.348 -10.322  11.080  0.00  0.00    +0.216 C 
ATOM     30  H   UNL     1      -4.256 -11.481   9.744  0.00  0.00    +0.149 HD
BRANCH  19  16
ATOM     16  C   UNL     1      -4.682  -9.103  10.533  0.00  0.00    +0.075 C 
ATOM     17  C   UNL     1      -3.232  -9.174  10.152  0.00  0.00    +0.013 C 
ATOM     18  C   UNL     1      -4.285  -9.076   9.086  0.00  0.00    +0.013 C 
ENDBRANCH  19  16
ENDBRANCH  14   4
ENDBRANCH   8  14
TORSDOF 5
ENDMDL
MODEL 5
REMARK VINA RESULT:      -5.9     24.640     27.503
REMARK  Name = 40777115
REMARK  6 active torsions:
REMARK  status: ('A' for Active; 'I' for Inactive)
REMARK    1  A    between atoms: N_4  and  C_14
REMARK    2  A    between atoms: C_8  and  C_14
REMARK    3  A    between atoms: C_9  and  C_15
REMARK    4  A    between atoms: C_16  and  C_19
REMARK    5  A    between atoms: C_21  and  C_23
REMARK    6  A    between atoms: C_22  and  C_24
REMARK                            x       y       z     vdW  Elec       q    Type
REMARK                         _______ _______ _______ _____ _____    ______ ____
ROOT
ATOM      3  N   UNL     1     -10.060 -10.611  17.082  0.00  0.00    -0.297 NA
ATOM      7  C   UNL     1      -8.206  -9.079  16.082  0.00  0.00    +0.002 C 
ATOM      8  C   UNL     1      -9.149 -10.146  18.161  0.00  0.00    +0.074 C 
ATOM      9  C   UNL     1      -8.316 -10.401  15.272  0.00  0.00    +0.055 C 
ATOM     10  C   UNL     1      -7.930  -9.411  17.564  0.00  0.00    +0.024 C 
ATOM     11  C   UNL     1      -9.592  -8.403  16.020  0.00  0.00    +0.019 C 
ATOM     12  C   UNL     1      -9.290 -11.338  16.042  0.00  0.00    +0.094 C 
ATOM     13  C   UNL     1     -10.669  -9.414  16.454  0.00  0.00    +0.085 C 
ENDROOT
BRANCH   9  15
ATOM      5  N   UNL     1      -6.796 -12.311  15.442  0.00  0.00    -0.237 NA
ATOM      6  N   UNL     1      -4.731 -12.422  14.204  0.00  0.00    -0.232 NA
ATOM     15  C   UNL     1      -7.028 -11.109  14.875  0.00  0.00    +0.050 A 
ATOM     20  C   UNL     1      -6.170 -10.506  13.978  0.00  0.00    +0.052 A 
ATOM     21  C   UNL     1      -5.026 -11.216  13.676  0.00  0.00    +0.076 A 
ATOM     22  C   UNL     1      -5.647 -12.904  15.067  0.00  0.00    +0.127 A 
ATOM     24  C   UNL     1      -5.355 -14.235  15.674  0.00  0.00    +0.088 C 
BRANCH  21  23
ATOM      1 BR   UNL     1      -2.099 -10.795  14.894  0.00  0.00    -0.050 Br
ATOM     23  C   UNL     1      -4.047 -10.695  12.752  0.00  0.00    +0.014 A 
ATOM     25  C   UNL     1      -2.725 -10.458  13.132  0.00  0.00    +0.027 A 
ATOM     26  C   UNL     1      -4.456 -10.431  11.446  0.00  0.00    +0.011 A 
ATOM     27  C   UNL     1      -1.814  -9.954  12.203  0.00  0.00    +0.016 A 
ATOM     28  C   UNL     1      -3.544  -9.926  10.518  0.00  0.00    +0.001 A 
ATOM     29  C   UNL     1      -2.223  -9.688  10.896  0.00  0.00    +0.001 A 
ENDBRANCH  21  23
ENDBRANCH   9  15
BRANCH   8  14
ATOM     14  C   UNL     1      -8.729 -11.281  19.097  0.00  0.00    +0.123 C 
BRANCH  14   4
ATOM      2  O   UNL     1      -6.222 -11.195  20.568  0.00  0.00    -0.276 OA
ATOM      4  N   UNL     1      -7.467 -11.827  18.701  0.00  0.00    -0.314 N 
ATOM     19  C   UNL     1      -6.314 -11.738  19.474  0.00  0.00    +0.216 C 
ATOM     30  H   UNL     1      -7.420 -12.309  17.809  0.00  0.00    +0.149 HD
BRANCH  19  16
ATOM     16  C   UNL     1      -5.111 -12.380  18.867  0.00  0.00    +0.075 C 
ATOM     17  C   UNL     1      -4.147 -11.535  18.087  0.00  0.00    +0.013 C 
ATOM     18  C   UNL     1      -3.755 -12.072  19.433  0.00  0.00    +0.013 C 
ENDBRANCH  19  16
ENDBRANCH  14   4
ENDBRANCH   8  14
TORSDOF 5
ENDMDL
MODEL 6
REMARK VINA RESULT:      -5.9     24.307     27.219
REMARK  Name = 40777115
REMARK  6 active torsions:
REMARK  status: ('A' for Active; 'I' for Inactive)
REMARK    1  A    between atoms: N_4  and  C_14
REMARK    2  A    between atoms: C_8  and  C_14
REMARK    3  A    between atoms: C_9  and  C_15
REMARK    4  A    between atoms: C_16  and  C_19
REMARK    5  A    between atoms: C_21  and  C_23
REMARK    6  A    between atoms: C_22  and  C_24
REMARK                            x       y       z     vdW  Elec       q    Type
REMARK                         _______ _______ _______ _____ _____    ______ ____
ROOT
ATOM      3  N   UNL     1      -6.787 -11.133  11.196  0.00  0.00    -0.297 NA
ATOM      7  C   UNL     1      -4.942  -9.401  11.813  0.00  0.00    +0.002 C 
ATOM      8  C   UNL     1      -7.412  -9.890  11.722  0.00  0.00    +0.074 C 
ATOM      9  C   UNL     1      -4.622 -10.785  12.443  0.00  0.00    +0.055 C 
ATOM     10  C   UNL     1      -6.336  -8.937  12.284  0.00  0.00    +0.024 C 
ATOM     11  C   UNL     1      -5.029  -9.616  10.287  0.00  0.00    +0.019 C 
ATOM     12  C   UNL     1      -5.856 -11.700  12.203  0.00  0.00    +0.094 C 
ATOM     13  C   UNL     1      -6.002 -10.771   9.992  0.00  0.00    +0.085 C 
ENDROOT
BRANCH   9  15
ATOM      5  N   UNL     1      -2.837 -10.579  14.104  0.00  0.00    -0.237 NA
ATOM      6  N   UNL     1      -3.237 -10.883  16.461  0.00  0.00    -0.232 NA
ATOM     15  C   UNL     1      -4.147 -10.823  13.889  0.00  0.00    +0.050 A 
ATOM     20  C   UNL     1      -5.050 -11.102  14.894  0.00  0.00    +0.052 A 
ATOM     21  C   UNL     1      -4.534 -11.118  16.174  0.00  0.00    +0.076 A 
ATOM     22  C   UNL     1      -2.456 -10.623  15.395  0.00  0.00    +0.127 A 
ATOM     24  C   UNL     1      -1.014 -10.360  15.672  0.00  0.00    +0.088 C 
BRANCH  21  23
ATOM      1 BR   UNL     1      -6.226 -13.825  15.981  0.00  0.00    -0.050 Br
ATOM     23  C   UNL     1      -5.374 -11.397  17.313  0.00  0.00    +0.014 A 
ATOM     25  C   UNL     1      -6.173 -12.540  17.381  0.00  0.00    +0.027 A 
ATOM     26  C   UNL     1      -5.371 -10.485  18.368  0.00  0.00    +0.011 A 
ATOM     27  C   UNL     1      -6.968 -12.768  18.503  0.00  0.00    +0.016 A 
ATOM     28  C   UNL     1      -6.167 -10.714  19.490  0.00  0.00    +0.001 A 
ATOM     29  C   UNL     1      -6.966 -11.855  19.558  0.00  0.00    +0.001 A 
ENDBRANCH  21  23
ENDBRANCH   9  15
BRANCH   8  14
ATOM     14  C   UNL     1      -8.510 -10.180  12.748  0.00  0.00    +0.123 C 
BRANCH  14   4
ATOM      2  O   UNL     1      -9.604 -10.837  15.361  0.00  0.00    -0.276 OA
ATOM      4  N   UNL     1      -8.218  -9.550  13.999  0.00  0.00    -0.314 N 
ATOM     19  C   UNL     1      -8.793  -9.933  15.206  0.00  0.00    +0.216 C 
ATOM     30  H   UNL     1      -7.550  -8.785  13.997  0.00  0.00    +0.149 HD
BRANCH  19  16
ATOM     16  C   UNL     1      -8.342  -9.138  16.386  0.00  0.00    +0.075 C 
ATOM     17  C   UNL     1      -9.300  -8.179  17.030  0.00  0.00    +0.013 C 
ATOM     18  C   UNL     1      -8.918  -9.447  17.737  0.00  0.00    +0.013 C 
ENDBRANCH  19  16
ENDBRANCH  14   4
ENDBRANCH   8  14
TORSDOF 5
ENDMDL
MODEL 7
REMARK VINA RESULT:      -5.9      2.717      6.142
REMARK  Name = 40777115
REMARK  6 active torsions:
REMARK  status: ('A' for Active; 'I' for Inactive)
REMARK    1  A    between atoms: N_4  and  C_14
REMARK    2  A    between atoms: C_8  and  C_14
REMARK    3  A    between atoms: C_9  and  C_15
REMARK    4  A    between atoms: C_16  and  C_19
REMARK    5  A    between atoms: C_21  and  C_23
REMARK    6  A    between atoms: C_22  and  C_24
REMARK                            x       y       z     vdW  Elec       q    Type
REMARK                         _______ _______ _______ _____ _____    ______ ____
ROOT
ATOM      3  N   UNL     1       9.442   5.137   6.078  0.00  0.00    -0.297 NA
ATOM      7  C   UNL     1      10.573   7.366   6.809  0.00  0.00    +0.002 C 
ATOM      8  C   UNL     1      10.655   5.385   5.254  0.00  0.00    +0.074 C 
ATOM      9  C   UNL     1       9.054   7.581   6.565  0.00  0.00    +0.055 C 
ATOM     10  C   UNL     1      11.219   6.795   5.529  0.00  0.00    +0.024 C 
ATOM     11  C   UNL     1      10.699   6.283   7.902  0.00  0.00    +0.019 C 
ATOM     12  C   UNL     1       8.493   6.270   5.943  0.00  0.00    +0.094 C 
ATOM     13  C   UNL     1       9.865   5.054   7.496  0.00  0.00    +0.085 C 
ENDROOT
BRANCH   9  15
ATOM      5  N   UNL     1       9.091  10.005   6.230  0.00  0.00    -0.237 NA
ATOM      6  N   UNL     1       7.869  11.073   4.449  0.00  0.00    -0.232 NA
ATOM     15  C   UNL     1       8.619   8.819   5.792  0.00  0.00    +0.050 A 
ATOM     20  C   UNL     1       7.778   8.682   4.706  0.00  0.00    +0.052 A 
ATOM     21  C   UNL     1       7.434   9.855   4.066  0.00  0.00    +0.076 A 
ATOM     22  C   UNL     1       8.683  11.075   5.522  0.00  0.00    +0.127 A 
ATOM     24  C   UNL     1       9.184  12.404   5.976  0.00  0.00    +0.088 C 
BRANCH  21  23
ATOM      1 BR   UNL     1       8.846   9.128   1.290  0.00  0.00    -0.050 Br
ATOM     23  C   UNL     1       6.560   9.848   2.917  0.00  0.00    +0.014 A 
ATOM     25  C   UNL     1       7.026   9.550   1.636  0.00  0.00    +0.027 A 
ATOM     26  C   UNL     1       5.214  10.151   3.118  0.00  0.00    +0.011 A 
ATOM     27  C   UNL     1       6.143   9.555   0.556  0.00  0.00    +0.016 A 
ATOM     28  C   UNL     1       4.332  10.157   2.037  0.00  0.00    +0.001 A 
ATOM     29  C   UNL     1       4.796   9.859   0.756  0.00  0.00    +0.001 A 
ENDBRANCH  21  23
ENDBRANCH   9  15
BRANCH   8  14
ATOM     14  C   UNL     1      10.403   5.151   3.763  0.00  0.00    +0.123 C 
BRANCH  14   4
ATOM      2  O   UNL     1      11.504   5.153   1.072  0.00  0.00    -0.276 OA
ATOM      4  N   UNL     1      11.373   4.252   3.218  0.00  0.00    -0.314 N 
ATOM     19  C   UNL     1      11.844   4.328   1.911  0.00  0.00    +0.216 C 
ATOM     30  H   UNL     1      11.736   3.524   3.825  0.00  0.00    +0.149 HD
BRANCH  19  16
ATOM     16  C   UNL     1      12.855   3.289   1.556  0.00  0.00    +0.075 C 
ATOM     17  C   UNL     1      13.587   3.400   0.251  0.00  0.00    +0.013 C 
ATOM     18  C   UNL     1      14.309   3.661   1.541  0.00  0.00    +0.013 C 
ENDBRANCH  19  16
ENDBRANCH  14   4
ENDBRANCH   8  14
TORSDOF 5
ENDMDL
MODEL 8
REMARK VINA RESULT:      -5.9     34.104     37.649
REMARK  Name = 40777115
REMARK  6 active torsions:
REMARK  status: ('A' for Active; 'I' for Inactive)
REMARK    1  A    between atoms: N_4  and  C_14
REMARK    2  A    between atoms: C_8  and  C_14
REMARK    3  A    between atoms: C_9  and  C_15
REMARK    4  A    between atoms: C_16  and  C_19
REMARK    5  A    between atoms: C_21  and  C_23
REMARK    6  A    between atoms: C_22  and  C_24
REMARK                            x       y       z     vdW  Elec       q    Type
REMARK                         _______ _______ _______ _____ _____    ______ ____
ROOT
ATOM      3  N   UNL     1     -12.035   9.143  32.390  0.00  0.00    -0.297 NA
ATOM      7  C   UNL     1     -13.850   8.832  34.232  0.00  0.00    +0.002 C 
ATOM      8  C   UNL     1     -13.164  10.081  32.153  0.00  0.00    +0.074 C 
ATOM      9  C   UNL     1     -13.455   7.460  33.619  0.00  0.00    +0.055 C 
ATOM     10  C   UNL     1     -14.337   9.770  33.107  0.00  0.00    +0.024 C 
ATOM     11  C   UNL     1     -12.559   9.450  34.809  0.00  0.00    +0.019 C 
ATOM     12  C   UNL     1     -12.528   7.744  32.403  0.00  0.00    +0.094 C 
ATOM     13  C   UNL     1     -11.466   9.446  33.725  0.00  0.00    +0.085 C 
ENDROOT
BRANCH   9  15
ATOM      5  N   UNL     1     -15.747   6.655  33.912  0.00  0.00    -0.237 NA
ATOM      6  N   UNL     1     -16.598   4.744  32.717  0.00  0.00    -0.232 NA
ATOM     15  C   UNL     1     -14.567   6.477  33.281  0.00  0.00    +0.050 A 
ATOM     20  C   UNL     1     -14.330   5.469  32.369  0.00  0.00    +0.052 A 
ATOM     21  C   UNL     1     -15.393   4.624  32.123  0.00  0.00    +0.076 A 
ATOM     22  C   UNL     1     -16.705   5.766  33.587  0.00  0.00    +0.127 A 
ATOM     24  C   UNL     1     -18.023   5.930  34.265  0.00  0.00    +0.088 C 
BRANCH  21  23
ATOM      1 BR   UNL     1     -14.700   1.792  33.438  0.00  0.00    -0.050 Br
ATOM     23  C   UNL     1     -15.274   3.528  31.191  0.00  0.00    +0.014 A 
ATOM     25  C   UNL     1     -14.976   2.230  31.609  0.00  0.00    +0.027 A 
ATOM     26  C   UNL     1     -15.467   3.798  29.837  0.00  0.00    +0.011 A 
ATOM     27  C   UNL     1     -14.872   1.203  30.671  0.00  0.00    +0.016 A 
ATOM     28  C   UNL     1     -15.362   2.770  28.899  0.00  0.00    +0.001 A 
ATOM     29  C   UNL     1     -15.065   1.472  29.316  0.00  0.00    +0.001 A 
ENDBRANCH  21  23
ENDBRANCH   9  15
BRANCH   8  14
ATOM     14  C   UNL     1     -13.609  10.099  30.689  0.00  0.00    +0.123 C 
BRANCH  14   4
ATOM      2  O   UNL     1     -13.654  10.386  27.796  0.00  0.00    -0.276 OA
ATOM      4  N   UNL     1     -12.514  10.428  29.829  0.00  0.00    -0.314 N 
ATOM     19  C   UNL     1     -12.629  10.544  28.447  0.00  0.00    +0.216 C 
ATOM     30  H   UNL     1     -11.608  10.590  30.258  0.00  0.00    +0.149 HD
BRANCH  19  16
ATOM     16  C   UNL     1     -11.359  10.899  27.748  0.00  0.00    +0.075 C 
ATOM     17  C   UNL     1     -10.517   9.802  27.164  0.00  0.00    +0.013 C 
ATOM     18  C   UNL     1     -11.275  10.731  26.259  0.00  0.00    +0.013 C 
ENDBRANCH  19  16
ENDBRANCH  14   4
ENDBRANCH   8  14
TORSDOF 5
ENDMDL
MODEL 9
REMARK VINA RESULT:      -5.8     23.764     26.336
REMARK  Name = 40777115
REMARK  6 active torsions:
REMARK  status: ('A' for Active; 'I' for Inactive)
REMARK    1  A    between atoms: N_4  and  C_14
REMARK    2  A    between atoms: C_8  and  C_14
REMARK    3  A    between atoms: C_9  and  C_15
REMARK    4  A    between atoms: C_16  and  C_19
REMARK    5  A    between atoms: C_21  and  C_23
REMARK    6  A    between atoms: C_22  and  C_24
REMARK                            x       y       z     vdW  Elec       q    Type
REMARK                         _______ _______ _______ _____ _____    ______ ____
ROOT
ATOM      3  N   UNL     1      -5.323 -10.267  17.424  0.00  0.00    -0.297 NA
ATOM      7  C   UNL     1      -5.056 -12.790  16.832  0.00  0.00    +0.002 C 
ATOM      8  C   UNL     1      -6.596 -10.796  16.865  0.00  0.00    +0.074 C 
ATOM      9  C   UNL     1      -3.886 -11.962  16.230  0.00  0.00    +0.055 C 
ATOM     10  C   UNL     1      -6.397 -12.225  16.317  0.00  0.00    +0.024 C 
ATOM     11  C   UNL     1      -5.024 -12.561  18.358  0.00  0.00    +0.019 C 
ATOM     12  C   UNL     1      -4.220 -10.459  16.450  0.00  0.00    +0.094 C 
ATOM     13  C   UNL     1      -5.005 -11.048  18.644  0.00  0.00    +0.085 C 
ENDROOT
BRANCH   9  15
ATOM      5  N   UNL     1      -2.730 -13.371  14.598  0.00  0.00    -0.237 NA
ATOM      6  N   UNL     1      -2.668 -12.829  12.251  0.00  0.00    -0.232 NA
ATOM     15  C   UNL     1      -3.462 -12.255  14.798  0.00  0.00    +0.050 A 
ATOM     20  C   UNL     1      -3.829 -11.388  13.789  0.00  0.00    +0.052 A 
ATOM     21  C   UNL     1      -3.401 -11.730  12.522  0.00  0.00    +0.076 A 
ATOM     22  C   UNL     1      -2.373 -13.595  13.319  0.00  0.00    +0.127 A 
ATOM     24  C   UNL     1      -1.562 -14.819  13.059  0.00  0.00    +0.088 C 
BRANCH  21  23
ATOM      1 BR   UNL     1      -6.142 -12.455  11.044  0.00  0.00    -0.050 Br
ATOM     23  C   UNL     1      -3.717 -10.906  11.380  0.00  0.00    +0.014 A 
ATOM     25  C   UNL     1      -4.879 -11.097  10.631  0.00  0.00    +0.027 A 
ATOM     26  C   UNL     1      -2.822  -9.894  11.035  0.00  0.00    +0.011 A 
ATOM     27  C   UNL     1      -5.143 -10.275   9.535  0.00  0.00    +0.016 A 
ATOM     28  C   UNL     1      -3.087  -9.073   9.939  0.00  0.00    +0.001 A 
ATOM     29  C   UNL     1      -4.248  -9.263   9.189  0.00  0.00    +0.001 A 
ENDBRANCH  21  23
ENDBRANCH   9  15
BRANCH   8  14
ATOM     14  C   UNL     1      -7.202  -9.862  15.815  0.00  0.00    +0.123 C 
BRANCH  14   4
ATOM      2  O   UNL     1     -10.006  -9.370  15.222  0.00  0.00    -0.276 OA
ATOM      4  N   UNL     1      -8.067  -8.900  16.427  0.00  0.00    -0.314 N 
ATOM     19  C   UNL     1      -9.403  -8.734  16.077  0.00  0.00    +0.216 C 
ATOM     30  H   UNL     1      -7.678  -8.314  17.159  0.00  0.00    +0.149 HD
BRANCH  19  16
ATOM     16  C   UNL     1     -10.117  -7.674  16.847  0.00  0.00    +0.075 C 
ATOM     17  C   UNL     1     -10.750  -6.534  16.105  0.00  0.00    +0.013 C 
ATOM     18  C   UNL     1     -11.612  -7.581  16.747  0.00  0.00    +0.013 C 
ENDBRANCH  19  16
ENDBRANCH  14   4
ENDBRANCH   8  14
TORSDOF 5
ENDMDL
MODEL 10
REMARK VINA RESULT:      -5.8     24.415     27.689
REMARK  Name = 40777115
REMARK  6 active torsions:
REMARK  status: ('A' for Active; 'I' for Inactive)
REMARK    1  A    between atoms: N_4  and  C_14
REMARK    2  A    between atoms: C_8  and  C_14
REMARK    3  A    between atoms: C_9  and  C_15
REMARK    4  A    between atoms: C_16  and  C_19
REMARK    5  A    between atoms: C_21  and  C_23
REMARK    6  A    between atoms: C_22  and  C_24
REMARK                            x       y       z     vdW  Elec       q    Type
REMARK                         _______ _______ _______ _____ _____    ______ ____
ROOT
ATOM      3  N   UNL     1      -2.521 -10.571  13.323  0.00  0.00    -0.297 NA
ATOM      7  C   UNL     1      -3.684 -12.900  13.258  0.00  0.00    +0.002 C 
ATOM      8  C   UNL     1      -2.041 -11.411  14.453  0.00  0.00    +0.074 C 
ATOM      9  C   UNL     1      -4.737 -11.763  13.145  0.00  0.00    +0.055 C 
ATOM     10  C   UNL     1      -2.866 -12.711  14.554  0.00  0.00    +0.024 C 
ATOM     11  C   UNL     1      -2.708 -12.723  12.076  0.00  0.00    +0.019 C 
ATOM     12  C   UNL     1      -3.995 -10.418  13.393  0.00  0.00    +0.094 C 
ATOM     13  C   UNL     1      -2.187 -11.274  12.062  0.00  0.00    +0.085 C 
ENDROOT
BRANCH   9  15
ATOM      5  N   UNL     1      -6.413 -13.126  14.291  0.00  0.00    -0.237 NA
ATOM      6  N   UNL     1      -8.294 -12.150  15.440  0.00  0.00    -0.232 NA
ATOM     15  C   UNL     1      -6.012 -11.879  13.968  0.00  0.00    +0.050 A 
ATOM     20  C   UNL     1      -6.689 -10.735  14.338  0.00  0.00    +0.052 A 
ATOM     21  C   UNL     1      -7.835 -10.933  15.081  0.00  0.00    +0.076 A 
ATOM     22  C   UNL     1      -7.545 -13.188  15.018  0.00  0.00    +0.127 A 
ATOM     24  C   UNL     1      -8.022 -14.550  15.393  0.00  0.00    +0.088 C 
BRANCH  21  23
ATOM      1 BR   UNL     1      -9.966  -9.850  12.957  0.00  0.00    -0.050 Br
ATOM     23  C   UNL     1      -8.635  -9.819  15.530  0.00  0.00    +0.014 A 
ATOM     25  C   UNL     1      -9.609  -9.234  14.719  0.00  0.00    +0.027 A 
ATOM     26  C   UNL     1      -8.411  -9.329  16.816  0.00  0.00    +0.011 A 
ATOM     27  C   UNL     1     -10.358  -8.159  15.197  0.00  0.00    +0.016 A 
ATOM     28  C   UNL     1      -9.160  -8.253  17.293  0.00  0.00    +0.001 A 
ATOM     29  C   UNL     1     -10.134  -7.668  16.483  0.00  0.00    +0.001 A 
ENDBRANCH  21  23
ENDBRANCH   9  15
BRANCH   8  14
ATOM     14  C   UNL     1      -2.018 -10.645  15.778  0.00  0.00    +0.123 C 
BRANCH  14   4
ATOM      2  O   UNL     1      -4.597  -9.870  16.875  0.00  0.00    -0.276 OA
ATOM      4  N   UNL     1      -2.782 -11.330  16.775  0.00  0.00    -0.314 N 
ATOM     19  C   UNL     1      -4.013 -10.883  17.242  0.00  0.00    +0.216 C 
ATOM     30  H   UNL     1      -2.400 -12.191  17.154  0.00  0.00    +0.149 HD
BRANCH  19  16
ATOM     16  C   UNL     1      -4.635 -11.755  18.282  0.00  0.00    +0.075 C 
ATOM     17  C   UNL     1      -6.126 -11.923  18.296  0.00  0.00    +0.013 C 
ATOM     18  C   UNL     1      -5.247 -13.061  17.868  0.00  0.00    +0.013 C 
ENDBRANCH  19  16
ENDBRANCH  14   4
ENDBRANCH   8  14
TORSDOF 5
ENDMDL
