MODEL 1
REMARK VINA RESULT:      -8.0      0.000      0.000
REMARK  Name = 51136947
REMARK  5 active torsions:
REMARK  status: ('A' for Active; 'I' for Inactive)
REMARK    1  A    between atoms: N_2  and  C_14
REMARK    2  A    between atoms: N_3  and  C_19
REMARK    3  A    between atoms: C_10  and  C_15
REMARK    4  A    between atoms: C_14  and  C_16
REMARK    5  A    between atoms: C_20  and  C_23
REMARK                            x       y       z     vdW  Elec       q    Type
REMARK                         _______ _______ _______ _____ _____    ______ ____
ROOT
ATOM      2  N   UNL     1      12.854   7.981  20.637  0.00  0.00    -0.284 NA
ATOM     10  C   UNL     1      11.566   8.698  20.543  0.00  0.00    +0.146 C 
ATOM     11  C   UNL     1      10.539   7.741  21.177  0.00  0.00    +0.030 C 
ATOM     12  C   UNL     1      12.534   6.554  20.623  0.00  0.00    +0.085 C 
ATOM     13  C   UNL     1      11.330   6.493  21.541  0.00  0.00    +0.017 C 
ENDROOT
BRANCH  10  15
ATOM      1  O   UNL     1      12.320  11.022  20.597  0.00  0.00    -0.336 OA
ATOM      4  N   UNL     1      11.037  10.435  22.337  0.00  0.00    -0.190 NA
ATOM      6  N   UNL     1      12.206  12.164  21.401  0.00  0.00    -0.056 NA
ATOM     15  C   UNL     1      11.602  10.051  21.221  0.00  0.00    +0.245 A 
ATOM     20  C   UNL     1      11.436  11.739  22.406  0.00  0.00    +0.207 A 
BRANCH  20  23
ATOM      7  N   UNL     1      10.772  13.029  25.844  0.00  0.00    -0.220 NA
ATOM      8  N   UNL     1      11.649  10.945  25.145  0.00  0.00    -0.342 N 
ATOM      9  N   UNL     1      10.155  14.703  24.224  0.00  0.00    -0.243 NA
ATOM     23  C   UNL     1      11.047  12.589  23.493  0.00  0.00    +0.080 A 
ATOM     26  C   UNL     1      11.140  12.228  24.822  0.00  0.00    +0.130 A 
ATOM     27  C   UNL     1      10.541  13.851  23.251  0.00  0.00    +0.127 A 
ATOM     28  C   UNL     1      10.296  14.235  25.478  0.00  0.00    +0.223 A 
ATOM     29  H   UNL     1      11.713  10.724  26.132  0.00  0.00    +0.144 HD
ATOM     30  H   UNL     1      11.478  10.177  24.509  0.00  0.00    +0.144 HD
ENDBRANCH  20  23
ENDBRANCH  10  15
BRANCH   2  14
ATOM     14  C   UNL     1      13.791   8.344  19.581  0.00  0.00    +0.159 C 
BRANCH  14  16
ATOM      3  N   UNL     1      15.988   8.503  20.796  0.00  0.00    -0.330 N 
ATOM      5  N   UNL     1      15.788   6.838  19.338  0.00  0.00    -0.231 NA
ATOM     16  C   UNL     1      15.188   7.871  19.885  0.00  0.00    +0.125 A 
ATOM     17  C   UNL     1      17.184   7.833  20.840  0.00  0.00    +0.069 A 
ATOM     18  C   UNL     1      17.034   6.798  19.921  0.00  0.00    +0.089 A 
ATOM     19  C   UNL     1      15.640   9.670  21.576  0.00  0.00    +0.150 C 
ATOM     21  C   UNL     1      18.348   8.037  21.580  0.00  0.00    +0.028 A 
ATOM     22  C   UNL     1      18.099   5.904  19.717  0.00  0.00    +0.030 A 
ATOM     24  C   UNL     1      19.397   7.138  21.364  0.00  0.00    +0.002 A 
ATOM     25  C   UNL     1      19.276   6.090  20.450  0.00  0.00    +0.002 A 
ENDBRANCH  14  16
ENDBRANCH   2  14
TORSDOF 4
ENDMDL
MODEL 2
REMARK VINA RESULT:      -7.2      2.028      2.659
REMARK  Name = 51136947
REMARK  5 active torsions:
REMARK  status: ('A' for Active; 'I' for Inactive)
REMARK    1  A    between atoms: N_2  and  C_14
REMARK    2  A    between atoms: N_3  and  C_19
REMARK    3  A    between atoms: C_10  and  C_15
REMARK    4  A    between atoms: C_14  and  C_16
REMARK    5  A    between atoms: C_20  and  C_23
REMARK                            x       y       z     vdW  Elec       q    Type
REMARK                         _______ _______ _______ _____ _____    ______ ____
ROOT
ATOM      2  N   UNL     1      12.683   9.065  21.378  0.00  0.00    -0.284 NA
ATOM     10  C   UNL     1      11.747  10.160  21.705  0.00  0.00    +0.146 C 
ATOM     11  C   UNL     1      10.541   9.462  22.359  0.00  0.00    +0.030 C 
ATOM     12  C   UNL     1      11.863   7.871  21.169  0.00  0.00    +0.085 C 
ATOM     13  C   UNL     1      10.862   7.976  22.301  0.00  0.00    +0.017 C 
ENDROOT
BRANCH  10  15
ATOM      1  O   UNL     1      12.990  12.248  21.974  0.00  0.00    -0.336 OA
ATOM      4  N   UNL     1      12.407  11.274  23.906  0.00  0.00    -0.190 NA
ATOM      6  N   UNL     1      13.481  13.076  22.992  0.00  0.00    -0.056 NA
ATOM     15  C   UNL     1      12.371  11.211  22.599  0.00  0.00    +0.245 A 
ATOM     20  C   UNL     1      13.098  12.435  24.100  0.00  0.00    +0.207 A 
BRANCH  20  23
ATOM      7  N   UNL     1      14.395  12.692  27.590  0.00  0.00    -0.220 NA
ATOM      8  N   UNL     1      14.626  10.949  26.006  0.00  0.00    -0.342 N 
ATOM      9  N   UNL     1      13.164  14.689  27.041  0.00  0.00    -0.243 NA
ATOM     23  C   UNL     1      13.389  12.927  25.416  0.00  0.00    +0.080 A 
ATOM     26  C   UNL     1      14.123  12.228  26.352  0.00  0.00    +0.130 A 
ATOM     27  C   UNL     1      12.929  14.165  25.820  0.00  0.00    +0.127 A 
ATOM     28  C   UNL     1      13.893  13.911  27.863  0.00  0.00    +0.223 A 
ATOM     29  H   UNL     1      15.170  10.474  26.717  0.00  0.00    +0.144 HD
ATOM     30  H   UNL     1      14.094  10.371  25.368  0.00  0.00    +0.144 HD
ENDBRANCH  20  23
ENDBRANCH  10  15
BRANCH   2  14
ATOM     14  C   UNL     1      13.530   9.358  20.228  0.00  0.00    +0.159 C 
BRANCH  14  16
ATOM      3  N   UNL     1      14.981   7.584  19.192  0.00  0.00    -0.330 N 
ATOM      5  N   UNL     1      15.715   8.469  21.094  0.00  0.00    -0.231 NA
ATOM     16  C   UNL     1      14.754   8.482  20.198  0.00  0.00    +0.125 A 
ATOM     17  C   UNL     1      16.168   6.950  19.456  0.00  0.00    +0.069 A 
ATOM     18  C   UNL     1      16.606   7.519  20.649  0.00  0.00    +0.089 A 
ATOM     19  C   UNL     1      14.125   7.342  18.052  0.00  0.00    +0.150 C 
ATOM     21  C   UNL     1      16.874   5.956  18.777  0.00  0.00    +0.028 A 
ATOM     22  C   UNL     1      17.819   7.085  21.209  0.00  0.00    +0.030 A 
ATOM     24  C   UNL     1      18.078   5.537  19.350  0.00  0.00    +0.002 A 
ATOM     25  C   UNL     1      18.544   6.090  20.545  0.00  0.00    +0.002 A 
ENDBRANCH  14  16
ENDBRANCH   2  14
TORSDOF 4
ENDMDL
MODEL 3
REMARK VINA RESULT:      -7.0     26.244     29.117
REMARK  Name = 51136947
REMARK  5 active torsions:
REMARK  status: ('A' for Active; 'I' for Inactive)
REMARK    1  A    between atoms: N_2  and  C_14
REMARK    2  A    between atoms: N_3  and  C_19
REMARK    3  A    between atoms: C_10  and  C_15
REMARK    4  A    between atoms: C_14  and  C_16
REMARK    5  A    between atoms: C_20  and  C_23
REMARK                            x       y       z     vdW  Elec       q    Type
REMARK                         _______ _______ _______ _____ _____    ______ ____
ROOT
ATOM      2  N   UNL     1      -3.027 -10.643  14.123  0.00  0.00    -0.284 NA
ATOM     10  C   UNL     1      -3.258 -11.251  15.450  0.00  0.00    +0.146 C 
ATOM     11  C   UNL     1      -2.116 -10.713  16.331  0.00  0.00    +0.030 C 
ATOM     12  C   UNL     1      -1.587 -10.406  14.024  0.00  0.00    +0.085 C 
ATOM     13  C   UNL     1      -1.262  -9.863  15.401  0.00  0.00    +0.017 C 
ENDROOT
BRANCH  10  15
ATOM      1  O   UNL     1      -5.193  -9.764  15.589  0.00  0.00    -0.336 OA
ATOM      4  N   UNL     1      -5.366 -11.610  16.845  0.00  0.00    -0.190 NA
ATOM      6  N   UNL     1      -6.437  -9.685  16.228  0.00  0.00    -0.056 NA
ATOM     15  C   UNL     1      -4.629 -10.927  16.007  0.00  0.00    +0.245 A 
ATOM     20  C   UNL     1      -6.466 -10.809  16.951  0.00  0.00    +0.207 A 
BRANCH  20  23
ATOM      7  N   UNL     1      -8.717 -11.150  19.907  0.00  0.00    -0.220 NA
ATOM      8  N   UNL     1      -6.618 -10.074  19.710  0.00  0.00    -0.342 N 
ATOM      9  N   UNL     1      -9.712 -12.250  18.008  0.00  0.00    -0.243 NA
ATOM     23  C   UNL     1      -7.576 -11.160  17.788  0.00  0.00    +0.080 A 
ATOM     26  C   UNL     1      -7.672 -10.817  19.121  0.00  0.00    +0.130 A 
ATOM     27  C   UNL     1      -8.636 -11.885  17.280  0.00  0.00    +0.127 A 
ATOM     28  C   UNL     1      -9.687 -11.855  19.295  0.00  0.00    +0.223 A 
ATOM     29  H   UNL     1      -6.733  -9.832  20.688  0.00  0.00    +0.144 HD
ATOM     30  H   UNL     1      -5.674 -10.216  19.377  0.00  0.00    +0.144 HD
ENDBRANCH  20  23
ENDBRANCH  10  15
BRANCH   2  14
ATOM     14  C   UNL     1      -3.527 -11.459  13.023  0.00  0.00    +0.159 C 
BRANCH  14  16
ATOM      3  N   UNL     1      -4.155  -9.944  11.117  0.00  0.00    -0.330 N 
ATOM      5  N   UNL     1      -5.831 -10.706  12.363  0.00  0.00    -0.231 NA
ATOM     16  C   UNL     1      -4.529 -10.713  12.184  0.00  0.00    +0.125 A 
ATOM     17  C   UNL     1      -5.292  -9.405  10.570  0.00  0.00    +0.069 A 
ATOM     18  C   UNL     1      -6.324  -9.895  11.366  0.00  0.00    +0.089 A 
ATOM     19  C   UNL     1      -2.805  -9.733  10.645  0.00  0.00    +0.150 C 
ATOM     21  C   UNL     1      -5.500  -8.556   9.483  0.00  0.00    +0.028 A 
ATOM     22  C   UNL     1      -7.648  -9.528  11.072  0.00  0.00    +0.030 A 
ATOM     24  C   UNL     1      -6.823  -8.201   9.206  0.00  0.00    +0.002 A 
ATOM     25  C   UNL     1      -7.880  -8.677   9.985  0.00  0.00    +0.002 A 
ENDBRANCH  14  16
ENDBRANCH   2  14
TORSDOF 4
ENDMDL
MODEL 4
REMARK VINA RESULT:      -6.9     26.978     29.322
REMARK  Name = 51136947
REMARK  5 active torsions:
REMARK  status: ('A' for Active; 'I' for Inactive)
REMARK    1  A    between atoms: N_2  and  C_14
REMARK    2  A    between atoms: N_3  and  C_19
REMARK    3  A    between atoms: C_10  and  C_15
REMARK    4  A    between atoms: C_14  and  C_16
REMARK    5  A    between atoms: C_20  and  C_23
REMARK                            x       y       z     vdW  Elec       q    Type
REMARK                         _______ _______ _______ _____ _____    ______ ____
ROOT
ATOM      2  N   UNL     1      -4.043  -9.839  11.330  0.00  0.00    -0.284 NA
ATOM     10  C   UNL     1      -3.177 -10.713  12.148  0.00  0.00    +0.146 C 
ATOM     11  C   UNL     1      -1.744 -10.242  11.841  0.00  0.00    +0.030 C 
ATOM     12  C   UNL     1      -3.247  -9.440  10.169  0.00  0.00    +0.085 C 
ATOM     13  C   UNL     1      -1.900  -9.145  10.798  0.00  0.00    +0.017 C 
ENDROOT
BRANCH  10  15
ATOM      1  O   UNL     1      -2.458 -10.612  14.482  0.00  0.00    -0.336 OA
ATOM      4  N   UNL     1      -4.681 -10.619  14.209  0.00  0.00    -0.190 NA
ATOM      6  N   UNL     1      -3.009 -10.554  15.769  0.00  0.00    -0.056 NA
ATOM     15  C   UNL     1      -3.511 -10.647  13.624  0.00  0.00    +0.245 A 
ATOM     20  C   UNL     1      -4.323 -10.562  15.525  0.00  0.00    +0.207 A 
BRANCH  20  23
ATOM      7  N   UNL     1      -6.190 -11.268  18.677  0.00  0.00    -0.220 NA
ATOM      8  N   UNL     1      -4.205 -12.242  17.835  0.00  0.00    -0.342 N 
ATOM      9  N   UNL     1      -7.321  -9.534  17.444  0.00  0.00    -0.243 NA
ATOM     23  C   UNL     1      -5.302 -10.513  16.571  0.00  0.00    +0.080 A 
ATOM     26  C   UNL     1      -5.267 -11.314  17.694  0.00  0.00    +0.130 A 
ATOM     27  C   UNL     1      -6.364  -9.634  16.499  0.00  0.00    +0.127 A 
ATOM     28  C   UNL     1      -7.174 -10.368  18.491  0.00  0.00    +0.223 A 
ATOM     29  H   UNL     1      -4.208 -12.803  18.680  0.00  0.00    +0.144 HD
ATOM     30  H   UNL     1      -3.809 -12.662  17.004  0.00  0.00    +0.144 HD
ENDBRANCH  20  23
ENDBRANCH  10  15
BRANCH   2  14
ATOM     14  C   UNL     1      -5.298 -10.472  10.945  0.00  0.00    +0.159 C 
BRANCH  14  16
ATOM      3  N   UNL     1      -6.085 -10.156   8.577  0.00  0.00    -0.330 N 
ATOM      5  N   UNL     1      -6.607  -8.541  10.012  0.00  0.00    -0.231 NA
ATOM     16  C   UNL     1      -6.005  -9.700   9.864  0.00  0.00    +0.125 A 
ATOM     17  C   UNL     1      -6.786  -9.230   7.847  0.00  0.00    +0.069 A 
ATOM     18  C   UNL     1      -7.100  -8.232   8.765  0.00  0.00    +0.089 A 
ATOM     19  C   UNL     1      -5.531 -11.392   8.072  0.00  0.00    +0.150 C 
ATOM     21  C   UNL     1      -7.160  -9.181   6.503  0.00  0.00    +0.028 A 
ATOM     22  C   UNL     1      -7.832  -7.112   8.334  0.00  0.00    +0.030 A 
ATOM     24  C   UNL     1      -7.886  -8.060   6.093  0.00  0.00    +0.002 A 
ATOM     25  C   UNL     1      -8.217  -7.042   6.991  0.00  0.00    +0.002 A 
ENDBRANCH  14  16
ENDBRANCH   2  14
TORSDOF 4
ENDMDL
MODEL 5
REMARK VINA RESULT:      -6.8     27.419     29.928
REMARK  Name = 51136947
REMARK  5 active torsions:
REMARK  status: ('A' for Active; 'I' for Inactive)
REMARK    1  A    between atoms: N_2  and  C_14
REMARK    2  A    between atoms: N_3  and  C_19
REMARK    3  A    between atoms: C_10  and  C_15
REMARK    4  A    between atoms: C_14  and  C_16
REMARK    5  A    between atoms: C_20  and  C_23
REMARK                            x       y       z     vdW  Elec       q    Type
REMARK                         _______ _______ _______ _____ _____    ______ ____
ROOT
ATOM      2  N   UNL     1      -7.078 -10.552  17.814  0.00  0.00    -0.284 NA
ATOM     10  C   UNL     1      -5.621 -10.662  18.027  0.00  0.00    +0.146 C 
ATOM     11  C   UNL     1      -5.462 -11.763  19.091  0.00  0.00    +0.030 C 
ATOM     12  C   UNL     1      -7.710 -10.960  19.070  0.00  0.00    +0.085 C 
ATOM     13  C   UNL     1      -6.882 -12.168  19.459  0.00  0.00    +0.017 C 
ENDROOT
BRANCH  10  15
ATOM      1  O   UNL     1      -4.215 -12.161  16.703  0.00  0.00    -0.336 OA
ATOM      4  N   UNL     1      -4.749 -10.251  15.662  0.00  0.00    -0.190 NA
ATOM      6  N   UNL     1      -3.604 -12.220  15.444  0.00  0.00    -0.056 NA
ATOM     15  C   UNL     1      -4.869 -10.970  16.749  0.00  0.00    +0.245 A 
ATOM     20  C   UNL     1      -3.965 -11.058  14.890  0.00  0.00    +0.207 A 
BRANCH  20  23
ATOM      7  N   UNL     1      -4.056  -9.925  11.336  0.00  0.00    -0.220 NA
ATOM      8  N   UNL     1      -5.825 -10.256  12.873  0.00  0.00    -0.342 N 
ATOM      9  N   UNL     1      -1.774 -10.333  11.991  0.00  0.00    -0.243 NA
ATOM     23  C   UNL     1      -3.560 -10.675  13.569  0.00  0.00    +0.080 A 
ATOM     26  C   UNL     1      -4.439 -10.285  12.579  0.00  0.00    +0.130 A 
ATOM     27  C   UNL     1      -2.226 -10.681  13.214  0.00  0.00    +0.127 A 
ATOM     28  C   UNL     1      -2.729  -9.971  11.114  0.00  0.00    +0.223 A 
ATOM     29  H   UNL     1      -6.436  -9.952  12.123  0.00  0.00    +0.144 HD
ATOM     30  H   UNL     1      -6.200 -10.927  13.530  0.00  0.00    +0.144 HD
ENDBRANCH  20  23
ENDBRANCH  10  15
BRANCH   2  14
ATOM     14  C   UNL     1      -7.499  -9.221  17.395  0.00  0.00    +0.159 C 
BRANCH  14  16
ATOM      3  N   UNL     1      -9.564  -8.586  16.107  0.00  0.00    -0.330 N 
ATOM      5  N   UNL     1      -8.142  -9.950  15.078  0.00  0.00    -0.231 NA
ATOM     16  C   UNL     1      -8.382  -9.271  16.177  0.00  0.00    +0.125 A 
ATOM     17  C   UNL     1     -10.122  -8.839  14.880  0.00  0.00    +0.069 A 
ATOM     18  C   UNL     1      -9.216  -9.693  14.257  0.00  0.00    +0.089 A 
ATOM     19  C   UNL     1     -10.128  -7.745  17.138  0.00  0.00    +0.150 C 
ATOM     21  C   UNL     1     -11.306  -8.409  14.280  0.00  0.00    +0.028 A 
ATOM     22  C   UNL     1      -9.491 -10.152  12.957  0.00  0.00    +0.030 A 
ATOM     24  C   UNL     1     -11.563  -8.877  12.988  0.00  0.00    +0.002 A 
ATOM     25  C   UNL     1     -10.673  -9.733  12.336  0.00  0.00    +0.002 A 
ENDBRANCH  14  16
ENDBRANCH   2  14
TORSDOF 4
ENDMDL
MODEL 6
REMARK VINA RESULT:      -6.7     15.537     18.209
REMARK  Name = 51136947
REMARK  5 active torsions:
REMARK  status: ('A' for Active; 'I' for Inactive)
REMARK    1  A    between atoms: N_2  and  C_14
REMARK    2  A    between atoms: N_3  and  C_19
REMARK    3  A    between atoms: C_10  and  C_15
REMARK    4  A    between atoms: C_14  and  C_16
REMARK    5  A    between atoms: C_20  and  C_23
REMARK                            x       y       z     vdW  Elec       q    Type
REMARK                         _______ _______ _______ _____ _____    ______ ____
ROOT
ATOM      2  N   UNL     1       9.666   7.146   5.702  0.00  0.00    -0.284 NA
ATOM     10  C   UNL     1      10.439   8.232   6.338  0.00  0.00    +0.146 C 
ATOM     11  C   UNL     1       9.878   8.327   7.768  0.00  0.00    +0.030 C 
ATOM     12  C   UNL     1       8.365   7.120   6.372  0.00  0.00    +0.085 C 
ATOM     13  C   UNL     1       8.756   7.301   7.825  0.00  0.00    +0.017 C 
ENDROOT
BRANCH  10  15
ATOM      1  O   UNL     1      12.372   6.888   6.993  0.00  0.00    -0.336 OA
ATOM      4  N   UNL     1      12.880   8.659   5.719  0.00  0.00    -0.190 NA
ATOM      6  N   UNL     1      13.763   6.861   6.823  0.00  0.00    -0.056 NA
ATOM     15  C   UNL     1      11.932   7.977   6.310  0.00  0.00    +0.245 A 
ATOM     20  C   UNL     1      13.985   7.936   6.062  0.00  0.00    +0.207 A 
BRANCH  20  23
ATOM      7  N   UNL     1      17.253   7.987   4.261  0.00  0.00    -0.220 NA
ATOM      8  N   UNL     1      15.436   6.483   4.072  0.00  0.00    -0.342 N 
ATOM      9  N   UNL     1      17.157   9.835   5.805  0.00  0.00    -0.243 NA
ATOM     23  C   UNL     1      15.298   8.315   5.627  0.00  0.00    +0.080 A 
ATOM     26  C   UNL     1      16.018   7.630   4.669  0.00  0.00    +0.130 A 
ATOM     27  C   UNL     1      15.925   9.421   6.166  0.00  0.00    +0.127 A 
ATOM     28  C   UNL     1      17.755   9.083   4.861  0.00  0.00    +0.223 A 
ATOM     29  H   UNL     1      15.992   6.016   3.365  0.00  0.00    +0.144 HD
ATOM     30  H   UNL     1      14.811   5.909   4.623  0.00  0.00    +0.144 HD
ENDBRANCH  20  23
ENDBRANCH  10  15
BRANCH   2  14
ATOM     14  C   UNL     1       9.538   7.301   4.259  0.00  0.00    +0.159 C 
BRANCH  14  16
ATOM      3  N   UNL     1      11.467   6.812   2.722  0.00  0.00    -0.330 N 
ATOM      5  N   UNL     1      10.377   5.050   3.524  0.00  0.00    -0.231 NA
ATOM     16  C   UNL     1      10.447   6.362   3.512  0.00  0.00    +0.125 A 
ATOM     17  C   UNL     1      12.099   5.718   2.188  0.00  0.00    +0.069 A 
ATOM     18  C   UNL     1      11.400   4.630   2.704  0.00  0.00    +0.089 A 
ATOM     19  C   UNL     1      11.822   8.194   2.486  0.00  0.00    +0.150 C 
ATOM     21  C   UNL     1      13.188   5.589   1.325  0.00  0.00    +0.028 A 
ATOM     22  C   UNL     1      11.798   3.330   2.348  0.00  0.00    +0.030 A 
ATOM     24  C   UNL     1      13.569   4.289   0.982  0.00  0.00    +0.002 A 
ATOM     25  C   UNL     1      12.887   3.177   1.484  0.00  0.00    +0.002 A 
ENDBRANCH  14  16
ENDBRANCH   2  14
TORSDOF 4
ENDMDL
MODEL 7
REMARK VINA RESULT:      -6.7      2.438      6.147
REMARK  Name = 51136947
REMARK  5 active torsions:
REMARK  status: ('A' for Active; 'I' for Inactive)
REMARK    1  A    between atoms: N_2  and  C_14
REMARK    2  A    between atoms: N_3  and  C_19
REMARK    3  A    between atoms: C_10  and  C_15
REMARK    4  A    between atoms: C_14  and  C_16
REMARK    5  A    between atoms: C_20  and  C_23
REMARK                            x       y       z     vdW  Elec       q    Type
REMARK                         _______ _______ _______ _____ _____    ______ ____
ROOT
ATOM      2  N   UNL     1      17.833   8.709  21.510  0.00  0.00    -0.284 NA
ATOM     10  C   UNL     1      17.356   7.835  20.418  0.00  0.00    +0.146 C 
ATOM     11  C   UNL     1      18.063   6.489  20.659  0.00  0.00    +0.030 C 
ATOM     12  C   UNL     1      19.162   8.221  21.878  0.00  0.00    +0.085 C 
ATOM     13  C   UNL     1      18.959   6.719  21.867  0.00  0.00    +0.017 C 
ENDROOT
BRANCH  10  15
ATOM      1  O   UNL     1      15.302   7.206  19.253  0.00  0.00    -0.336 OA
ATOM      4  N   UNL     1      14.972   8.014  21.315  0.00  0.00    -0.190 NA
ATOM      6  N   UNL     1      13.917   7.183  19.463  0.00  0.00    -0.056 NA
ATOM     15  C   UNL     1      15.847   7.708  20.392  0.00  0.00    +0.245 A 
ATOM     20  C   UNL     1      13.802   7.675  20.700  0.00  0.00    +0.207 A 
BRANCH  20  23
ATOM      7  N   UNL     1      10.321   7.069  21.899  0.00  0.00    -0.220 NA
ATOM      8  N   UNL     1      11.718   5.724  20.543  0.00  0.00    -0.342 N 
ATOM      9  N   UNL     1      11.098   9.194  22.728  0.00  0.00    -0.243 NA
ATOM     23  C   UNL     1      12.534   7.839  21.350  0.00  0.00    +0.080 A 
ATOM     26  C   UNL     1      11.513   6.912  21.288  0.00  0.00    +0.130 A 
ATOM     27  C   UNL     1      12.267   8.973  22.091  0.00  0.00    +0.127 A 
ATOM     28  C   UNL     1      10.183   8.216  22.592  0.00  0.00    +0.223 A 
ATOM     29  H   UNL     1      10.949   5.064  20.534  0.00  0.00    +0.144 HD
ATOM     30  H   UNL     1      12.310   5.756  19.724  0.00  0.00    +0.144 HD
ENDBRANCH  20  23
ENDBRANCH  10  15
BRANCH   2  14
ATOM     14  C   UNL     1      17.847  10.121  21.150  0.00  0.00    +0.159 C 
BRANCH  14  16
ATOM      3  N   UNL     1      15.692  11.307  20.625  0.00  0.00    -0.330 N 
ATOM      5  N   UNL     1      16.159  11.022  22.779  0.00  0.00    -0.231 NA
ATOM     16  C   UNL     1      16.571  10.813  21.549  0.00  0.00    +0.125 A 
ATOM     17  C   UNL     1      14.643  11.872  21.305  0.00  0.00    +0.069 A 
ATOM     18  C   UNL     1      14.958  11.681  22.648  0.00  0.00    +0.089 A 
ATOM     19  C   UNL     1      15.838  11.248  19.188  0.00  0.00    +0.150 C 
ATOM     21  C   UNL     1      13.481  12.514  20.875  0.00  0.00    +0.028 A 
ATOM     22  C   UNL     1      14.073  12.151  23.632  0.00  0.00    +0.030 A 
ATOM     24  C   UNL     1      12.613  12.976  21.868  0.00  0.00    +0.002 A 
ATOM     25  C   UNL     1      12.901  12.799  23.223  0.00  0.00    +0.002 A 
ENDBRANCH  14  16
ENDBRANCH   2  14
TORSDOF 4
ENDMDL
MODEL 8
REMARK VINA RESULT:      -6.7     27.961     29.567
REMARK  Name = 51136947
REMARK  5 active torsions:
REMARK  status: ('A' for Active; 'I' for Inactive)
REMARK    1  A    between atoms: N_2  and  C_14
REMARK    2  A    between atoms: N_3  and  C_19
REMARK    3  A    between atoms: C_10  and  C_15
REMARK    4  A    between atoms: C_14  and  C_16
REMARK    5  A    between atoms: C_20  and  C_23
REMARK                            x       y       z     vdW  Elec       q    Type
REMARK                         _______ _______ _______ _____ _____    ______ ____
ROOT
ATOM      2  N   UNL     1      -5.231 -11.279  16.196  0.00  0.00    -0.284 NA
ATOM     10  C   UNL     1      -6.078 -11.632  17.353  0.00  0.00    +0.146 C 
ATOM     11  C   UNL     1      -5.161 -11.459  18.577  0.00  0.00    +0.030 C 
ATOM     12  C   UNL     1      -3.855 -11.586  16.583  0.00  0.00    +0.085 C 
ATOM     13  C   UNL     1      -3.806 -11.067  18.006  0.00  0.00    +0.017 C 
ENDROOT
BRANCH  10  15
ATOM      1  O   UNL     1      -7.224  -9.501  17.006  0.00  0.00    -0.336 OA
ATOM      4  N   UNL     1      -8.524 -11.108  17.869  0.00  0.00    -0.190 NA
ATOM      6  N   UNL     1      -8.491  -8.927  17.178  0.00  0.00    -0.056 NA
ATOM     15  C   UNL     1      -7.331 -10.785  17.437  0.00  0.00    +0.245 A 
ATOM     20  C   UNL     1      -9.201  -9.936  17.691  0.00  0.00    +0.207 A 
BRANCH  20  23
ATOM      7  N   UNL     1     -12.381  -9.834  19.640  0.00  0.00    -0.220 NA
ATOM      8  N   UNL     1     -10.166 -10.249  20.364  0.00  0.00    -0.342 N 
ATOM      9  N   UNL     1     -12.847  -9.388  17.319  0.00  0.00    -0.243 NA
ATOM     23  C   UNL     1     -10.587  -9.807  18.036  0.00  0.00    +0.080 A 
ATOM     26  C   UNL     1     -11.076  -9.955  19.318  0.00  0.00    +0.130 A 
ATOM     27  C   UNL     1     -11.528  -9.523  17.067  0.00  0.00    +0.127 A 
ATOM     28  C   UNL     1     -13.199  -9.554  18.608  0.00  0.00    +0.223 A 
ATOM     29  H   UNL     1     -10.565 -10.337  21.292  0.00  0.00    +0.144 HD
ATOM     30  H   UNL     1      -9.348 -10.806  20.158  0.00  0.00    +0.144 HD
ENDBRANCH  20  23
ENDBRANCH  10  15
BRANCH   2  14
ATOM     14  C   UNL     1      -5.622 -11.962  14.969  0.00  0.00    +0.159 C 
BRANCH  14  16
ATOM      3  N   UNL     1      -4.183 -11.446  12.971  0.00  0.00    -0.330 N 
ATOM      5  N   UNL     1      -5.939 -10.122  13.287  0.00  0.00    -0.231 NA
ATOM     16  C   UNL     1      -5.272 -11.158  13.745  0.00  0.00    +0.125 A 
ATOM     17  C   UNL     1      -4.144 -10.537  11.945  0.00  0.00    +0.069 A 
ATOM     18  C   UNL     1      -5.251  -9.722  12.164  0.00  0.00    +0.089 A 
ATOM     19  C   UNL     1      -3.236 -12.518  13.192  0.00  0.00    +0.150 C 
ATOM     21  C   UNL     1      -3.263 -10.363  10.877  0.00  0.00    +0.028 A 
ATOM     22  C   UNL     1      -5.509  -8.665  11.274  0.00  0.00    +0.030 A 
ATOM     24  C   UNL     1      -3.536  -9.307  10.003  0.00  0.00    +0.002 A 
ATOM     25  C   UNL     1      -4.639  -8.472  10.196  0.00  0.00    +0.002 A 
ENDBRANCH  14  16
ENDBRANCH   2  14
TORSDOF 4
ENDMDL
MODEL 9
REMARK VINA RESULT:      -6.7     27.477     29.194
REMARK  Name = 51136947
REMARK  5 active torsions:
REMARK  status: ('A' for Active; 'I' for Inactive)
REMARK    1  A    between atoms: N_2  and  C_14
REMARK    2  A    between atoms: N_3  and  C_19
REMARK    3  A    between atoms: C_10  and  C_15
REMARK    4  A    between atoms: C_14  and  C_16
REMARK    5  A    between atoms: C_20  and  C_23
REMARK                            x       y       z     vdW  Elec       q    Type
REMARK                         _______ _______ _______ _____ _____    ______ ____
ROOT
ATOM      2  N   UNL     1      -3.194 -11.954  14.066  0.00  0.00    -0.284 NA
ATOM     10  C   UNL     1      -2.359 -11.901  12.849  0.00  0.00    +0.146 C 
ATOM     11  C   UNL     1      -2.242 -13.366  12.391  0.00  0.00    +0.030 C 
ATOM     12  C   UNL     1      -2.973 -13.273  14.661  0.00  0.00    +0.085 C 
ATOM     13  C   UNL     1      -2.989 -14.173  13.442  0.00  0.00    +0.017 C 
ENDROOT
BRANCH  10  15
ATOM      1  O   UNL     1      -2.098 -10.092  11.226  0.00  0.00    -0.336 OA
ATOM      4  N   UNL     1      -4.162 -10.958  11.305  0.00  0.00    -0.190 NA
ATOM      6  N   UNL     1      -2.854  -9.385  10.282  0.00  0.00    -0.056 NA
ATOM     15  C   UNL     1      -2.944 -10.999  11.782  0.00  0.00    +0.245 A 
ATOM     20  C   UNL     1      -4.059  -9.953  10.388  0.00  0.00    +0.207 A 
BRANCH  20  23
ATOM      7  N   UNL     1      -7.372  -8.576   9.364  0.00  0.00    -0.220 NA
ATOM      8  N   UNL     1      -6.398  -8.756  11.513  0.00  0.00    -0.342 N 
ATOM      9  N   UNL     1      -6.186  -9.350   7.414  0.00  0.00    -0.243 NA
ATOM     23  C   UNL     1      -5.179  -9.541   9.593  0.00  0.00    +0.080 A 
ATOM     26  C   UNL     1      -6.319  -8.962  10.113  0.00  0.00    +0.130 A 
ATOM     27  C   UNL     1      -5.169  -9.713   8.223  0.00  0.00    +0.127 A 
ATOM     28  C   UNL     1      -7.241  -8.796   8.041  0.00  0.00    +0.223 A 
ATOM     29  H   UNL     1      -7.246  -8.316  11.853  0.00  0.00    +0.144 HD
ATOM     30  H   UNL     1      -5.937  -9.410  12.131  0.00  0.00    +0.144 HD
ENDBRANCH  20  23
ENDBRANCH  10  15
BRANCH   2  14
ATOM     14  C   UNL     1      -2.913 -10.875  15.004  0.00  0.00    +0.159 C 
BRANCH  14  16
ATOM      3  N   UNL     1      -5.110 -10.458  16.155  0.00  0.00    -0.330 N 
ATOM      5  N   UNL     1      -3.513 -11.390  17.389  0.00  0.00    -0.231 NA
ATOM     16  C   UNL     1      -3.824 -10.921  16.201  0.00  0.00    +0.125 A 
ATOM     17  C   UNL     1      -5.665 -10.641  17.396  0.00  0.00    +0.069 A 
ATOM     18  C   UNL     1      -4.649 -11.224  18.147  0.00  0.00    +0.089 A 
ATOM     19  C   UNL     1      -5.770  -9.878  15.007  0.00  0.00    +0.150 C 
ATOM     21  C   UNL     1      -6.931 -10.354  17.909  0.00  0.00    +0.028 A 
ATOM     22  C   UNL     1      -4.893 -11.548  19.493  0.00  0.00    +0.030 A 
ATOM     24  C   UNL     1      -7.155 -10.683  19.249  0.00  0.00    +0.002 A 
ATOM     25  C   UNL     1      -6.155 -11.269  20.029  0.00  0.00    +0.002 A 
ENDBRANCH  14  16
ENDBRANCH   2  14
TORSDOF 4
ENDMDL
MODEL 10
REMARK VINA RESULT:      -6.6     26.625     29.208
REMARK  Name = 51136947
REMARK  5 active torsions:
REMARK  status: ('A' for Active; 'I' for Inactive)
REMARK    1  A    between atoms: N_2  and  C_14
REMARK    2  A    between atoms: N_3  and  C_19
REMARK    3  A    between atoms: C_10  and  C_15
REMARK    4  A    between atoms: C_14  and  C_16
REMARK    5  A    between atoms: C_20  and  C_23
REMARK                            x       y       z     vdW  Elec       q    Type
REMARK                         _______ _______ _______ _____ _____    ______ ____
ROOT
ATOM      2  N   UNL     1      -3.705  -9.841  11.648  0.00  0.00    -0.284 NA
ATOM     10  C   UNL     1      -2.769 -10.711  12.388  0.00  0.00    +0.146 C 
ATOM     11  C   UNL     1      -1.369 -10.215  11.981  0.00  0.00    +0.030 C 
ATOM     12  C   UNL     1      -3.004  -9.418  10.436  0.00  0.00    +0.085 C 
ATOM     13  C   UNL     1      -1.619  -9.108  10.967  0.00  0.00    +0.017 C 
ENDROOT
BRANCH  10  15
ATOM      1  O   UNL     1      -1.912 -10.361  14.651  0.00  0.00    -0.336 OA
ATOM      4  N   UNL     1      -4.090 -10.880  14.567  0.00  0.00    -0.190 NA
ATOM      6  N   UNL     1      -2.360 -10.380  15.978  0.00  0.00    -0.056 NA
ATOM     15  C   UNL     1      -2.993 -10.666  13.886  0.00  0.00    +0.245 A 
ATOM     20  C   UNL     1      -3.652 -10.693  15.847  0.00  0.00    +0.207 A 
BRANCH  20  23
ATOM      7  N   UNL     1      -6.579 -10.314  18.130  0.00  0.00    -0.220 NA
ATOM      8  N   UNL     1      -6.171  -9.349  16.008  0.00  0.00    -0.342 N 
ATOM      9  N   UNL     1      -4.966 -11.798  19.131  0.00  0.00    -0.243 NA
ATOM     23  C   UNL     1      -4.533 -10.827  16.970  0.00  0.00    +0.080 A 
ATOM     26  C   UNL     1      -5.752 -10.188  17.071  0.00  0.00    +0.130 A 
ATOM     27  C   UNL     1      -4.188 -11.626  18.042  0.00  0.00    +0.127 A 
ATOM     28  C   UNL     1      -6.130 -11.123  19.109  0.00  0.00    +0.223 A 
ATOM     29  H   UNL     1      -7.078  -8.909  16.116  0.00  0.00    +0.144 HD
ATOM     30  H   UNL     1      -5.472  -8.845  15.479  0.00  0.00    +0.144 HD
ENDBRANCH  20  23
ENDBRANCH  10  15
BRANCH   2  14
ATOM     14  C   UNL     1      -4.976 -10.489  11.349  0.00  0.00    +0.159 C 
BRANCH  14  16
ATOM      3  N   UNL     1      -4.835 -11.573   9.084  0.00  0.00    -0.330 N 
ATOM      5  N   UNL     1      -5.886  -9.617   9.175  0.00  0.00    -0.231 NA
ATOM     16  C   UNL     1      -5.248 -10.533   9.869  0.00  0.00    +0.125 A 
ATOM     17  C   UNL     1      -5.234 -11.312   7.798  0.00  0.00    +0.069 A 
ATOM     18  C   UNL     1      -5.888 -10.086   7.881  0.00  0.00    +0.089 A 
ATOM     19  C   UNL     1      -4.107 -12.742   9.526  0.00  0.00    +0.150 C 
ATOM     21  C   UNL     1      -5.083 -12.021   6.606  0.00  0.00    +0.028 A 
ATOM     22  C   UNL     1      -6.431  -9.519   6.715  0.00  0.00    +0.030 A 
ATOM     24  C   UNL     1      -5.629 -11.441   5.457  0.00  0.00    +0.002 A 
ATOM     25  C   UNL     1      -6.291 -10.213   5.508  0.00  0.00    +0.002 A 
ENDBRANCH  14  16
ENDBRANCH   2  14
TORSDOF 4
ENDMDL
