MODEL 1
REMARK VINA RESULT:      -6.4      0.000      0.000
REMARK  Name = 75536607
REMARK  7 active torsions:
REMARK  status: ('A' for Active; 'I' for Inactive)
REMARK    1  A    between atoms: O_3  and  C_10
REMARK    2  A    between atoms: N_5  and  C_9
REMARK    3  A    between atoms: N_5  and  C_14
REMARK    4  A    between atoms: N_6  and  C_13
REMARK    5  A    between atoms: C_11  and  C_13
REMARK    6  A    between atoms: C_14  and  C_15
REMARK    7  A    between atoms: C_16  and  C_17
REMARK                            x       y       z     vdW  Elec       q    Type
REMARK                         _______ _______ _______ _____ _____    ______ ____
ROOT
ATOM      2  O   UNL     1      10.767   7.701  20.494  0.00  0.00    -0.371 OA
ATOM      9  C   UNL     1      11.723   9.518  21.689  0.00  0.00    +0.111 C 
ATOM     10  C   UNL     1      12.824   8.773  20.955  0.00  0.00    +0.164 C 
ATOM     11  C   UNL     1      12.022   8.045  19.884  0.00  0.00    +0.165 C 
ATOM     12  C   UNL     1      10.610   8.483  21.692  0.00  0.00    +0.181 C 
ENDROOT
BRANCH  10   3
ATOM      3  O   UNL     1      13.789   9.641  20.392  0.00  0.00    -0.388 OA
ATOM     24  H   UNL     1      14.563   9.659  20.979  0.00  0.00    +0.210 HD
ENDBRANCH  10   3
BRANCH   9   5
ATOM      5  N   UNL     1      12.101   9.947  23.026  0.00  0.00    -0.302 NA
ATOM     23  H   UNL     1      12.663  10.797  22.957  0.00  0.00    +0.123 HD
BRANCH   5  14
ATOM     14  C   UNL     1      10.923  10.225  23.839  0.00  0.00    +0.156 C 
BRANCH  14  15
ATOM      7  N   UNL     1      10.097  12.539  24.329  0.00  0.00    -0.347 N 
ATOM      8  N   UNL     1      11.958  11.937  25.378  0.00  0.00    -0.240 NA
ATOM     15  C   UNL     1      11.024  11.557  24.534  0.00  0.00    +0.121 A 
ATOM     18  C   UNL     1      10.461  13.613  25.091  0.00  0.00    +0.104 A 
ATOM     19  C   UNL     1      11.612  13.218  25.730  0.00  0.00    +0.130 A 
ATOM     26  H   UNL     1       9.287  12.484  23.725  0.00  0.00    +0.167 HD
ENDBRANCH  14  15
ENDBRANCH   5  14
ENDBRANCH   9   5
BRANCH  11  13
ATOM     13  C   UNL     1      12.706   6.790  19.373  0.00  0.00    +0.138 C 
BRANCH  13   6
ATOM      4  O   UNL     1      15.116   7.058  17.836  0.00  0.00    -0.270 OA
ATOM      6  N   UNL     1      14.050   6.692  19.864  0.00  0.00    -0.308 N 
ATOM     16  C   UNL     1      15.165   6.836  19.043  0.00  0.00    +0.251 C 
ATOM     25  H   UNL     1      14.166   6.496  20.852  0.00  0.00    +0.149 HD
BRANCH  16  17
ATOM      1  S   UNL     1      16.778   7.478  21.188  0.00  0.00    -0.092 S 
ATOM     17  C   UNL     1      16.488   6.681  19.700  0.00  0.00    +0.074 A 
ATOM     20  C   UNL     1      17.581   5.956  19.280  0.00  0.00    +0.021 A 
ATOM     21  C   UNL     1      18.672   6.056  20.191  0.00  0.00    +0.008 A 
ATOM     22  C   UNL     1      18.370   6.854  21.274  0.00  0.00    +0.046 A 
ENDBRANCH  16  17
ENDBRANCH  13   6
ENDBRANCH  11  13
TORSDOF 7
ENDMDL
MODEL 2
REMARK VINA RESULT:      -6.3      2.668      8.082
REMARK  Name = 75536607
REMARK  7 active torsions:
REMARK  status: ('A' for Active; 'I' for Inactive)
REMARK    1  A    between atoms: O_3  and  C_10
REMARK    2  A    between atoms: N_5  and  C_9
REMARK    3  A    between atoms: N_5  and  C_14
REMARK    4  A    between atoms: N_6  and  C_13
REMARK    5  A    between atoms: C_11  and  C_13
REMARK    6  A    between atoms: C_14  and  C_15
REMARK    7  A    between atoms: C_16  and  C_17
REMARK                            x       y       z     vdW  Elec       q    Type
REMARK                         _______ _______ _______ _____ _____    ______ ____
ROOT
ATOM      2  O   UNL     1      11.895  10.078  20.760  0.00  0.00    -0.371 OA
ATOM      9  C   UNL     1      12.322   7.958  19.775  0.00  0.00    +0.111 C 
ATOM     10  C   UNL     1      11.649   7.753  21.120  0.00  0.00    +0.164 C 
ATOM     11  C   UNL     1      10.996   9.113  21.332  0.00  0.00    +0.165 C 
ATOM     12  C   UNL     1      12.824   9.387  19.905  0.00  0.00    +0.181 C 
ENDROOT
BRANCH  10   3
ATOM      3  O   UNL     1      10.695   6.708  21.100  0.00  0.00    -0.388 OA
ATOM     24  H   UNL     1      10.239   6.694  21.959  0.00  0.00    +0.210 HD
ENDBRANCH  10   3
BRANCH   9   5
ATOM      5  N   UNL     1      13.387   7.006  19.505  0.00  0.00    -0.302 NA
ATOM     23  H   UNL     1      14.010   7.395  18.796  0.00  0.00    +0.123 HD
BRANCH   5  14
ATOM     14  C   UNL     1      14.160   6.728  20.710  0.00  0.00    +0.156 C 
BRANCH  14  15
ATOM      7  N   UNL     1      16.580   6.687  21.357  0.00  0.00    -0.347 N 
ATOM      8  N   UNL     1      16.135   6.149  19.249  0.00  0.00    -0.240 NA
ATOM     15  C   UNL     1      15.618   6.512  20.403  0.00  0.00    +0.121 A 
ATOM     18  C   UNL     1      17.787   6.419  20.776  0.00  0.00    +0.104 A 
ATOM     19  C   UNL     1      17.487   6.089  19.476  0.00  0.00    +0.130 A 
ATOM     26  H   UNL     1      16.429   6.964  22.319  0.00  0.00    +0.167 HD
ENDBRANCH  14  15
ENDBRANCH   5  14
ENDBRANCH   9   5
BRANCH  11  13
ATOM     13  C   UNL     1      10.754   9.441  22.795  0.00  0.00    +0.138 C 
BRANCH  13   6
ATOM      4  O   UNL     1      11.177  10.851  25.260  0.00  0.00    -0.270 OA
ATOM      6  N   UNL     1      10.649  10.857  23.001  0.00  0.00    -0.308 N 
ATOM     16  C   UNL     1      10.872  11.458  24.236  0.00  0.00    +0.251 C 
ATOM     25  H   UNL     1      10.387  11.421  22.199  0.00  0.00    +0.149 HD
BRANCH  16  17
ATOM      1  S   UNL     1      10.515  13.803  22.826  0.00  0.00    -0.092 S 
ATOM     17  C   UNL     1      10.697  12.932  24.290  0.00  0.00    +0.074 A 
ATOM     20  C   UNL     1      10.655  13.757  25.391  0.00  0.00    +0.021 A 
ATOM     21  C   UNL     1      10.471  15.123  25.030  0.00  0.00    +0.008 A 
ATOM     22  C   UNL     1      10.380  15.290  23.665  0.00  0.00    +0.046 A 
ENDBRANCH  16  17
ENDBRANCH  13   6
ENDBRANCH  11  13
TORSDOF 7
ENDMDL
MODEL 3
REMARK VINA RESULT:      -6.3      3.743      5.742
REMARK  Name = 75536607
REMARK  7 active torsions:
REMARK  status: ('A' for Active; 'I' for Inactive)
REMARK    1  A    between atoms: O_3  and  C_10
REMARK    2  A    between atoms: N_5  and  C_9
REMARK    3  A    between atoms: N_5  and  C_14
REMARK    4  A    between atoms: N_6  and  C_13
REMARK    5  A    between atoms: C_11  and  C_13
REMARK    6  A    between atoms: C_14  and  C_15
REMARK    7  A    between atoms: C_16  and  C_17
REMARK                            x       y       z     vdW  Elec       q    Type
REMARK                         _______ _______ _______ _____ _____    ______ ____
ROOT
ATOM      2  O   UNL     1      12.088   9.338  20.592  0.00  0.00    -0.371 OA
ATOM      9  C   UNL     1      11.778   8.233  18.511  0.00  0.00    +0.111 C 
ATOM     10  C   UNL     1      12.482   7.292  19.472  0.00  0.00    +0.164 C 
ATOM     11  C   UNL     1      12.122   7.918  20.813  0.00  0.00    +0.165 C 
ATOM     12  C   UNL     1      12.024   9.578  19.174  0.00  0.00    +0.181 C 
ENDROOT
BRANCH  10   3
ATOM      3  O   UNL     1      12.017   5.960  19.370  0.00  0.00    -0.388 OA
ATOM     24  H   UNL     1      12.559   5.402  19.954  0.00  0.00    +0.210 HD
ENDBRANCH  10   3
BRANCH   9   5
ATOM      5  N   UNL     1      12.291   8.170  17.152  0.00  0.00    -0.302 NA
ATOM     23  H   UNL     1      11.964   8.986  16.634  0.00  0.00    +0.123 HD
BRANCH   5  14
ATOM     14  C   UNL     1      13.748   8.156  17.142  0.00  0.00    +0.156 C 
BRANCH  14  15
ATOM      7  N   UNL     1      14.716  10.463  16.988  0.00  0.00    -0.347 N 
ATOM      8  N   UNL     1      14.486   9.382  15.062  0.00  0.00    -0.240 NA
ATOM     15  C   UNL     1      14.313   9.316  16.365  0.00  0.00    +0.121 A 
ATOM     18  C   UNL     1      15.174  11.315  16.024  0.00  0.00    +0.104 A 
ATOM     19  C   UNL     1      15.023  10.627  14.844  0.00  0.00    +0.130 A 
ATOM     26  H   UNL     1      14.682  10.649  17.983  0.00  0.00    +0.167 HD
ENDBRANCH  14  15
ENDBRANCH   5  14
ENDBRANCH   9   5
BRANCH  11  13
ATOM     13  C   UNL     1      13.117   7.593  21.913  0.00  0.00    +0.138 C 
BRANCH  13   6
ATOM      4  O   UNL     1      15.733   8.775  21.945  0.00  0.00    -0.270 OA
ATOM      6  N   UNL     1      14.320   7.026  21.376  0.00  0.00    -0.308 N 
ATOM     16  C   UNL     1      15.551   7.672  21.437  0.00  0.00    +0.251 C 
ATOM     25  H   UNL     1      14.241   6.119  20.928  0.00  0.00    +0.149 HD
BRANCH  16  17
ATOM      1  S   UNL     1      16.489   6.241  19.272  0.00  0.00    -0.092 S 
ATOM     17  C   UNL     1      16.696   6.963  20.812  0.00  0.00    +0.074 A 
ATOM     20  C   UNL     1      17.971   6.782  21.300  0.00  0.00    +0.021 A 
ATOM     21  C   UNL     1      18.790   6.041  20.399  0.00  0.00    +0.008 A 
ATOM     22  C   UNL     1      18.108   5.684  19.255  0.00  0.00    +0.046 A 
ENDBRANCH  16  17
ENDBRANCH  13   6
ENDBRANCH  11  13
TORSDOF 7
ENDMDL
MODEL 4
REMARK VINA RESULT:      -6.2      3.175      8.218
REMARK  Name = 75536607
REMARK  7 active torsions:
REMARK  status: ('A' for Active; 'I' for Inactive)
REMARK    1  A    between atoms: O_3  and  C_10
REMARK    2  A    between atoms: N_5  and  C_9
REMARK    3  A    between atoms: N_5  and  C_14
REMARK    4  A    between atoms: N_6  and  C_13
REMARK    5  A    between atoms: C_11  and  C_13
REMARK    6  A    between atoms: C_14  and  C_15
REMARK    7  A    between atoms: C_16  and  C_17
REMARK                            x       y       z     vdW  Elec       q    Type
REMARK                         _______ _______ _______ _____ _____    ______ ____
ROOT
ATOM      2  O   UNL     1      15.944   6.183  18.986  0.00  0.00    -0.371 OA
ATOM      9  C   UNL     1      17.016   6.396  21.096  0.00  0.00    +0.111 C 
ATOM     10  C   UNL     1      15.702   7.156  21.129  0.00  0.00    +0.164 C 
ATOM     11  C   UNL     1      14.953   6.496  19.979  0.00  0.00    +0.165 C 
ATOM     12  C   UNL     1      17.244   6.254  19.600  0.00  0.00    +0.181 C 
ENDROOT
BRANCH  10   3
ATOM      3  O   UNL     1      15.017   7.010  22.358  0.00  0.00    -0.388 OA
ATOM     24  H   UNL     1      15.506   7.499  23.041  0.00  0.00    +0.210 HD
ENDBRANCH  10   3
BRANCH   9   5
ATOM      5  N   UNL     1      18.104   7.084  21.772  0.00  0.00    -0.302 NA
ATOM     23  H   UNL     1      18.326   6.588  22.636  0.00  0.00    +0.123 HD
BRANCH   5  14
ATOM     14  C   UNL     1      19.296   7.128  20.934  0.00  0.00    +0.156 C 
BRANCH  14  15
ATOM      7  N   UNL     1      20.719   5.158  20.322  0.00  0.00    -0.347 N 
ATOM      8  N   UNL     1      20.766   5.756  22.460  0.00  0.00    -0.240 NA
ATOM     15  C   UNL     1      20.262   6.024  21.275  0.00  0.00    +0.121 A 
ATOM     18  C   UNL     1      21.568   4.282  20.937  0.00  0.00    +0.104 A 
ATOM     19  C   UNL     1      21.582   4.671  22.255  0.00  0.00    +0.130 A 
ATOM     26  H   UNL     1      20.474   5.162  19.340  0.00  0.00    +0.167 HD
ENDBRANCH  14  15
ENDBRANCH   5  14
ENDBRANCH   9   5
BRANCH  11  13
ATOM     13  C   UNL     1      13.882   7.385  19.372  0.00  0.00    +0.138 C 
BRANCH  13   6
ATOM      4  O   UNL     1      11.129   8.113  19.740  0.00  0.00    -0.270 OA
ATOM      6  N   UNL     1      13.361   8.308  20.340  0.00  0.00    -0.308 N 
ATOM     16  C   UNL     1      12.005   8.602  20.447  0.00  0.00    +0.251 C 
ATOM     25  H   UNL     1      14.032   8.761  20.951  0.00  0.00    +0.149 HD
BRANCH  16  17
ATOM      1  S   UNL     1      11.996  11.251  21.218  0.00  0.00    -0.092 S 
ATOM     17  C   UNL     1      11.631   9.599  21.482  0.00  0.00    +0.074 A 
ATOM     20  C   UNL     1      11.000   9.396  22.690  0.00  0.00    +0.021 A 
ATOM     21  C   UNL     1      10.814  10.612  23.408  0.00  0.00    +0.008 A 
ATOM     22  C   UNL     1      11.310  11.699  22.722  0.00  0.00    +0.046 A 
ENDBRANCH  16  17
ENDBRANCH  13   6
ENDBRANCH  11  13
TORSDOF 7
ENDMDL
MODEL 5
REMARK VINA RESULT:      -6.1      2.423      7.200
REMARK  Name = 75536607
REMARK  7 active torsions:
REMARK  status: ('A' for Active; 'I' for Inactive)
REMARK    1  A    between atoms: O_3  and  C_10
REMARK    2  A    between atoms: N_5  and  C_9
REMARK    3  A    between atoms: N_5  and  C_14
REMARK    4  A    between atoms: N_6  and  C_13
REMARK    5  A    between atoms: C_11  and  C_13
REMARK    6  A    between atoms: C_14  and  C_15
REMARK    7  A    between atoms: C_16  and  C_17
REMARK                            x       y       z     vdW  Elec       q    Type
REMARK                         _______ _______ _______ _____ _____    ______ ____
ROOT
ATOM      2  O   UNL     1      11.650   7.266  19.902  0.00  0.00    -0.371 OA
ATOM      9  C   UNL     1      13.995   6.914  19.758  0.00  0.00    +0.111 C 
ATOM     10  C   UNL     1      13.667   7.523  21.110  0.00  0.00    +0.164 C 
ATOM     11  C   UNL     1      12.187   7.184  21.232  0.00  0.00    +0.165 C 
ATOM     12  C   UNL     1      12.743   7.250  18.966  0.00  0.00    +0.181 C 
ENDROOT
BRANCH  10   3
ATOM      3  O   UNL     1      14.426   6.958  22.162  0.00  0.00    -0.388 OA
ATOM     24  H   UNL     1      14.457   7.598  22.893  0.00  0.00    +0.210 HD
ENDBRANCH  10   3
BRANCH   9   5
ATOM      5  N   UNL     1      15.206   7.449  19.157  0.00  0.00    -0.302 NA
ATOM     23  H   UNL     1      15.596   8.165  19.772  0.00  0.00    +0.123 HD
BRANCH   5  14
ATOM     14  C   UNL     1      16.201   6.401  18.961  0.00  0.00    +0.156 C 
BRANCH  14  15
ATOM      7  N   UNL     1      18.535   5.886  19.714  0.00  0.00    -0.347 N 
ATOM      8  N   UNL     1      17.375   7.246  21.030  0.00  0.00    -0.240 NA
ATOM     15  C   UNL     1      17.351   6.534  19.924  0.00  0.00    +0.121 A 
ATOM     18  C   UNL     1      19.367   6.203  20.750  0.00  0.00    +0.104 A 
ATOM     19  C   UNL     1      18.629   7.044  21.549  0.00  0.00    +0.130 A 
ATOM     26  H   UNL     1      18.757   5.280  18.934  0.00  0.00    +0.167 HD
ENDBRANCH  14  15
ENDBRANCH   5  14
ENDBRANCH   9   5
BRANCH  11  13
ATOM     13  C   UNL     1      11.430   8.128  22.150  0.00  0.00    +0.138 C 
BRANCH  13   6
ATOM      4  O   UNL     1      10.543  10.653  23.190  0.00  0.00    -0.270 OA
ATOM      6  N   UNL     1      12.259   9.219  22.575  0.00  0.00    -0.308 N 
ATOM     16  C   UNL     1      11.741  10.412  23.069  0.00  0.00    +0.251 C 
ATOM     25  H   UNL     1      13.263   9.095  22.490  0.00  0.00    +0.149 HD
BRANCH  16  17
ATOM      1  S   UNL     1      14.403  11.102  23.300  0.00  0.00    -0.092 S 
ATOM     17  C   UNL     1      12.732  11.453  23.442  0.00  0.00    +0.074 A 
ATOM     20  C   UNL     1      12.510  12.729  23.910  0.00  0.00    +0.021 A 
ATOM     21  C   UNL     1      13.727  13.429  24.156  0.00  0.00    +0.008 A 
ATOM     22  C   UNL     1      14.834  12.660  23.866  0.00  0.00    +0.046 A 
ENDBRANCH  16  17
ENDBRANCH  13   6
ENDBRANCH  11  13
TORSDOF 7
ENDMDL
MODEL 6
REMARK VINA RESULT:      -5.9      2.495      7.297
REMARK  Name = 75536607
REMARK  7 active torsions:
REMARK  status: ('A' for Active; 'I' for Inactive)
REMARK    1  A    between atoms: O_3  and  C_10
REMARK    2  A    between atoms: N_5  and  C_9
REMARK    3  A    between atoms: N_5  and  C_14
REMARK    4  A    between atoms: N_6  and  C_13
REMARK    5  A    between atoms: C_11  and  C_13
REMARK    6  A    between atoms: C_14  and  C_15
REMARK    7  A    between atoms: C_16  and  C_17
REMARK                            x       y       z     vdW  Elec       q    Type
REMARK                         _______ _______ _______ _____ _____    ______ ____
ROOT
ATOM      2  O   UNL     1      13.614   8.048  18.706  0.00  0.00    -0.371 OA
ATOM      9  C   UNL     1      14.545   6.570  20.317  0.00  0.00    +0.111 C 
ATOM     10  C   UNL     1      13.164   6.999  20.777  0.00  0.00    +0.164 C 
ATOM     11  C   UNL     1      12.545   7.457  19.464  0.00  0.00    +0.165 C 
ATOM     12  C   UNL     1      14.865   7.644  19.289  0.00  0.00    +0.181 C 
ENDROOT
BRANCH  10   3
ATOM      3  O   UNL     1      12.431   5.940  21.365  0.00  0.00    -0.388 OA
ATOM     24  H   UNL     1      12.862   5.699  22.202  0.00  0.00    +0.210 HD
ENDBRANCH  10   3
BRANCH   9   5
ATOM      5  N   UNL     1      15.524   6.503  21.390  0.00  0.00    -0.302 NA
ATOM     23  H   UNL     1      15.981   5.591  21.367  0.00  0.00    +0.123 HD
BRANCH   5  14
ATOM     14  C   UNL     1      16.535   7.543  21.242  0.00  0.00    +0.156 C 
BRANCH  14  15
ATOM      7  N   UNL     1      18.749   7.027  22.297  0.00  0.00    -0.347 N 
ATOM      8  N   UNL     1      18.507   6.371  20.189  0.00  0.00    -0.240 NA
ATOM     15  C   UNL     1      17.926   6.969  21.207  0.00  0.00    +0.121 A 
ATOM     18  C   UNL     1      19.929   6.429  21.953  0.00  0.00    +0.104 A 
ATOM     19  C   UNL     1      19.755   6.032  20.648  0.00  0.00    +0.130 A 
ATOM     26  H   UNL     1      18.528   7.438  23.195  0.00  0.00    +0.167 HD
ENDBRANCH  14  15
ENDBRANCH   5  14
ENDBRANCH   9   5
BRANCH  11  13
ATOM     13  C   UNL     1      11.426   8.467  19.647  0.00  0.00    +0.138 C 
BRANCH  13   6
ATOM      4  O   UNL     1      10.227   8.680  22.248  0.00  0.00    -0.270 OA
ATOM      6  N   UNL     1      11.751   9.425  20.665  0.00  0.00    -0.308 N 
ATOM     16  C   UNL     1      11.116   9.455  21.902  0.00  0.00    +0.251 C 
ATOM     25  H   UNL     1      12.469  10.106  20.443  0.00  0.00    +0.149 HD
BRANCH  16  17
ATOM      1  S   UNL     1      12.851  11.544  22.389  0.00  0.00    -0.092 S 
ATOM     17  C   UNL     1      11.549  10.525  22.836  0.00  0.00    +0.074 A 
ATOM     20  C   UNL     1      11.041  10.849  24.075  0.00  0.00    +0.021 A 
ATOM     21  C   UNL     1      11.730  11.947  24.666  0.00  0.00    +0.008 A 
ATOM     22  C   UNL     1      12.739  12.422  23.855  0.00  0.00    +0.046 A 
ENDBRANCH  16  17
ENDBRANCH  13   6
ENDBRANCH  11  13
TORSDOF 7
ENDMDL
MODEL 7
REMARK VINA RESULT:      -5.9      3.475      4.392
REMARK  Name = 75536607
REMARK  7 active torsions:
REMARK  status: ('A' for Active; 'I' for Inactive)
REMARK    1  A    between atoms: O_3  and  C_10
REMARK    2  A    between atoms: N_5  and  C_9
REMARK    3  A    between atoms: N_5  and  C_14
REMARK    4  A    between atoms: N_6  and  C_13
REMARK    5  A    between atoms: C_11  and  C_13
REMARK    6  A    between atoms: C_14  and  C_15
REMARK    7  A    between atoms: C_16  and  C_17
REMARK                            x       y       z     vdW  Elec       q    Type
REMARK                         _______ _______ _______ _____ _____    ______ ____
ROOT
ATOM      2  O   UNL     1      14.436   8.357  19.986  0.00  0.00    -0.371 OA
ATOM      9  C   UNL     1      12.813   7.673  21.581  0.00  0.00    +0.111 C 
ATOM     10  C   UNL     1      12.347   7.267  20.195  0.00  0.00    +0.164 C 
ATOM     11  C   UNL     1      13.662   7.282  19.427  0.00  0.00    +0.165 C 
ATOM     12  C   UNL     1      13.857   8.728  21.250  0.00  0.00    +0.181 C 
ENDROOT
BRANCH  10   3
ATOM      3  O   UNL     1      11.741   5.989  20.176  0.00  0.00    -0.388 OA
ATOM     24  H   UNL     1      12.437   5.322  20.050  0.00  0.00    +0.210 HD
ENDBRANCH  10   3
BRANCH   9   5
ATOM      5  N   UNL     1      11.746   8.179  22.430  0.00  0.00    -0.302 NA
ATOM     23  H   UNL     1      12.127   8.392  23.353  0.00  0.00    +0.123 HD
BRANCH   5  14
ATOM     14  C   UNL     1      11.162   9.392  21.870  0.00  0.00    +0.156 C 
BRANCH  14  15
ATOM      7  N   UNL     1      11.230  10.267  24.217  0.00  0.00    -0.347 N 
ATOM      8  N   UNL     1      10.987  11.794  22.623  0.00  0.00    -0.240 NA
ATOM     15  C   UNL     1      11.122  10.511  22.876  0.00  0.00    +0.121 A 
ATOM     18  C   UNL     1      11.159  11.471  24.859  0.00  0.00    +0.104 A 
ATOM     19  C   UNL     1      11.010  12.398  23.856  0.00  0.00    +0.130 A 
ATOM     26  H   UNL     1      11.343   9.362  24.655  0.00  0.00    +0.167 HD
ENDBRANCH  14  15
ENDBRANCH   5  14
ENDBRANCH   9   5
BRANCH  11  13
ATOM     13  C   UNL     1      13.483   7.500  17.935  0.00  0.00    +0.138 C 
BRANCH  13   6
ATOM      4  O   UNL     1      13.588   8.542  15.261  0.00  0.00    -0.270 OA
ATOM      6  N   UNL     1      13.952   8.797  17.538  0.00  0.00    -0.308 N 
ATOM     16  C   UNL     1      13.966   9.220  16.213  0.00  0.00    +0.251 C 
ATOM     25  H   UNL     1      14.294   9.408  18.273  0.00  0.00    +0.149 HD
BRANCH  16  17
ATOM      1  S   UNL     1      15.525  10.839  14.612  0.00  0.00    -0.092 S 
ATOM     17  C   UNL     1      14.507  10.581  15.964  0.00  0.00    +0.074 A 
ATOM     20  C   UNL     1      14.307  11.736  16.689  0.00  0.00    +0.021 A 
ATOM     21  C   UNL     1      15.001  12.847  16.127  0.00  0.00    +0.008 A 
ATOM     22  C   UNL     1      15.703  12.499  14.994  0.00  0.00    +0.046 A 
ENDBRANCH  16  17
ENDBRANCH  13   6
ENDBRANCH  11  13
TORSDOF 7
ENDMDL
MODEL 8
REMARK VINA RESULT:      -5.8      2.967      7.460
REMARK  Name = 75536607
REMARK  7 active torsions:
REMARK  status: ('A' for Active; 'I' for Inactive)
REMARK    1  A    between atoms: O_3  and  C_10
REMARK    2  A    between atoms: N_5  and  C_9
REMARK    3  A    between atoms: N_5  and  C_14
REMARK    4  A    between atoms: N_6  and  C_13
REMARK    5  A    between atoms: C_11  and  C_13
REMARK    6  A    between atoms: C_14  and  C_15
REMARK    7  A    between atoms: C_16  and  C_17
REMARK                            x       y       z     vdW  Elec       q    Type
REMARK                         _______ _______ _______ _____ _____    ______ ____
ROOT
ATOM      2  O   UNL     1      11.105   7.156  21.595  0.00  0.00    -0.371 OA
ATOM      9  C   UNL     1      13.471   7.361  21.504  0.00  0.00    +0.111 C 
ATOM     10  C   UNL     1      12.866   8.724  21.785  0.00  0.00    +0.164 C 
ATOM     11  C   UNL     1      11.496   8.332  22.323  0.00  0.00    +0.165 C 
ATOM     12  C   UNL     1      12.271   6.607  20.953  0.00  0.00    +0.181 C 
ENDROOT
BRANCH  10   3
ATOM      3  O   UNL     1      13.611   9.467  22.730  0.00  0.00    -0.388 OA
ATOM     24  H   UNL     1      14.531   9.156  22.708  0.00  0.00    +0.210 HD
ENDBRANCH  10   3
BRANCH   9   5
ATOM      5  N   UNL     1      14.589   7.399  20.576  0.00  0.00    -0.302 NA
ATOM     23  H   UNL     1      15.318   6.765  20.906  0.00  0.00    +0.123 HD
BRANCH   5  14
ATOM     14  C   UNL     1      14.176   6.988  19.240  0.00  0.00    +0.156 C 
BRANCH  14  15
ATOM      7  N   UNL     1      14.015   7.934  16.925  0.00  0.00    -0.347 N 
ATOM      8  N   UNL     1      14.484   9.391  18.534  0.00  0.00    -0.240 NA
ATOM     15  C   UNL     1      14.233   8.129  18.260  0.00  0.00    +0.121 A 
ATOM     18  C   UNL     1      14.135   9.148  16.308  0.00  0.00    +0.104 A 
ATOM     19  C   UNL     1      14.424  10.031  17.321  0.00  0.00    +0.130 A 
ATOM     26  H   UNL     1      13.803   7.054  16.474  0.00  0.00    +0.167 HD
ENDBRANCH  14  15
ENDBRANCH   5  14
ENDBRANCH   9   5
BRANCH  11  13
ATOM     13  C   UNL     1      10.449   9.417  22.145  0.00  0.00    +0.138 C 
BRANCH  13   6
ATOM      4  O   UNL     1      11.214  12.144  21.671  0.00  0.00    -0.270 OA
ATOM      6  N   UNL     1      10.595  10.450  23.130  0.00  0.00    -0.308 N 
ATOM     16  C   UNL     1      10.972  11.750  22.809  0.00  0.00    +0.251 C 
ATOM     25  H   UNL     1      10.424  10.192  24.096  0.00  0.00    +0.149 HD
BRANCH  16  17
ATOM      1  S   UNL     1      12.495  12.608  24.944  0.00  0.00    -0.092 S 
ATOM     17  C   UNL     1      11.105  12.695  23.947  0.00  0.00    +0.074 A 
ATOM     20  C   UNL     1      10.240  13.687  24.352  0.00  0.00    +0.021 A 
ATOM     21  C   UNL     1      10.723  14.385  25.497  0.00  0.00    +0.008 A 
ATOM     22  C   UNL     1      11.941  13.899  25.923  0.00  0.00    +0.046 A 
ENDBRANCH  16  17
ENDBRANCH  13   6
ENDBRANCH  11  13
TORSDOF 7
ENDMDL
MODEL 9
REMARK VINA RESULT:      -5.7     26.689     27.987
REMARK  Name = 75536607
REMARK  7 active torsions:
REMARK  status: ('A' for Active; 'I' for Inactive)
REMARK    1  A    between atoms: O_3  and  C_10
REMARK    2  A    between atoms: N_5  and  C_9
REMARK    3  A    between atoms: N_5  and  C_14
REMARK    4  A    between atoms: N_6  and  C_13
REMARK    5  A    between atoms: C_11  and  C_13
REMARK    6  A    between atoms: C_14  and  C_15
REMARK    7  A    between atoms: C_16  and  C_17
REMARK                            x       y       z     vdW  Elec       q    Type
REMARK                         _______ _______ _______ _____ _____    ______ ____
ROOT
ATOM      2  O   UNL     1      -4.191 -10.524  14.569  0.00  0.00    -0.371 OA
ATOM      9  C   UNL     1      -3.779 -11.174  16.817  0.00  0.00    +0.111 C 
ATOM     10  C   UNL     1      -2.508 -11.357  16.007  0.00  0.00    +0.164 C 
ATOM     11  C   UNL     1      -2.779 -10.437  14.824  0.00  0.00    +0.165 C 
ATOM     12  C   UNL     1      -4.828 -11.110  15.719  0.00  0.00    +0.181 C 
ENDROOT
BRANCH  10   3
ATOM      3  O   UNL     1      -1.347 -10.972  16.718  0.00  0.00    -0.388 OA
ATOM     24  H   UNL     1      -0.763 -11.746  16.791  0.00  0.00    +0.210 HD
ENDBRANCH  10   3
BRANCH   9   5
ATOM      5  N   UNL     1      -4.022 -12.245  17.770  0.00  0.00    -0.302 NA
ATOM     23  H   UNL     1      -3.139 -12.717  17.974  0.00  0.00    +0.123 HD
BRANCH   5  14
ATOM     14  C   UNL     1      -4.577 -11.724  19.013  0.00  0.00    +0.156 C 
BRANCH  14  15
ATOM      7  N   UNL     1      -6.611 -13.076  18.454  0.00  0.00    -0.347 N 
ATOM      8  N   UNL     1      -6.916 -11.433  19.916  0.00  0.00    -0.240 NA
ATOM     15  C   UNL     1      -6.040 -12.050  19.153  0.00  0.00    +0.121 A 
ATOM     18  C   UNL     1      -7.935 -13.116  18.792  0.00  0.00    +0.104 A 
ATOM     19  C   UNL     1      -8.099 -12.094  19.696  0.00  0.00    +0.130 A 
ATOM     26  H   UNL     1      -6.142 -13.694  17.804  0.00  0.00    +0.167 HD
ENDBRANCH  14  15
ENDBRANCH   5  14
ENDBRANCH   9   5
BRANCH  11  13
ATOM     13  C   UNL     1      -2.007 -10.824  13.575  0.00  0.00    +0.138 C 
BRANCH  13   6
ATOM      4  O   UNL     1      -1.472  -9.394  11.143  0.00  0.00    -0.270 OA
ATOM      6  N   UNL     1      -2.843 -10.772  12.409  0.00  0.00    -0.308 N 
ATOM     16  C   UNL     1      -2.502 -10.051  11.269  0.00  0.00    +0.251 C 
ATOM     25  H   UNL     1      -3.719 -11.281  12.448  0.00  0.00    +0.149 HD
BRANCH  16  17
ATOM      1  S   UNL     1      -4.193 -11.571   9.705  0.00  0.00    -0.092 S 
ATOM     17  C   UNL     1      -3.487 -10.077  10.158  0.00  0.00    +0.074 A 
ATOM     20  C   UNL     1      -3.951  -9.033   9.389  0.00  0.00    +0.021 A 
ATOM     21  C   UNL     1      -4.897  -9.464   8.415  0.00  0.00    +0.008 A 
ATOM     22  C   UNL     1      -5.121 -10.822   8.477  0.00  0.00    +0.046 A 
ENDBRANCH  16  17
ENDBRANCH  13   6
ENDBRANCH  11  13
TORSDOF 7
ENDMDL
MODEL 10
REMARK VINA RESULT:      -5.7     26.889     28.143
REMARK  Name = 75536607
REMARK  7 active torsions:
REMARK  status: ('A' for Active; 'I' for Inactive)
REMARK    1  A    between atoms: O_3  and  C_10
REMARK    2  A    between atoms: N_5  and  C_9
REMARK    3  A    between atoms: N_5  and  C_14
REMARK    4  A    between atoms: N_6  and  C_13
REMARK    5  A    between atoms: C_11  and  C_13
REMARK    6  A    between atoms: C_14  and  C_15
REMARK    7  A    between atoms: C_16  and  C_17
REMARK                            x       y       z     vdW  Elec       q    Type
REMARK                         _______ _______ _______ _____ _____    ______ ____
ROOT
ATOM      2  O   UNL     1      -6.216 -11.322  18.356  0.00  0.00    -0.371 OA
ATOM      9  C   UNL     1      -8.153 -10.101  17.721  0.00  0.00    +0.111 C 
ATOM     10  C   UNL     1      -6.957  -9.567  16.954  0.00  0.00    +0.164 C 
ATOM     11  C   UNL     1      -5.992 -10.741  17.060  0.00  0.00    +0.165 C 
ATOM     12  C   UNL     1      -7.472 -10.838  18.863  0.00  0.00    +0.181 C 
ENDROOT
BRANCH  10   3
ATOM      3  O   UNL     1      -7.265  -9.258  15.608  0.00  0.00    -0.388 OA
ATOM     24  H   UNL     1      -6.722  -8.499  15.337  0.00  0.00    +0.210 HD
ENDBRANCH  10   3
BRANCH   9   5
ATOM      5  N   UNL     1      -9.062  -9.063  18.179  0.00  0.00    -0.302 NA
ATOM     23  H   UNL     1      -8.668  -8.150  17.950  0.00  0.00    +0.123 HD
BRANCH   5  14
ATOM     14  C   UNL     1     -10.366  -9.190  17.540  0.00  0.00    +0.156 C 
BRANCH  14  15
ATOM      7  N   UNL     1      -9.734  -7.205  16.147  0.00  0.00    -0.347 N 
ATOM      8  N   UNL     1     -11.911  -7.513  16.457  0.00  0.00    -0.240 NA
ATOM     15  C   UNL     1     -10.708  -7.974  16.720  0.00  0.00    +0.121 A 
ATOM     18  C   UNL     1     -10.355  -6.189  15.477  0.00  0.00    +0.104 A 
ATOM     19  C   UNL     1     -11.698  -6.400  15.682  0.00  0.00    +0.130 A 
ATOM     26  H   UNL     1      -8.736  -7.358  16.207  0.00  0.00    +0.167 HD
ENDBRANCH  14  15
ENDBRANCH   5  14
ENDBRANCH   9   5
BRANCH  11  13
ATOM     13  C   UNL     1      -4.536 -10.334  16.925  0.00  0.00    +0.138 C 
BRANCH  13   6
ATOM      4  O   UNL     1      -3.438 -12.229  15.069  0.00  0.00    -0.270 OA
ATOM      6  N   UNL     1      -4.188 -10.089  15.555  0.00  0.00    -0.308 N 
ATOM     16  C   UNL     1      -3.659 -11.072  14.724  0.00  0.00    +0.251 C 
ATOM     25  H   UNL     1      -4.331  -9.147  15.205  0.00  0.00    +0.149 HD
BRANCH  16  17
ATOM      1  S   UNL     1      -4.599 -10.312  12.244  0.00  0.00    -0.092 S 
ATOM     17  C   UNL     1      -3.327 -10.650  13.339  0.00  0.00    +0.074 A 
ATOM     20  C   UNL     1      -2.088 -10.477  12.762  0.00  0.00    +0.021 A 
ATOM     21  C   UNL     1      -2.185 -10.063  11.402  0.00  0.00    +0.008 A 
ATOM     22  C   UNL     1      -3.494  -9.934  10.992  0.00  0.00    +0.046 A 
ENDBRANCH  16  17
ENDBRANCH  13   6
ENDBRANCH  11  13
TORSDOF 7
ENDMDL
