REMARK  Name = 45783724
REMARK  4 active torsions:
REMARK  status: ('A' for Active; 'I' for Inactive)
REMARK    1  A    between atoms: N_3  and  C_10
REMARK    2  A    between atoms: C_11  and  C_19
REMARK    3  A    between atoms: C_20  and  C_21
REMARK    4  A    between atoms: C_22  and  C_23
REMARK                            x       y       z     vdW  Elec       q    Type
REMARK                         _______ _______ _______ _____ _____    ______ ____
ROOT
ATOM      3  N   UNL     1       1.573   1.973  -0.524  0.00  0.00    -0.288 NA
ATOM     11  C   UNL     1       0.627   2.620   0.407  0.00  0.00    +0.146 C 
ATOM     12  C   UNL     1       2.320   3.052  -1.171  0.00  0.00    +0.085 C 
ATOM     13  C   UNL     1       0.348   4.000  -0.216  0.00  0.00    +0.030 C 
ATOM     16  C   UNL     1       1.226   4.061  -1.457  0.00  0.00    +0.017 C 
ENDROOT
BRANCH   3  10
ATOM      2  O   UNL     1       4.382  -3.494  -0.699  0.00  0.00    -0.276 OA
ATOM      4  N   UNL     1       3.438  -1.698   0.432  0.00  0.00    -0.302 N 
ATOM     10  C   UNL     1       2.456   1.009   0.129  0.00  0.00    +0.060 C 
ATOM     14  C   UNL     1       3.399   0.376  -0.902  0.00  0.00    +0.038 C 
ATOM     15  C   UNL     1       1.626  -0.072   0.833  0.00  0.00    +0.038 C 
ATOM     17  C   UNL     1       4.265  -0.705  -0.257  0.00  0.00    +0.109 C 
ATOM     18  C   UNL     1       2.528  -1.145   1.443  0.00  0.00    +0.109 C 
ATOM     20  C   UNL     1       3.584  -3.051   0.131  0.00  0.00    +0.212 C 
ATOM     21  C   UNL     1       2.693  -4.010   0.881  0.00  0.00    +0.109 C 
ENDBRANCH   3  10
BRANCH  11  19
ATOM      1  O   UNL     1      -1.271   1.971   1.803  0.00  0.00    -0.336 OA
ATOM      5  N   UNL     1      -1.212   0.951  -0.191  0.00  0.00    -0.190 NA
ATOM      6  N   UNL     1      -2.389   1.129   1.762  0.00  0.00    -0.056 NA
ATOM     19  C   UNL     1      -0.633   1.806   0.614  0.00  0.00    +0.245 A 
ATOM     22  C   UNL     1      -2.285   0.562   0.557  0.00  0.00    +0.207 A 
BRANCH  22  23
ATOM      7  N   UNL     1      -3.815  -2.307  -1.274  0.00  0.00    -0.220 NA
ATOM      8  N   UNL     1      -1.584  -1.519  -1.274  0.00  0.00    -0.342 N 
ATOM      9  N   UNL     1      -5.500  -1.211   0.055  0.00  0.00    -0.243 NA
ATOM     23  C   UNL     1      -3.235  -0.395   0.068  0.00  0.00    +0.080 A 
ATOM     24  C   UNL     1      -2.920  -1.407  -0.815  0.00  0.00    +0.130 A 
ATOM     25  C   UNL     1      -4.554  -0.345   0.473  0.00  0.00    +0.127 A 
ATOM     26  C   UNL     1      -5.068  -2.152  -0.806  0.00  0.00    +0.223 A 
ATOM     27  H   UNL     1      -1.038  -0.675  -1.390  0.00  0.00    +0.144 HD
ATOM     28  H   UNL     1      -1.393  -2.284  -1.911  0.00  0.00    +0.144 HD
ENDBRANCH  22  23
ENDBRANCH  11  19
TORSDOF 3
