REMARK  Name = 40777108
REMARK  9 active torsions:
REMARK  status: ('A' for Active; 'I' for Inactive)
REMARK    1  A    between atoms: N_4  and  C_15
REMARK    2  A    between atoms: N_7  and  C_32
REMARK    3  A    between atoms: N_7  and  C_34
REMARK    4  A    between atoms: N_7  and  C_35
REMARK    5  A    between atoms: C_9  and  C_16
REMARK    6  A    between atoms: C_10  and  C_15
REMARK    7  A    between atoms: C_18  and  C_21
REMARK    8  A    between atoms: C_19  and  C_23
REMARK    9  A    between atoms: C_20  and  C_22
REMARK                            x       y       z     vdW  Elec       q    Type
REMARK                         _______ _______ _______ _____ _____    ______ ____
ROOT
ATOM      3  N   UNL     1       0.348   3.186  -0.802  0.00  0.00    -0.297 NA
ATOM      8  C   UNL     1       0.682   2.414   1.663  0.00  0.00    +0.002 C 
ATOM      9  C   UNL     1       1.964   2.140   0.829  0.00  0.00    +0.055 C 
ATOM     10  C   UNL     1      -0.795   2.336  -0.376  0.00  0.00    +0.074 C 
ATOM     11  C   UNL     1      -0.517   1.701   1.004  0.00  0.00    +0.024 C 
ATOM     12  C   UNL     1       0.411   3.932   1.577  0.00  0.00    +0.019 C 
ATOM     13  C   UNL     1       1.621   2.435  -0.659  0.00  0.00    +0.094 C 
ATOM     14  C   UNL     1       0.401   4.361   0.100  0.00  0.00    +0.085 C 
ENDROOT
BRANCH   9  16
ATOM      5  N   UNL     1       2.103  -0.067   1.875  0.00  0.00    -0.237 NA
ATOM      6  N   UNL     1       3.873  -1.620   1.365  0.00  0.00    -0.232 NA
ATOM     16  C   UNL     1       2.663   0.799   1.005  0.00  0.00    +0.050 A 
ATOM     17  C   UNL     1       3.812   0.532   0.288  0.00  0.00    +0.052 A 
ATOM     18  C   UNL     1       4.379  -0.706   0.511  0.00  0.00    +0.076 A 
ATOM     19  C   UNL     1       2.751  -1.240   2.004  0.00  0.00    +0.127 A 
ATOM     23  C   UNL     1       2.162  -2.224   2.958  0.00  0.00    +0.088 C 
BRANCH  18  21
ATOM      1 BR   UNL     1       3.920  -2.201  -2.279  0.00  0.00    -0.050 Br
ATOM     21  C   UNL     1       5.584  -1.108  -0.175  0.00  0.00    +0.014 A 
ATOM     24  C   UNL     1       5.550  -1.770  -1.403  0.00  0.00    +0.027 A 
ATOM     25  C   UNL     1       6.808  -0.816   0.426  0.00  0.00    +0.011 A 
ATOM     28  C   UNL     1       6.741  -2.139  -2.029  0.00  0.00    +0.016 A 
ATOM     29  C   UNL     1       7.998  -1.184  -0.200  0.00  0.00    +0.001 A 
ATOM     33  C   UNL     1       7.965  -1.846  -1.428  0.00  0.00    +0.001 A 
ENDBRANCH  18  21
ENDBRANCH   9  16
BRANCH  10  15
ATOM     15  C   UNL     1      -1.160   1.282  -1.425  0.00  0.00    +0.123 C 
BRANCH  15   4
ATOM      2  O   UNL     1      -3.878   1.962  -2.053  0.00  0.00    -0.270 OA
ATOM      4  N   UNL     1      -2.333   0.561  -1.036  0.00  0.00    -0.310 N 
ATOM     20  C   UNL     1      -3.620   0.963  -1.386  0.00  0.00    +0.244 C 
ATOM     36  H   UNL     1      -2.194  -0.241  -0.431  0.00  0.00    +0.149 HD
BRANCH  20  22
ATOM     22  C   UNL     1      -4.734   0.119  -0.882  0.00  0.00    +0.037 A 
ATOM     26  C   UNL     1      -5.995   0.679  -0.675  0.00  0.00    +0.015 A 
ATOM     27  C   UNL     1      -4.519  -1.233  -0.618  0.00  0.00    +0.015 A 
ATOM     30  C   UNL     1      -7.041  -0.114  -0.203  0.00  0.00    +0.024 A 
ATOM     31  C   UNL     1      -5.565  -2.026  -0.145  0.00  0.00    +0.024 A 
ATOM     32  C   UNL     1      -6.826  -1.466   0.062  0.00  0.00    +0.029 A 
BRANCH  32   7
ATOM      7  N   UNL     1      -7.883  -2.268   0.540  0.00  0.00    -0.336 N 
ATOM     34  C   UNL     1      -9.197  -1.696   0.759  0.00  0.00    +0.129 C 
ATOM     35  C   UNL     1      -7.672  -3.676   0.811  0.00  0.00    +0.129 C 
ENDBRANCH  32   7
ENDBRANCH  20  22
ENDBRANCH  15   4
ENDBRANCH  10  15
TORSDOF 6
