REMARK  Name = 75367096
REMARK  7 active torsions:
REMARK  status: ('A' for Active; 'I' for Inactive)
REMARK    1  A    between atoms: S_1  and  N_7
REMARK    2  A    between atoms: S_1  and  C_19
REMARK    3  A    between atoms: O_3  and  C_10
REMARK    4  A    between atoms: N_6  and  C_8
REMARK    5  A    between atoms: N_6  and  C_9
REMARK    6  A    between atoms: N_7  and  C_18
REMARK    7  A    between atoms: C_11  and  C_18
REMARK                            x       y       z     vdW  Elec       q    Type
REMARK                         _______ _______ _______ _____ _____    ______ ____
ROOT
ATOM      2  O   UNL     1      -0.441   0.671  -1.361  0.00  0.00    -0.371 OA
ATOM      8  C   UNL     1      -2.308   0.205   0.033  0.00  0.00    +0.111 C 
ATOM     10  C   UNL     1      -1.034   0.045   0.842  0.00  0.00    +0.164 C 
ATOM     11  C   UNL     1      -0.054   0.862   0.011  0.00  0.00    +0.164 C 
ATOM     14  C   UNL     1      -1.773   0.129  -1.388  0.00  0.00    +0.181 C 
ENDROOT
BRANCH  10   3
ATOM      3  O   UNL     1      -1.156   0.549   2.158  0.00  0.00    -0.388 OA
ATOM     26  H   UNL     1      -1.429   1.481   2.105  0.00  0.00    +0.210 HD
ENDBRANCH  10   3
BRANCH   8   6
ATOM      6  N   UNL     1      -3.310  -0.809   0.316  0.00  0.00    -0.306 NA
ATOM     25  H   UNL     1      -3.379  -0.963   1.321  0.00  0.00    +0.123 HD
BRANCH   6   9
ATOM      9  C   UNL     1      -4.612  -0.412  -0.216  0.00  0.00    +0.054 C 
ATOM     12  C   UNL     1      -5.509  -1.645  -0.373  0.00  0.00    +0.019 C 
ATOM     13  C   UNL     1      -5.258   0.627   0.708  0.00  0.00    +0.019 C 
ATOM     15  C   UNL     1      -6.906  -1.260  -0.855  0.00  0.00    +0.002 C 
ATOM     16  C   UNL     1      -6.656   1.010   0.224  0.00  0.00    +0.002 C 
ATOM     17  C   UNL     1      -7.548  -0.217   0.056  0.00  0.00    +0.000 C 
ENDBRANCH   6   9
ENDBRANCH   8   6
BRANCH  11  18
ATOM     18  C   UNL     1       1.392   0.438   0.199  0.00  0.00    +0.140 C 
BRANCH  18   7
ATOM      7  N   UNL     1       2.268   1.278  -0.641  0.00  0.00    -0.187 NA
ATOM     27  H   UNL     1       2.068   1.262  -1.649  0.00  0.00    +0.148 HD
BRANCH   7   1
ATOM      1  S   UNL     1       3.855   1.626  -0.135  0.00  0.00    +0.058 S 
ATOM      4  O   UNL     1       3.820   2.195   1.198  0.00  0.00    -0.153 OA
ATOM      5  O   UNL     1       4.550   2.315  -1.205  0.00  0.00    -0.153 OA
BRANCH   1  19
ATOM     19  C   UNL     1       4.560   0.009  -0.019  0.00  0.00    +0.105 A 
ATOM     20  C   UNL     1       5.190  -0.558  -1.127  0.00  0.00    +0.028 A 
ATOM     21  C   UNL     1       4.483  -0.701   1.179  0.00  0.00    +0.028 A 
ATOM     22  C   UNL     1       5.744  -1.835  -1.036  0.00  0.00    +0.002 A 
ATOM     23  C   UNL     1       5.036  -1.978   1.270  0.00  0.00    +0.002 A 
ATOM     24  C   UNL     1       5.667  -2.545   0.162  0.00  0.00    +0.000 A 
ENDBRANCH   1  19
ENDBRANCH   7   1
ENDBRANCH  18   7
ENDBRANCH  11  18
TORSDOF 7
