REMARK  Name = 45784172
REMARK  3 active torsions:
REMARK  status: ('A' for Active; 'I' for Inactive)
REMARK    1  A    between atoms: N_5  and  C_11
REMARK    2  A    between atoms: C_7  and  C_12
REMARK    3  A    between atoms: C_11  and  C_13
REMARK                            x       y       z     vdW  Elec       q    Type
REMARK                         _______ _______ _______ _____ _____    ______ ____
ROOT
ATOM      5  N   UNL     1      -1.377  -0.406  -0.198  0.00  0.00    -0.297 NA
ATOM      7  C   UNL     1       0.809  -0.920   0.478  0.00  0.00    +0.090 C 
ATOM      8  C   UNL     1       0.074  -0.199   1.621  0.00  0.00    +0.029 C 
ATOM      9  C   UNL     1      -0.050  -0.655  -0.766  0.00  0.00    +0.097 C 
ATOM     10  C   UNL     1      -1.135   0.453   0.961  0.00  0.00    +0.085 C 
ENDROOT
BRANCH   7  12
ATOM      1 CL   UNL     1       7.799   1.854  -0.573  0.00  0.00    -0.083 Cl
ATOM      4  O   UNL     1       3.174  -1.508   0.424  0.00  0.00    -0.439 OA
ATOM      6  N   UNL     1       2.738   0.680   0.025  0.00  0.00    -0.213 NA
ATOM     12  C   UNL     1       2.253  -0.512   0.295  0.00  0.00    +0.201 A 
ATOM     14  C   UNL     1       4.093   0.465  -0.031  0.00  0.00    +0.111 A 
ATOM     15  C   UNL     1       4.364  -0.873   0.213  0.00  0.00    +0.155 A 
ATOM     18  C   UNL     1       5.162   1.338  -0.280  0.00  0.00    +0.051 A 
ATOM     19  C   UNL     1       5.636  -1.433   0.232  0.00  0.00    +0.050 A 
ATOM     22  C   UNL     1       6.461   0.810  -0.270  0.00  0.00    +0.043 A 
ATOM     23  C   UNL     1       6.690  -0.548  -0.018  0.00  0.00    +0.024 A 
ENDBRANCH   7  12
BRANCH   5  11
ATOM     11  C   UNL     1      -2.286   0.202  -1.158  0.00  0.00    +0.119 C 
BRANCH  11  13
ATOM      2  F   UNL     1      -6.394   2.059   0.712  0.00  0.00    -0.202 F 
ATOM      3  F   UNL     1      -7.669  -0.341   0.417  0.00  0.00    -0.202 F 
ATOM     13  C   UNL     1      -3.724   0.056  -0.737  0.00  0.00    -0.030 A 
ATOM     16  C   UNL     1      -4.406   1.147  -0.197  0.00  0.00    +0.046 A 
ATOM     17  C   UNL     1      -4.375  -1.168  -0.888  0.00  0.00    +0.008 A 
ATOM     20  C   UNL     1      -5.739   1.012   0.193  0.00  0.00    +0.159 A 
ATOM     21  C   UNL     1      -5.708  -1.302  -0.498  0.00  0.00    +0.041 A 
ATOM     24  C   UNL     1      -6.390  -0.212   0.042  0.00  0.00    +0.158 A 
ENDBRANCH  11  13
ENDBRANCH   5  11
TORSDOF 3
