MODEL 1
REMARK VINA RESULT:      -6.7      0.000      0.000
REMARK  Name = 75536892
REMARK  3 active torsions:
REMARK  status: ('A' for Active; 'I' for Inactive)
REMARK    1  A    between atoms: O_2  and  C_8
REMARK    2  A    between atoms: O_2  and  C_14
REMARK    3  A    between atoms: C_13  and  C_15
REMARK                            x       y       z     vdW  Elec       q    Type
REMARK                         _______ _______ _______ _____ _____    ______ ____
ROOT
ATOM      1  O   UNL     1      12.819   7.432  21.887  0.00  0.00    -0.375 OA
ATOM      3  O   UNL     1      11.566   7.764  17.236  0.00  0.00    -0.268 OA
ATOM      4  N   UNL     1      13.307   7.585  18.794  0.00  0.00    -0.290 N 
ATOM      8  C   UNL     1      14.934   7.849  20.744  0.00  0.00    +0.216 C 
ATOM      9  C   UNL     1      14.627   8.032  19.255  0.00  0.00    +0.155 C 
ATOM     10  C   UNL     1      12.590   6.594  19.598  0.00  0.00    +0.136 C 
ATOM     11  C   UNL     1      13.839   8.398  21.655  0.00  0.00    +0.206 C 
ATOM     12  C   UNL     1      11.918   7.245  20.800  0.00  0.00    +0.179 C 
ATOM     13  C   UNL     1      12.682   8.087  17.640  0.00  0.00    +0.267 C 
ENDROOT
BRANCH  13  15
ATOM      5  N   UNL     1      13.390  10.351  17.285  0.00  0.00    -0.247 NA
ATOM      7  N   UNL     1      14.722   9.631  14.924  0.00  0.00    -0.259 NA
ATOM     15  C   UNL     1      13.405   9.082  16.833  0.00  0.00    +0.144 A 
ATOM     18  C   UNL     1      14.059   8.727  15.674  0.00  0.00    +0.143 A 
ATOM     20  C   UNL     1      14.054  11.254  16.536  0.00  0.00    +0.131 A 
ATOM     22  C   UNL     1      14.708  10.900  15.376  0.00  0.00    +0.130 A 
ENDBRANCH  13  15
BRANCH   8   2
ATOM      2  O   UNL     1      16.150   8.551  21.004  0.00  0.00    -0.483 OA
BRANCH   2  14
ATOM      6  N   UNL     1      19.672   7.635  21.357  0.00  0.00    -0.260 NA
ATOM     14  C   UNL     1      17.307   7.830  20.892  0.00  0.00    +0.139 A 
ATOM     16  C   UNL     1      17.329   6.608  20.230  0.00  0.00    +0.049 A 
ATOM     17  C   UNL     1      18.495   8.296  21.433  0.00  0.00    +0.156 A 
ATOM     19  C   UNL     1      18.521   5.898  20.130  0.00  0.00    +0.023 A 
ATOM     21  C   UNL     1      19.654   6.451  20.706  0.00  0.00    +0.111 A 
ENDBRANCH   2  14
ENDBRANCH   8   2
TORSDOF 3
ENDMDL
MODEL 2
REMARK VINA RESULT:      -6.3      3.479      5.071
REMARK  Name = 75536892
REMARK  3 active torsions:
REMARK  status: ('A' for Active; 'I' for Inactive)
REMARK    1  A    between atoms: O_2  and  C_8
REMARK    2  A    between atoms: O_2  and  C_14
REMARK    3  A    between atoms: C_13  and  C_15
REMARK                            x       y       z     vdW  Elec       q    Type
REMARK                         _______ _______ _______ _____ _____    ______ ____
ROOT
ATOM      1  O   UNL     1      11.559   7.218  20.478  0.00  0.00    -0.375 OA
ATOM      3  O   UNL     1      11.155  11.912  21.535  0.00  0.00    -0.268 OA
ATOM      4  N   UNL     1      12.591  10.110  21.110  0.00  0.00    -0.290 N 
ATOM      8  C   UNL     1      13.833   7.879  21.063  0.00  0.00    +0.216 C 
ATOM      9  C   UNL     1      13.795   9.353  21.477  0.00  0.00    +0.155 C 
ATOM     10  C   UNL     1      11.767   9.612  20.007  0.00  0.00    +0.136 C 
ATOM     11  C   UNL     1      12.578   7.109  21.466  0.00  0.00    +0.206 C 
ATOM     12  C   UNL     1      10.873   8.466  20.464  0.00  0.00    +0.179 C 
ATOM     13  C   UNL     1      12.171  11.266  21.787  0.00  0.00    +0.267 C 
ENDROOT
BRANCH  13  15
ATOM      5  N   UNL     1      12.617  11.423  24.140  0.00  0.00    -0.247 NA
ATOM      7  N   UNL     1      14.879  13.013  23.670  0.00  0.00    -0.259 NA
ATOM     15  C   UNL     1      13.001  11.766  22.895  0.00  0.00    +0.144 A 
ATOM     18  C   UNL     1      14.112  12.547  22.663  0.00  0.00    +0.143 A 
ATOM     20  C   UNL     1      13.383  11.888  25.146  0.00  0.00    +0.131 A 
ATOM     22  C   UNL     1      14.494  12.670  24.915  0.00  0.00    +0.130 A 
ENDBRANCH  13  15
BRANCH   8   2
ATOM      2  O   UNL     1      14.965   7.298  21.713  0.00  0.00    -0.483 OA
BRANCH   2  14
ATOM      6  N   UNL     1      16.581   5.845  18.773  0.00  0.00    -0.260 NA
ATOM     14  C   UNL     1      15.947   6.803  20.901  0.00  0.00    +0.139 A 
ATOM     16  C   UNL     1      17.267   6.737  21.332  0.00  0.00    +0.049 A 
ATOM     17  C   UNL     1      15.659   6.348  19.624  0.00  0.00    +0.156 A 
ATOM     19  C   UNL     1      18.245   6.226  20.485  0.00  0.00    +0.023 A 
ATOM     21  C   UNL     1      17.853   5.797  19.227  0.00  0.00    +0.111 A 
ENDBRANCH   2  14
ENDBRANCH   8   2
TORSDOF 3
ENDMDL
MODEL 3
REMARK VINA RESULT:      -6.3      3.660      5.769
REMARK  Name = 75536892
REMARK  3 active torsions:
REMARK  status: ('A' for Active; 'I' for Inactive)
REMARK    1  A    between atoms: O_2  and  C_8
REMARK    2  A    between atoms: O_2  and  C_14
REMARK    3  A    between atoms: C_13  and  C_15
REMARK                            x       y       z     vdW  Elec       q    Type
REMARK                         _______ _______ _______ _____ _____    ______ ____
ROOT
ATOM      1  O   UNL     1      10.899   7.521  22.339  0.00  0.00    -0.375 OA
ATOM      3  O   UNL     1      14.204   6.823  18.889  0.00  0.00    -0.268 OA
ATOM      4  N   UNL     1      13.233   8.322  20.405  0.00  0.00    -0.290 N 
ATOM      8  C   UNL     1      11.670   9.774  21.809  0.00  0.00    +0.216 C 
ATOM      9  C   UNL     1      12.687   9.660  20.670  0.00  0.00    +0.155 C 
ATOM     10  C   UNL     1      13.183   7.327  21.477  0.00  0.00    +0.136 C 
ATOM     11  C   UNL     1      10.543   8.750  21.713  0.00  0.00    +0.206 C 
ATOM     12  C   UNL     1      11.795   6.708  21.588  0.00  0.00    +0.179 C 
ATOM     13  C   UNL     1      13.767   7.940  19.164  0.00  0.00    +0.267 C 
ENDROOT
BRANCH  13  15
ATOM      5  N   UNL     1      14.707   9.942  18.235  0.00  0.00    -0.247 NA
ATOM      7  N   UNL     1      13.026   9.768  15.996  0.00  0.00    -0.259 NA
ATOM     15  C   UNL     1      13.817   8.942  18.087  0.00  0.00    +0.144 A 
ATOM     18  C   UNL     1      12.991   8.855  16.988  0.00  0.00    +0.143 A 
ATOM     20  C   UNL     1      14.743  10.854  17.243  0.00  0.00    +0.131 A 
ATOM     22  C   UNL     1      13.916  10.769  16.144  0.00  0.00    +0.130 A 
ENDBRANCH  13  15
BRANCH   8   2
ATOM      2  O   UNL     1      11.114  11.087  21.734  0.00  0.00    -0.483 OA
BRANCH   2  14
ATOM      6  N   UNL     1      10.917  11.668  25.338  0.00  0.00    -0.260 NA
ATOM     14  C   UNL     1      10.924  11.739  22.921  0.00  0.00    +0.139 A 
ATOM     16  C   UNL     1      10.555  13.079  22.952  0.00  0.00    +0.049 A 
ATOM     17  C   UNL     1      11.091  11.084  24.131  0.00  0.00    +0.156 A 
ATOM     19  C   UNL     1      10.368  13.715  24.175  0.00  0.00    +0.023 A 
ATOM     21  C   UNL     1      10.559  12.971  25.328  0.00  0.00    +0.111 A 
ENDBRANCH   2  14
ENDBRANCH   8   2
TORSDOF 3
ENDMDL
MODEL 4
REMARK VINA RESULT:      -6.0      3.365      5.833
REMARK  Name = 75536892
REMARK  3 active torsions:
REMARK  status: ('A' for Active; 'I' for Inactive)
REMARK    1  A    between atoms: O_2  and  C_8
REMARK    2  A    between atoms: O_2  and  C_14
REMARK    3  A    between atoms: C_13  and  C_15
REMARK                            x       y       z     vdW  Elec       q    Type
REMARK                         _______ _______ _______ _____ _____    ______ ____
ROOT
ATOM      1  O   UNL     1      11.993   6.266  20.530  0.00  0.00    -0.375 OA
ATOM      3  O   UNL     1      10.587  10.081  23.134  0.00  0.00    -0.268 OA
ATOM      4  N   UNL     1      11.554   9.309  21.145  0.00  0.00    -0.290 N 
ATOM      8  C   UNL     1      12.960   8.167  19.344  0.00  0.00    +0.216 C 
ATOM      9  C   UNL     1      12.616   9.431  20.138  0.00  0.00    +0.155 C 
ATOM     10  C   UNL     1      10.591   8.215  21.009  0.00  0.00    +0.136 C 
ATOM     11  C   UNL     1      13.207   6.949  20.231  0.00  0.00    +0.206 C 
ATOM     12  C   UNL     1      11.178   6.901  21.509  0.00  0.00    +0.179 C 
ATOM     13  C   UNL     1      11.439  10.166  22.251  0.00  0.00    +0.267 C 
ENDROOT
BRANCH  13  15
ATOM      5  N   UNL     1      12.101  12.420  21.763  0.00  0.00    -0.247 NA
ATOM      7  N   UNL     1      14.466  12.113  23.240  0.00  0.00    -0.259 NA
ATOM     15  C   UNL     1      12.408  11.266  22.386  0.00  0.00    +0.144 A 
ATOM     18  C   UNL     1      13.569  11.114  23.112  0.00  0.00    +0.143 A 
ATOM     20  C   UNL     1      12.997  13.418  21.892  0.00  0.00    +0.131 A 
ATOM     22  C   UNL     1      14.158  13.267  22.617  0.00  0.00    +0.130 A 
ENDBRANCH  13  15
BRANCH   8   2
ATOM      2  O   UNL     1      14.149   8.454  18.607  0.00  0.00    -0.483 OA
BRANCH   2  14
ATOM      6  N   UNL     1      12.956   9.615  15.352  0.00  0.00    -0.260 NA
ATOM     14  C   UNL     1      14.005   9.242  17.499  0.00  0.00    +0.139 A 
ATOM     16  C   UNL     1      14.720  10.426  17.363  0.00  0.00    +0.049 A 
ATOM     17  C   UNL     1      13.143   8.884  16.474  0.00  0.00    +0.156 A 
ATOM     19  C   UNL     1      14.554  11.206  16.224  0.00  0.00    +0.023 A 
ATOM     21  C   UNL     1      13.668  10.760  15.256  0.00  0.00    +0.111 A 
ENDBRANCH   2  14
ENDBRANCH   8   2
TORSDOF 3
ENDMDL
MODEL 5
REMARK VINA RESULT:      -5.7      4.014      5.722
REMARK  Name = 75536892
REMARK  3 active torsions:
REMARK  status: ('A' for Active; 'I' for Inactive)
REMARK    1  A    between atoms: O_2  and  C_8
REMARK    2  A    between atoms: O_2  and  C_14
REMARK    3  A    between atoms: C_13  and  C_15
REMARK                            x       y       z     vdW  Elec       q    Type
REMARK                         _______ _______ _______ _____ _____    ______ ____
ROOT
ATOM      1  O   UNL     1      10.947   9.681  23.000  0.00  0.00    -0.375 OA
ATOM      3  O   UNL     1      12.064   6.492  19.551  0.00  0.00    -0.268 OA
ATOM      4  N   UNL     1      12.507   8.582  20.513  0.00  0.00    -0.290 N 
ATOM      8  C   UNL     1      12.409  10.934  21.501  0.00  0.00    +0.216 C 
ATOM      9  C   UNL     1      12.769  10.015  20.330  0.00  0.00    +0.155 C 
ATOM     10  C   UNL     1      12.403   8.063  21.878  0.00  0.00    +0.136 C 
ATOM     11  C   UNL     1      10.990  10.715  22.022  0.00  0.00    +0.206 C 
ATOM     12  C   UNL     1      11.033   8.360  22.474  0.00  0.00    +0.179 C 
ATOM     13  C   UNL     1      12.316   7.691  19.444  0.00  0.00    +0.267 C 
ENDROOT
BRANCH  13  15
ATOM      5  N   UNL     1      13.667   8.423  17.602  0.00  0.00    -0.247 NA
ATOM      7  N   UNL     1      11.386   8.956  16.058  0.00  0.00    -0.259 NA
ATOM     15  C   UNL     1      12.422   8.214  18.072  0.00  0.00    +0.144 A 
ATOM     18  C   UNL     1      11.302   8.474  17.316  0.00  0.00    +0.143 A 
ATOM     20  C   UNL     1      13.752   8.904  16.345  0.00  0.00    +0.131 A 
ATOM     22  C   UNL     1      12.631   9.166  15.588  0.00  0.00    +0.130 A 
ENDBRANCH  13  15
BRANCH   8   2
ATOM      2  O   UNL     1      12.527  12.275  21.023  0.00  0.00    -0.483 OA
BRANCH   2  14
ATOM      6  N   UNL     1      13.430  14.236  23.974  0.00  0.00    -0.260 NA
ATOM     14  C   UNL     1      12.495  13.265  21.967  0.00  0.00    +0.139 A 
ATOM     16  C   UNL     1      11.543  14.277  21.912  0.00  0.00    +0.049 A 
ATOM     17  C   UNL     1      13.408  13.289  23.009  0.00  0.00    +0.156 A 
ATOM     19  C   UNL     1      11.534  15.269  22.886  0.00  0.00    +0.023 A 
ATOM     21  C   UNL     1      12.491  15.203  23.887  0.00  0.00    +0.111 A 
ENDBRANCH   2  14
ENDBRANCH   8   2
TORSDOF 3
ENDMDL
MODEL 6
REMARK VINA RESULT:      -5.7     26.394     29.366
REMARK  Name = 75536892
REMARK  3 active torsions:
REMARK  status: ('A' for Active; 'I' for Inactive)
REMARK    1  A    between atoms: O_2  and  C_8
REMARK    2  A    between atoms: O_2  and  C_14
REMARK    3  A    between atoms: C_13  and  C_15
REMARK                            x       y       z     vdW  Elec       q    Type
REMARK                         _______ _______ _______ _____ _____    ______ ____
ROOT
ATOM      1  O   UNL     1      -8.636 -11.123  19.055  0.00  0.00    -0.375 OA
ATOM      3  O   UNL     1      -3.884 -11.971  18.934  0.00  0.00    -0.268 OA
ATOM      4  N   UNL     1      -5.669 -10.671  18.149  0.00  0.00    -0.290 N 
ATOM      8  C   UNL     1      -7.855  -9.781  17.174  0.00  0.00    +0.216 C 
ATOM      9  C   UNL     1      -6.353 -10.035  17.016  0.00  0.00    +0.155 C 
ATOM     10  C   UNL     1      -6.286 -10.578  19.473  0.00  0.00    +0.136 C 
ATOM     11  C   UNL     1      -8.627 -11.014  17.636  0.00  0.00    +0.206 C 
ATOM     12  C   UNL     1      -7.416 -11.588  19.625  0.00  0.00    +0.179 C 
ATOM     13  C   UNL     1      -4.473 -11.396  18.019  0.00  0.00    +0.267 C 
ENDROOT
BRANCH  13  15
ATOM      5  N   UNL     1      -2.885 -10.594  16.410  0.00  0.00    -0.247 NA
ATOM      7  N   UNL     1      -3.693 -12.533  14.552  0.00  0.00    -0.259 NA
ATOM     15  C   UNL     1      -3.854 -11.488  16.687  0.00  0.00    +0.144 A 
ATOM     18  C   UNL     1      -4.251 -12.440  15.776  0.00  0.00    +0.143 A 
ATOM     20  C   UNL     1      -2.327 -10.687  15.187  0.00  0.00    +0.131 A 
ATOM     22  C   UNL     1      -2.724 -11.639  14.274  0.00  0.00    +0.130 A 
ENDBRANCH  13  15
BRANCH   8   2
ATOM      2  O   UNL     1      -8.341  -9.380  15.892  0.00  0.00    -0.483 OA
BRANCH   2  14
ATOM      6  N   UNL     1     -11.731  -8.454  14.884  0.00  0.00    -0.260 NA
ATOM     14  C   UNL     1      -9.541  -8.724  15.873  0.00  0.00    +0.139 A 
ATOM     16  C   UNL     1      -9.811  -7.695  16.768  0.00  0.00    +0.049 A 
ATOM     17  C   UNL     1     -10.526  -9.062  14.958  0.00  0.00    +0.156 A 
ATOM     19  C   UNL     1     -11.040  -7.046  16.723  0.00  0.00    +0.023 A 
ATOM     21  C   UNL     1     -11.957  -7.460  15.770  0.00  0.00    +0.111 A 
ENDBRANCH   2  14
ENDBRANCH   8   2
TORSDOF 3
ENDMDL
MODEL 7
REMARK VINA RESULT:      -5.6     26.285     28.864
REMARK  Name = 75536892
REMARK  3 active torsions:
REMARK  status: ('A' for Active; 'I' for Inactive)
REMARK    1  A    between atoms: O_2  and  C_8
REMARK    2  A    between atoms: O_2  and  C_14
REMARK    3  A    between atoms: C_13  and  C_15
REMARK                            x       y       z     vdW  Elec       q    Type
REMARK                         _______ _______ _______ _____ _____    ______ ____
ROOT
ATOM      1  O   UNL     1      -1.824 -10.088  13.308  0.00  0.00    -0.375 OA
ATOM      3  O   UNL     1      -2.718 -14.599  11.840  0.00  0.00    -0.268 OA
ATOM      4  N   UNL     1      -3.226 -12.891  13.361  0.00  0.00    -0.290 N 
ATOM      8  C   UNL     1      -3.195 -11.020  15.098  0.00  0.00    +0.216 C 
ATOM      9  C   UNL     1      -3.481 -12.483  14.748  0.00  0.00    +0.155 C 
ATOM     10  C   UNL     1      -3.203 -11.856  12.326  0.00  0.00    +0.136 C 
ATOM     11  C   UNL     1      -1.811 -10.555  14.653  0.00  0.00    +0.206 C 
ATOM     12  C   UNL     1      -1.873 -11.113  12.322  0.00  0.00    +0.179 C 
ATOM     13  C   UNL     1      -2.968 -14.218  12.983  0.00  0.00    +0.267 C 
ENDROOT
BRANCH  13  15
ATOM      5  N   UNL     1      -4.206 -15.643  14.464  0.00  0.00    -0.247 NA
ATOM      7  N   UNL     1      -1.838 -16.754  15.477  0.00  0.00    -0.259 NA
ATOM     15  C   UNL     1      -2.992 -15.258  14.024  0.00  0.00    +0.144 A 
ATOM     18  C   UNL     1      -1.829 -15.803  14.521  0.00  0.00    +0.143 A 
ATOM     20  C   UNL     1      -4.215 -16.594  15.419  0.00  0.00    +0.131 A 
ATOM     22  C   UNL     1      -3.052 -17.139  15.917  0.00  0.00    +0.130 A 
ENDBRANCH  13  15
BRANCH   8   2
ATOM      2  O   UNL     1      -3.288 -10.910  16.519  0.00  0.00    -0.483 OA
BRANCH   2  14
ATOM      6  N   UNL     1      -6.644  -9.484  16.783  0.00  0.00    -0.260 NA
ATOM     14  C   UNL     1      -4.523 -10.618  17.030  0.00  0.00    +0.139 A 
ATOM     16  C   UNL     1      -4.925 -11.119  18.263  0.00  0.00    +0.049 A 
ATOM     17  C   UNL     1      -5.412  -9.812  16.336  0.00  0.00    +0.156 A 
ATOM     19  C   UNL     1      -6.186 -10.804  18.757  0.00  0.00    +0.023 A 
ATOM     21  C   UNL     1      -7.000  -9.989  17.985  0.00  0.00    +0.111 A 
ENDBRANCH   2  14
ENDBRANCH   8   2
TORSDOF 3
ENDMDL
MODEL 8
REMARK VINA RESULT:      -5.6     13.214     16.370
REMARK  Name = 75536892
REMARK  3 active torsions:
REMARK  status: ('A' for Active; 'I' for Inactive)
REMARK    1  A    between atoms: O_2  and  C_8
REMARK    2  A    between atoms: O_2  and  C_14
REMARK    3  A    between atoms: C_13  and  C_15
REMARK                            x       y       z     vdW  Elec       q    Type
REMARK                         _______ _______ _______ _____ _____    ______ ____
ROOT
ATOM      1  O   UNL     1       8.284   5.737   5.444  0.00  0.00    -0.375 OA
ATOM      3  O   UNL     1      11.120   9.600   6.033  0.00  0.00    -0.268 OA
ATOM      4  N   UNL     1      10.693   7.642   4.818  0.00  0.00    -0.290 N 
ATOM      8  C   UNL     1      10.214   5.262   4.030  0.00  0.00    +0.216 C 
ATOM      9  C   UNL     1      11.208   6.414   4.200  0.00  0.00    +0.155 C 
ATOM     10  C   UNL     1       9.250   7.887   4.781  0.00  0.00    +0.136 C 
ATOM     11  C   UNL     1       9.450   4.932   5.310  0.00  0.00    +0.206 C 
ATOM     12  C   UNL     1       8.529   7.079   5.853  0.00  0.00    +0.179 C 
ATOM     13  C   UNL     1      11.511   8.576   5.475  0.00  0.00    +0.267 C 
ENDROOT
BRANCH  13  15
ATOM      5  N   UNL     1      13.680   8.803   4.474  0.00  0.00    -0.247 NA
ATOM      7  N   UNL     1      14.875   7.411   6.595  0.00  0.00    -0.259 NA
ATOM     15  C   UNL     1      12.962   8.329   5.511  0.00  0.00    +0.144 A 
ATOM     18  C   UNL     1      13.548   7.646   6.553  0.00  0.00    +0.143 A 
ATOM     20  C   UNL     1      15.007   8.570   4.517  0.00  0.00    +0.131 A 
ATOM     22  C   UNL     1      15.593   7.885   5.559  0.00  0.00    +0.130 A 
ENDBRANCH  13  15
BRANCH   8   2
ATOM      2  O   UNL     1      10.972   4.118   3.633  0.00  0.00    -0.483 OA
BRANCH   2  14
ATOM      6  N   UNL     1      10.498   4.185   0.009  0.00  0.00    -0.260 NA
ATOM     14  C   UNL     1      11.251   4.003   2.300  0.00  0.00    +0.139 A 
ATOM     16  C   UNL     1      12.508   3.601   1.862  0.00  0.00    +0.049 A 
ATOM     17  C   UNL     1      10.289   4.280   1.341  0.00  0.00    +0.156 A 
ATOM     19  C   UNL     1      12.762   3.491   0.499  0.00  0.00    +0.023 A 
ATOM     21  C   UNL     1      11.732   3.791  -0.378  0.00  0.00    +0.111 A 
ENDBRANCH   2  14
ENDBRANCH   8   2
TORSDOF 3
ENDMDL
MODEL 9
REMARK VINA RESULT:      -5.5     26.545     29.059
REMARK  Name = 75536892
REMARK  3 active torsions:
REMARK  status: ('A' for Active; 'I' for Inactive)
REMARK    1  A    between atoms: O_2  and  C_8
REMARK    2  A    between atoms: O_2  and  C_14
REMARK    3  A    between atoms: C_13  and  C_15
REMARK                            x       y       z     vdW  Elec       q    Type
REMARK                         _______ _______ _______ _____ _____    ______ ____
ROOT
ATOM      1  O   UNL     1      -5.859 -11.944  19.563  0.00  0.00    -0.375 OA
ATOM      3  O   UNL     1     -10.473 -11.339  18.278  0.00  0.00    -0.268 OA
ATOM      4  N   UNL     1      -8.232 -11.376  17.595  0.00  0.00    -0.290 N 
ATOM      8  C   UNL     1      -5.718 -11.040  17.301  0.00  0.00    +0.216 C 
ATOM      9  C   UNL     1      -7.146 -10.755  16.827  0.00  0.00    +0.155 C 
ATOM     10  C   UNL     1      -7.925 -12.558  18.402  0.00  0.00    +0.136 C 
ATOM     11  C   UNL     1      -5.520 -10.794  18.794  0.00  0.00    +0.206 C 
ATOM     12  C   UNL     1      -7.257 -12.169  19.714  0.00  0.00    +0.179 C 
ATOM     13  C   UNL     1      -9.542 -10.871  17.625  0.00  0.00    +0.267 C 
ENDROOT
BRANCH  13  15
ATOM      5  N   UNL     1     -10.180  -9.900  15.525  0.00  0.00    -0.247 NA
ATOM      7  N   UNL     1     -10.078  -7.318  16.615  0.00  0.00    -0.259 NA
ATOM     15  C   UNL     1      -9.850  -9.682  16.813  0.00  0.00    +0.144 A 
ATOM     18  C   UNL     1      -9.800  -8.415  17.349  0.00  0.00    +0.143 A 
ATOM     20  C   UNL     1     -10.458  -8.804  14.791  0.00  0.00    +0.131 A 
ATOM     22  C   UNL     1     -10.407  -7.536  15.327  0.00  0.00    +0.130 A 
ENDBRANCH  13  15
BRANCH   8   2
ATOM      2  O   UNL     1      -4.858 -10.167  16.567  0.00  0.00    -0.483 OA
BRANCH   2  14
ATOM      6  N   UNL     1      -3.090 -12.266  14.152  0.00  0.00    -0.260 NA
ATOM     14  C   UNL     1      -3.826 -10.754  15.890  0.00  0.00    +0.139 A 
ATOM     16  C   UNL     1      -2.503 -10.473  16.215  0.00  0.00    +0.049 A 
ATOM     17  C   UNL     1      -4.063 -11.650  14.860  0.00  0.00    +0.156 A 
ATOM     19  C   UNL     1      -1.474 -11.086  15.509  0.00  0.00    +0.023 A 
ATOM     21  C   UNL     1      -1.818 -11.967  14.496  0.00  0.00    +0.111 A 
ENDBRANCH   2  14
ENDBRANCH   8   2
TORSDOF 3
ENDMDL
MODEL 10
REMARK VINA RESULT:      -5.4      3.538      4.840
REMARK  Name = 75536892
REMARK  3 active torsions:
REMARK  status: ('A' for Active; 'I' for Inactive)
REMARK    1  A    between atoms: O_2  and  C_8
REMARK    2  A    between atoms: O_2  and  C_14
REMARK    3  A    between atoms: C_13  and  C_15
REMARK                            x       y       z     vdW  Elec       q    Type
REMARK                         _______ _______ _______ _____ _____    ______ ____
ROOT
ATOM      1  O   UNL     1      11.834   7.787  19.188  0.00  0.00    -0.375 OA
ATOM      3  O   UNL     1      14.388   8.187  15.111  0.00  0.00    -0.268 OA
ATOM      4  N   UNL     1      13.933   9.058  17.238  0.00  0.00    -0.290 N 
ATOM      8  C   UNL     1      12.878   9.984  19.371  0.00  0.00    +0.216 C 
ATOM      9  C   UNL     1      13.668  10.230  18.082  0.00  0.00    +0.155 C 
ATOM     10  C   UNL     1      13.887   7.732  17.857  0.00  0.00    +0.136 C 
ATOM     11  C   UNL     1      11.594   9.189  19.146  0.00  0.00    +0.206 C 
ATOM     12  C   UNL     1      12.451   7.252  18.021  0.00  0.00    +0.179 C 
ATOM     13  C   UNL     1      14.193   9.143  15.860  0.00  0.00    +0.267 C 
ENDROOT
BRANCH  13  15
ATOM      5  N   UNL     1      13.141  10.866  14.564  0.00  0.00    -0.247 NA
ATOM      7  N   UNL     1      15.409  12.502  14.782  0.00  0.00    -0.259 NA
ATOM     15  C   UNL     1      14.239  10.477  15.240  0.00  0.00    +0.144 A 
ATOM     18  C   UNL     1      15.353  11.279  15.348  0.00  0.00    +0.143 A 
ATOM     20  C   UNL     1      13.196  12.089  13.999  0.00  0.00    +0.131 A 
ATOM     22  C   UNL     1      14.311  12.892  14.106  0.00  0.00    +0.130 A 
ENDBRANCH  13  15
BRANCH   8   2
ATOM      2  O   UNL     1      12.544  11.268  19.900  0.00  0.00    -0.483 OA
BRANCH   2  14
ATOM      6  N   UNL     1      13.575  11.054  23.401  0.00  0.00    -0.260 NA
ATOM     14  C   UNL     1      12.492  11.372  21.263  0.00  0.00    +0.139 A 
ATOM     16  C   UNL     1      11.363  11.872  21.901  0.00  0.00    +0.049 A 
ATOM     17  C   UNL     1      13.562  10.980  22.052  0.00  0.00    +0.156 A 
ATOM     19  C   UNL     1      11.338  11.965  23.289  0.00  0.00    +0.023 A 
ATOM     21  C   UNL     1      12.460  11.546  23.986  0.00  0.00    +0.111 A 
ENDBRANCH   2  14
ENDBRANCH   8   2
TORSDOF 3
ENDMDL
