MODEL 1
REMARK VINA RESULT:      -6.7      0.000      0.000
REMARK  Name = 11867047
REMARK  14 active torsions:
REMARK  status: ('A' for Active; 'I' for Inactive)
REMARK    1  A    between atoms: O_2  and  C_14
REMARK    2  A    between atoms: O_3  and  C_19
REMARK    3  A    between atoms: N_7  and  C_25
REMARK    4  A    between atoms: C_9  and  C_17
REMARK    5  A    between atoms: C_11  and  C_19
REMARK    6  A    between atoms: C_11  and  C_20
REMARK    7  A    between atoms: C_12  and  C_22
REMARK    8  A    between atoms: C_22  and  C_23
REMARK    9  A    between atoms: C_25  and  C_28
REMARK   10  A    between atoms: C_26  and  C_27
REMARK   11  A    between atoms: C_27  and  C_29
REMARK   12  A    between atoms: C_29  and  C_32
REMARK   13  A    between atoms: C_29  and  C_33
REMARK   14  A    between atoms: C_29  and  C_34
REMARK                            x       y       z     vdW  Elec       q    Type
REMARK                         _______ _______ _______ _____ _____    ______ ____
ROOT
ATOM      1  S   UNL     1      18.095   6.861  20.670  0.00  0.00    -0.057 S 
ATOM      5  O   UNL     1      20.462   9.689  23.520  0.00  0.00    -0.275 OA
ATOM      6  N   UNL     1      17.985   9.069  22.014  0.00  0.00    -0.229 NA
ATOM      8  N   UNL     1      20.041   7.817  22.146  0.00  0.00    -0.265 N 
ATOM      9  C   UNL     1      14.554   9.736  20.385  0.00  0.00    -0.019 C 
ATOM     10  C   UNL     1      14.217   8.184  20.275  0.00  0.00    +0.011 C 
ATOM     11  C   UNL     1      12.884   7.792  19.527  0.00  0.00    +0.021 C 
ATOM     12  C   UNL     1      15.662   9.920  21.522  0.00  0.00    +0.054 C 
ATOM     13  C   UNL     1      13.281  10.511  20.813  0.00  0.00    +0.010 C 
ATOM     14  C   UNL     1      11.725   8.692  20.041  0.00  0.00    +0.123 C 
ATOM     15  C   UNL     1      15.457   7.363  19.817  0.00  0.00    +0.049 C 
ATOM     16  C   UNL     1      12.050  10.181  19.982  0.00  0.00    +0.032 C 
ATOM     17  C   UNL     1      15.077  10.333  19.056  0.00  0.00    +0.012 C 
ATOM     18  C   UNL     1      16.775   8.917  21.361  0.00  0.00    +0.058 A 
ATOM     20  C   UNL     1      12.518   6.322  19.879  0.00  0.00    +0.016 C 
ATOM     21  C   UNL     1      16.656   7.768  20.607  0.00  0.00    +0.015 A 
ATOM     24  C   UNL     1      18.761   8.049  21.717  0.00  0.00    +0.165 A 
ATOM     26  C   UNL     1      20.804   8.629  23.002  0.00  0.00    +0.219 C 
ATOM     41  H   UNL     1      20.461   6.963  21.791  0.00  0.00    +0.157 HD
ENDROOT
BRANCH  14   2
ATOM      2  O   UNL     1      10.534   8.453  19.292  0.00  0.00    -0.391 OA
ATOM     38  H   UNL     1       9.880   8.057  19.895  0.00  0.00    +0.210 HD
ENDBRANCH  14   2
BRANCH  11  19
ATOM     19  C   UNL     1      12.977   7.839  17.986  0.00  0.00    +0.165 C 
BRANCH  19   3
ATOM      3  O   UNL     1      12.010   6.954  17.468  0.00  0.00    -0.394 OA
ATOM     39  H   UNL     1      11.311   6.864  18.137  0.00  0.00    +0.209 HD
ENDBRANCH  19   3
ENDBRANCH  11  19
BRANCH  12  22
ATOM     22  C   UNL     1      16.207  11.349  21.656  0.00  0.00    +0.106 C 
BRANCH  22  23
ATOM      4  O   UNL     1      15.928  13.199  23.191  0.00  0.00    -0.276 OA
ATOM      7  N   UNL     1      15.107  11.101  23.761  0.00  0.00    -0.311 N 
ATOM     23  C   UNL     1      15.748  12.012  22.934  0.00  0.00    +0.214 C 
ATOM     40  H   UNL     1      15.026  10.133  23.464  0.00  0.00    +0.149 HD
BRANCH   7  25
ATOM     25  C   UNL     1      14.565  11.454  25.053  0.00  0.00    +0.139 C 
BRANCH  25  28
ATOM     28  C   UNL     1      13.157  11.968  24.951  0.00  0.00    -0.030 A 
ATOM     30  C   UNL     1      12.778  13.105  25.664  0.00  0.00    +0.005 A 
ATOM     31  C   UNL     1      12.231  11.308  24.143  0.00  0.00    +0.005 A 
ATOM     35  C   UNL     1      11.470  13.583  25.569  0.00  0.00    +0.000 A 
ATOM     36  C   UNL     1      10.924  11.786  24.048  0.00  0.00    +0.000 A 
ATOM     37  C   UNL     1      10.544  12.923  24.762  0.00  0.00    +0.000 A 
ENDBRANCH  25  28
ENDBRANCH   7  25
ENDBRANCH  22  23
ENDBRANCH  12  22
BRANCH  26  27
ATOM     27  C   UNL     1      22.195   8.064  23.262  0.00  0.00    +0.102 C 
BRANCH  27  29
ATOM     29  C   UNL     1      22.245   6.915  24.297  0.00  0.00    -0.029 C 
ATOM     32  C   UNL     1      21.027   6.945  25.234  0.00  0.00    +0.011 C 
ATOM     33  C   UNL     1      23.519   7.095  25.148  0.00  0.00    +0.011 C 
ATOM     34  C   UNL     1      22.316   5.545  23.601  0.00  0.00    +0.011 C 
ENDBRANCH  27  29
ENDBRANCH  26  27
TORSDOF 9
ENDMDL
MODEL 2
REMARK VINA RESULT:      -6.6     25.351     28.948
REMARK  Name = 11867047
REMARK  14 active torsions:
REMARK  status: ('A' for Active; 'I' for Inactive)
REMARK    1  A    between atoms: O_2  and  C_14
REMARK    2  A    between atoms: O_3  and  C_19
REMARK    3  A    between atoms: N_7  and  C_25
REMARK    4  A    between atoms: C_9  and  C_17
REMARK    5  A    between atoms: C_11  and  C_19
REMARK    6  A    between atoms: C_11  and  C_20
REMARK    7  A    between atoms: C_12  and  C_22
REMARK    8  A    between atoms: C_22  and  C_23
REMARK    9  A    between atoms: C_25  and  C_28
REMARK   10  A    between atoms: C_26  and  C_27
REMARK   11  A    between atoms: C_27  and  C_29
REMARK   12  A    between atoms: C_29  and  C_32
REMARK   13  A    between atoms: C_29  and  C_33
REMARK   14  A    between atoms: C_29  and  C_34
REMARK                            x       y       z     vdW  Elec       q    Type
REMARK                         _______ _______ _______ _____ _____    ______ ____
ROOT
ATOM      1  S   UNL     1      21.141  -5.197   0.602  0.00  0.00    -0.057 S 
ATOM      5  O   UNL     1      18.419  -6.418  -2.978  0.00  0.00    -0.275 OA
ATOM      6  N   UNL     1      19.828  -7.149  -0.475  0.00  0.00    -0.229 NA
ATOM      8  N   UNL     1      19.748  -5.026  -1.614  0.00  0.00    -0.265 N 
ATOM      9  C   UNL     1      21.347  -9.474   2.201  0.00  0.00    -0.019 C 
ATOM     10  C   UNL     1      21.421  -8.308   3.284  0.00  0.00    +0.011 C 
ATOM     11  C   UNL     1      22.116  -8.651   4.658  0.00  0.00    +0.021 C 
ATOM     12  C   UNL     1      20.252  -9.064   1.111  0.00  0.00    +0.054 C 
ATOM     13  C   UNL     1      20.886 -10.786   2.887  0.00  0.00    +0.010 C 
ATOM     14  C   UNL     1      21.577 -10.013   5.179  0.00  0.00    +0.123 C 
ATOM     15  C   UNL     1      21.909  -6.973   2.650  0.00  0.00    +0.049 C 
ATOM     16  C   UNL     1      21.669 -11.130   4.146  0.00  0.00    +0.032 C 
ATOM     17  C   UNL     1      22.702  -9.728   1.498  0.00  0.00    +0.012 C 
ATOM     18  C   UNL     1      20.436  -7.635   0.669  0.00  0.00    +0.058 A 
ATOM     20  C   UNL     1      21.730  -7.569   5.706  0.00  0.00    +0.016 C 
ATOM     21  C   UNL     1      21.168  -6.709   1.383  0.00  0.00    +0.015 A 
ATOM     24  C   UNL     1      20.136  -5.878  -0.614  0.00  0.00    +0.165 A 
ATOM     26  C   UNL     1      18.932  -5.333  -2.715  0.00  0.00    +0.219 C 
ATOM     41  H   UNL     1      20.105  -4.078  -1.529  0.00  0.00    +0.157 HD
ENDROOT
BRANCH  14   2
ATOM      2  O   UNL     1      22.280 -10.415   6.354  0.00  0.00    -0.391 OA
ATOM     38  H   UNL     1      22.997  -9.775   6.503  0.00  0.00    +0.210 HD
ENDBRANCH  14   2
BRANCH  11  19
ATOM     19  C   UNL     1      23.661  -8.651   4.611  0.00  0.00    +0.165 C 
BRANCH  19   3
ATOM      3  O   UNL     1      24.131  -8.297   5.892  0.00  0.00    -0.394 OA
ATOM     39  H   UNL     1      24.403  -7.364   5.854  0.00  0.00    +0.209 HD
ENDBRANCH  19   3
ENDBRANCH  11  19
BRANCH  12  22
ATOM     22  C   UNL     1      20.158 -10.017  -0.088  0.00  0.00    +0.106 C 
BRANCH  22  23
ATOM      4  O   UNL     1      18.099  -9.835  -1.346  0.00  0.00    -0.276 OA
ATOM      7  N   UNL     1      18.231 -11.330   0.428  0.00  0.00    -0.311 N 
ATOM     23  C   UNL     1      18.727 -10.358  -0.430  0.00  0.00    +0.214 C 
ATOM     40  H   UNL     1      18.827 -11.687   1.170  0.00  0.00    +0.149 HD
BRANCH   7  25
ATOM     25  C   UNL     1      16.886 -11.850   0.339  0.00  0.00    +0.139 C 
BRANCH  25  28
ATOM     28  C   UNL     1      16.310 -12.154   1.692  0.00  0.00    -0.030 A 
ATOM     30  C   UNL     1      15.508 -13.282   1.870  0.00  0.00    +0.005 A 
ATOM     31  C   UNL     1      16.577 -11.310   2.770  0.00  0.00    +0.005 A 
ATOM     35  C   UNL     1      14.974 -13.565   3.127  0.00  0.00    +0.000 A 
ATOM     36  C   UNL     1      16.042 -11.593   4.026  0.00  0.00    +0.000 A 
ATOM     37  C   UNL     1      15.240 -12.721   4.204  0.00  0.00    +0.000 A 
ENDBRANCH  25  28
ENDBRANCH   7  25
ENDBRANCH  22  23
ENDBRANCH  12  22
BRANCH  26  27
ATOM     27  C   UNL     1      18.712  -4.139  -3.636  0.00  0.00    +0.102 C 
BRANCH  27  29
ATOM     29  C   UNL     1      17.452  -3.299  -3.317  0.00  0.00    -0.029 C 
ATOM     32  C   UNL     1      16.204  -4.184  -3.172  0.00  0.00    +0.011 C 
ATOM     33  C   UNL     1      17.223  -2.321  -4.487  0.00  0.00    +0.011 C 
ATOM     34  C   UNL     1      17.645  -2.479  -2.030  0.00  0.00    +0.011 C 
ENDBRANCH  27  29
ENDBRANCH  26  27
TORSDOF 9
ENDMDL
MODEL 3
REMARK VINA RESULT:      -6.5     28.031     31.586
REMARK  Name = 11867047
REMARK  14 active torsions:
REMARK  status: ('A' for Active; 'I' for Inactive)
REMARK    1  A    between atoms: O_2  and  C_14
REMARK    2  A    between atoms: O_3  and  C_19
REMARK    3  A    between atoms: N_7  and  C_25
REMARK    4  A    between atoms: C_9  and  C_17
REMARK    5  A    between atoms: C_11  and  C_19
REMARK    6  A    between atoms: C_11  and  C_20
REMARK    7  A    between atoms: C_12  and  C_22
REMARK    8  A    between atoms: C_22  and  C_23
REMARK    9  A    between atoms: C_25  and  C_28
REMARK   10  A    between atoms: C_26  and  C_27
REMARK   11  A    between atoms: C_27  and  C_29
REMARK   12  A    between atoms: C_29  and  C_32
REMARK   13  A    between atoms: C_29  and  C_33
REMARK   14  A    between atoms: C_29  and  C_34
REMARK                            x       y       z     vdW  Elec       q    Type
REMARK                         _______ _______ _______ _____ _____    ______ ____
ROOT
ATOM      1  S   UNL     1     -14.287   4.999  34.980  0.00  0.00    -0.057 S 
ATOM      5  O   UNL     1     -14.958   4.682  30.379  0.00  0.00    -0.275 OA
ATOM      6  N   UNL     1     -13.887   6.170  32.708  0.00  0.00    -0.229 NA
ATOM      8  N   UNL     1     -15.057   4.063  32.653  0.00  0.00    -0.265 N 
ATOM      9  C   UNL     1     -12.475   9.182  34.659  0.00  0.00    -0.019 C 
ATOM     10  C   UNL     1     -11.929   8.262  35.838  0.00  0.00    +0.011 C 
ATOM     11  C   UNL     1     -11.300   8.996  37.086  0.00  0.00    +0.021 C 
ATOM     12  C   UNL     1     -12.646   8.267  33.359  0.00  0.00    +0.054 C 
ATOM     13  C   UNL     1     -11.436  10.289  34.344  0.00  0.00    +0.010 C 
ATOM     14  C   UNL     1     -10.323  10.099  36.592  0.00  0.00    +0.123 C 
ATOM     15  C   UNL     1     -12.952   7.151  36.214  0.00  0.00    +0.049 C 
ATOM     16  C   UNL     1     -10.949  11.044  35.573  0.00  0.00    +0.032 C 
ATOM     17  C   UNL     1     -13.829   9.853  34.997  0.00  0.00    +0.012 C 
ATOM     18  C   UNL     1     -13.347   6.976  33.694  0.00  0.00    +0.058 A 
ATOM     20  C   UNL     1     -10.466   7.973  37.908  0.00  0.00    +0.016 C 
ATOM     21  C   UNL     1     -13.457   6.485  34.979  0.00  0.00    +0.015 A 
ATOM     24  C   UNL     1     -14.415   5.105  33.269  0.00  0.00    +0.165 A 
ATOM     26  C   UNL     1     -15.289   3.911  31.276  0.00  0.00    +0.219 C 
ATOM     41  H   UNL     1     -15.393   3.338  33.281  0.00  0.00    +0.157 HD
ENDROOT
BRANCH  14   2
ATOM      2  O   UNL     1      -9.836  10.867  37.692  0.00  0.00    -0.391 OA
ATOM     38  H   UNL     1      -9.904  11.807  37.449  0.00  0.00    +0.210 HD
ENDBRANCH  14   2
BRANCH  11  19
ATOM     19  C   UNL     1     -12.335   9.578  38.074  0.00  0.00    +0.165 C 
BRANCH  19   3
ATOM      3  O   UNL     1     -11.902   9.276  39.381  0.00  0.00    -0.394 OA
ATOM     39  H   UNL     1     -12.516   9.708  39.998  0.00  0.00    +0.209 HD
ENDBRANCH  19   3
ENDBRANCH  11  19
BRANCH  12  22
ATOM     22  C   UNL     1     -13.304   8.973  32.165  0.00  0.00    +0.106 C 
BRANCH  22  23
ATOM      4  O   UNL     1     -11.207   9.096  30.964  0.00  0.00    -0.276 OA
ATOM      7  N   UNL     1     -12.729  10.846  30.799  0.00  0.00    -0.311 N 
ATOM     23  C   UNL     1     -12.284   9.612  31.253  0.00  0.00    +0.214 C 
ATOM     40  H   UNL     1     -13.630  11.193  31.114  0.00  0.00    +0.149 HD
BRANCH   7  25
ATOM     25  C   UNL     1     -11.958  11.686  29.912  0.00  0.00    +0.139 C 
BRANCH  25  28
ATOM     28  C   UNL     1     -12.012  11.203  28.492  0.00  0.00    -0.030 A 
ATOM     30  C   UNL     1     -13.229  11.182  27.809  0.00  0.00    +0.005 A 
ATOM     31  C   UNL     1     -10.847  10.777  27.855  0.00  0.00    +0.005 A 
ATOM     35  C   UNL     1     -13.279  10.735  26.489  0.00  0.00    +0.000 A 
ATOM     36  C   UNL     1     -10.898  10.328  26.535  0.00  0.00    +0.000 A 
ATOM     37  C   UNL     1     -12.114  10.308  25.852  0.00  0.00    +0.000 A 
ENDBRANCH  25  28
ENDBRANCH   7  25
ENDBRANCH  22  23
ENDBRANCH  12  22
BRANCH  26  27
ATOM     27  C   UNL     1     -16.040   2.628  30.944  0.00  0.00    +0.102 C 
BRANCH  27  29
ATOM     29  C   UNL     1     -15.147   1.373  30.800  0.00  0.00    -0.029 C 
ATOM     32  C   UNL     1     -13.770   1.724  30.214  0.00  0.00    +0.011 C 
ATOM     33  C   UNL     1     -15.851   0.395  29.838  0.00  0.00    +0.011 C 
ATOM     34  C   UNL     1     -14.957   0.670  32.155  0.00  0.00    +0.011 C 
ENDBRANCH  27  29
ENDBRANCH  26  27
TORSDOF 9
ENDMDL
MODEL 4
REMARK VINA RESULT:      -6.5     16.728     20.780
REMARK  Name = 11867047
REMARK  14 active torsions:
REMARK  status: ('A' for Active; 'I' for Inactive)
REMARK    1  A    between atoms: O_2  and  C_14
REMARK    2  A    between atoms: O_3  and  C_19
REMARK    3  A    between atoms: N_7  and  C_25
REMARK    4  A    between atoms: C_9  and  C_17
REMARK    5  A    between atoms: C_11  and  C_19
REMARK    6  A    between atoms: C_11  and  C_20
REMARK    7  A    between atoms: C_12  and  C_22
REMARK    8  A    between atoms: C_22  and  C_23
REMARK    9  A    between atoms: C_25  and  C_28
REMARK   10  A    between atoms: C_26  and  C_27
REMARK   11  A    between atoms: C_27  and  C_29
REMARK   12  A    between atoms: C_29  and  C_32
REMARK   13  A    between atoms: C_29  and  C_33
REMARK   14  A    between atoms: C_29  and  C_34
REMARK                            x       y       z     vdW  Elec       q    Type
REMARK                         _______ _______ _______ _____ _____    ______ ____
ROOT
ATOM      1  S   UNL     1      14.938   7.842   6.356  0.00  0.00    -0.057 S 
ATOM      5  O   UNL     1      12.347   6.421   2.752  0.00  0.00    -0.275 OA
ATOM      6  N   UNL     1      14.909   7.490   3.792  0.00  0.00    -0.229 NA
ATOM      8  N   UNL     1      12.896   6.921   4.991  0.00  0.00    -0.265 N 
ATOM      9  C   UNL     1      18.381   9.161   3.655  0.00  0.00    -0.019 C 
ATOM     10  C   UNL     1      18.780   8.632   5.103  0.00  0.00    +0.011 C 
ATOM     11  C   UNL     1      20.157   9.127   5.692  0.00  0.00    +0.021 C 
ATOM     12  C   UNL     1      17.218   8.220   3.091  0.00  0.00    +0.054 C 
ATOM     13  C   UNL     1      19.605   9.045   2.710  0.00  0.00    +0.010 C 
ATOM     14  C   UNL     1      21.259   8.986   4.604  0.00  0.00    +0.123 C 
ATOM     15  C   UNL     1      17.591   8.756   6.101  0.00  0.00    +0.049 C 
ATOM     16  C   UNL     1      20.883   9.643   3.281  0.00  0.00    +0.032 C 
ATOM     17  C   UNL     1      17.896  10.630   3.664  0.00  0.00    +0.012 C 
ATOM     18  C   UNL     1      16.151   7.995   4.130  0.00  0.00    +0.058 A 
ATOM     20  C   UNL     1      20.560   8.208   6.880  0.00  0.00    +0.016 C 
ATOM     21  C   UNL     1      16.345   8.225   5.477  0.00  0.00    +0.015 A 
ATOM     24  C   UNL     1      14.184   7.374   4.884  0.00  0.00    +0.165 A 
ATOM     26  C   UNL     1      12.067   6.481   3.946  0.00  0.00    +0.219 C 
ATOM     41  H   UNL     1      12.523   6.916   5.936  0.00  0.00    +0.157 HD
ENDROOT
BRANCH  14   2
ATOM      2  O   UNL     1      22.490   9.546   5.061  0.00  0.00    -0.391 OA
ATOM     38  H   UNL     1      22.475  10.497   4.859  0.00  0.00    +0.210 HD
ENDBRANCH  14   2
BRANCH  11  19
ATOM     19  C   UNL     1      20.130  10.561   6.267  0.00  0.00    +0.165 C 
BRANCH  19   3
ATOM      3  O   UNL     1      20.982  10.592   7.389  0.00  0.00    -0.394 OA
ATOM     39  H   UNL     1      20.787  11.408   7.880  0.00  0.00    +0.209 HD
ENDBRANCH  19   3
ENDBRANCH  11  19
BRANCH  12  22
ATOM     22  C   UNL     1      16.617   8.683   1.756  0.00  0.00    +0.106 C 
BRANCH  22  23
ATOM      4  O   UNL     1      17.514   7.894  -0.348  0.00  0.00    -0.276 OA
ATOM      7  N   UNL     1      16.185   6.482   0.934  0.00  0.00    -0.311 N 
ATOM     23  C   UNL     1      16.841   7.673   0.655  0.00  0.00    +0.214 C 
ATOM     40  H   UNL     1      15.636   6.407   1.785  0.00  0.00    +0.149 HD
BRANCH   7  25
ATOM     25  C   UNL     1      16.221   5.336   0.054  0.00  0.00    +0.139 C 
BRANCH  25  28
ATOM     28  C   UNL     1      14.956   4.531   0.129  0.00  0.00    -0.030 A 
ATOM     30  C   UNL     1      14.540   3.997   1.349  0.00  0.00    +0.005 A 
ATOM     31  C   UNL     1      14.196   4.317  -1.022  0.00  0.00    +0.005 A 
ATOM     35  C   UNL     1      13.364   3.249   1.418  0.00  0.00    +0.000 A 
ATOM     36  C   UNL     1      13.021   3.569  -0.953  0.00  0.00    +0.000 A 
ATOM     37  C   UNL     1      12.606   3.035   0.268  0.00  0.00    +0.000 A 
ENDBRANCH  25  28
ENDBRANCH   7  25
ENDBRANCH  22  23
ENDBRANCH  12  22
BRANCH  26  27
ATOM     27  C   UNL     1      10.687   6.053   4.431  0.00  0.00    +0.102 C 
BRANCH  27  29
ATOM     29  C   UNL     1       9.583   7.126   4.272  0.00  0.00    -0.029 C 
ATOM     32  C   UNL     1      10.024   8.480   4.851  0.00  0.00    +0.011 C 
ATOM     33  C   UNL     1       8.339   6.647   5.047  0.00  0.00    +0.011 C 
ATOM     34  C   UNL     1       9.196   7.308   2.795  0.00  0.00    +0.011 C 
ENDBRANCH  27  29
ENDBRANCH  26  27
TORSDOF 9
ENDMDL
MODEL 5
REMARK VINA RESULT:      -6.5     28.045     31.650
REMARK  Name = 11867047
REMARK  14 active torsions:
REMARK  status: ('A' for Active; 'I' for Inactive)
REMARK    1  A    between atoms: O_2  and  C_14
REMARK    2  A    between atoms: O_3  and  C_19
REMARK    3  A    between atoms: N_7  and  C_25
REMARK    4  A    between atoms: C_9  and  C_17
REMARK    5  A    between atoms: C_11  and  C_19
REMARK    6  A    between atoms: C_11  and  C_20
REMARK    7  A    between atoms: C_12  and  C_22
REMARK    8  A    between atoms: C_22  and  C_23
REMARK    9  A    between atoms: C_25  and  C_28
REMARK   10  A    between atoms: C_26  and  C_27
REMARK   11  A    between atoms: C_27  and  C_29
REMARK   12  A    between atoms: C_29  and  C_32
REMARK   13  A    between atoms: C_29  and  C_33
REMARK   14  A    between atoms: C_29  and  C_34
REMARK                            x       y       z     vdW  Elec       q    Type
REMARK                         _______ _______ _______ _____ _____    ______ ____
ROOT
ATOM      1  S   UNL     1      -4.559  -9.129   9.598  0.00  0.00    -0.057 S 
ATOM      5  O   UNL     1      -8.917  -7.548   9.124  0.00  0.00    -0.275 OA
ATOM      6  N   UNL     1      -6.822  -8.800  10.807  0.00  0.00    -0.229 NA
ATOM      8  N   UNL     1      -6.698  -8.067   8.514  0.00  0.00    -0.265 N 
ATOM      9  C   UNL     1      -5.354 -10.735  13.802  0.00  0.00    -0.019 C 
ATOM     10  C   UNL     1      -3.875 -10.225  13.507  0.00  0.00    +0.011 C 
ATOM     11  C   UNL     1      -2.720 -10.819  14.404  0.00  0.00    +0.021 C 
ATOM     12  C   UNL     1      -6.373  -9.713  13.115  0.00  0.00    +0.054 C 
ATOM     13  C   UNL     1      -5.607 -10.723  15.331  0.00  0.00    +0.010 C 
ATOM     14  C   UNL     1      -3.156 -10.774  15.895  0.00  0.00    +0.123 C 
ATOM     15  C   UNL     1      -3.558 -10.247  11.983  0.00  0.00    +0.049 C 
ATOM     16  C   UNL     1      -4.519 -11.412  16.142  0.00  0.00    +0.032 C 
ATOM     17  C   UNL     1      -5.616 -12.163  13.265  0.00  0.00    +0.012 C 
ATOM     18  C   UNL     1      -5.953  -9.397  11.703  0.00  0.00    +0.058 A 
ATOM     20  C   UNL     1      -1.457  -9.922  14.264  0.00  0.00    +0.016 C 
ATOM     21  C   UNL     1      -4.681  -9.628  11.221  0.00  0.00    +0.015 A 
ATOM     24  C   UNL     1      -6.198  -8.618   9.664  0.00  0.00    +0.165 A 
ATOM     26  C   UNL     1      -7.997  -7.574   8.310  0.00  0.00    +0.219 C 
ATOM     41  H   UNL     1      -6.041  -8.024   7.741  0.00  0.00    +0.157 HD
ENDROOT
BRANCH  14   2
ATOM      2  O   UNL     1      -2.189 -11.422  16.721  0.00  0.00    -0.391 OA
ATOM     38  H   UNL     1      -2.580 -11.529  17.605  0.00  0.00    +0.210 HD
ENDBRANCH  14   2
BRANCH  11  19
ATOM     19  C   UNL     1      -2.266 -12.240  14.004  0.00  0.00    +0.165 C 
BRANCH  19   3
ATOM      3  O   UNL     1      -0.942 -12.413  14.454  0.00  0.00    -0.394 OA
ATOM     39  H   UNL     1      -0.375 -12.488  13.668  0.00  0.00    +0.209 HD
ENDBRANCH  19   3
ENDBRANCH  11  19
BRANCH  12  22
ATOM     22  C   UNL     1      -7.846 -10.141  13.182  0.00  0.00    +0.106 C 
BRANCH  22  23
ATOM      4  O   UNL     1      -8.625  -8.796  15.037  0.00  0.00    -0.276 OA
ATOM      7  N   UNL     1      -8.740 -11.114  15.172  0.00  0.00    -0.311 N 
ATOM     23  C   UNL     1      -8.440  -9.909  14.551  0.00  0.00    +0.214 C 
ATOM     40  H   UNL     1      -8.531 -11.984  14.691  0.00  0.00    +0.149 HD
BRANCH   7  25
ATOM     25  C   UNL     1      -9.318 -11.199  16.493  0.00  0.00    +0.139 C 
BRANCH  25  28
ATOM     28  C   UNL     1      -8.268 -11.324  17.559  0.00  0.00    -0.030 A 
ATOM     30  C   UNL     1      -7.750 -10.180  18.166  0.00  0.00    +0.005 A 
ATOM     31  C   UNL     1      -7.811 -12.585  17.943  0.00  0.00    +0.005 A 
ATOM     35  C   UNL     1      -6.775 -10.296  19.157  0.00  0.00    +0.000 A 
ATOM     36  C   UNL     1      -6.835 -12.702  18.933  0.00  0.00    +0.000 A 
ATOM     37  C   UNL     1      -6.318 -11.557  19.539  0.00  0.00    +0.000 A 
ENDBRANCH  25  28
ENDBRANCH   7  25
ENDBRANCH  22  23
ENDBRANCH  12  22
BRANCH  26  27
ATOM     27  C   UNL     1      -8.209  -7.036   6.900  0.00  0.00    +0.102 C 
BRANCH  27  29
ATOM     29  C   UNL     1      -8.402  -8.122   5.815  0.00  0.00    -0.029 C 
ATOM     32  C   UNL     1      -7.082  -8.443   5.095  0.00  0.00    +0.011 C 
ATOM     33  C   UNL     1      -9.406  -7.584   4.776  0.00  0.00    +0.011 C 
ATOM     34  C   UNL     1      -8.976  -9.414   6.421  0.00  0.00    +0.011 C 
ENDBRANCH  27  29
ENDBRANCH  26  27
TORSDOF 9
ENDMDL
MODEL 6
REMARK VINA RESULT:      -6.4      2.334      5.108
REMARK  Name = 11867047
REMARK  14 active torsions:
REMARK  status: ('A' for Active; 'I' for Inactive)
REMARK    1  A    between atoms: O_2  and  C_14
REMARK    2  A    between atoms: O_3  and  C_19
REMARK    3  A    between atoms: N_7  and  C_25
REMARK    4  A    between atoms: C_9  and  C_17
REMARK    5  A    between atoms: C_11  and  C_19
REMARK    6  A    between atoms: C_11  and  C_20
REMARK    7  A    between atoms: C_12  and  C_22
REMARK    8  A    between atoms: C_22  and  C_23
REMARK    9  A    between atoms: C_25  and  C_28
REMARK   10  A    between atoms: C_26  and  C_27
REMARK   11  A    between atoms: C_27  and  C_29
REMARK   12  A    between atoms: C_29  and  C_32
REMARK   13  A    between atoms: C_29  and  C_33
REMARK   14  A    between atoms: C_29  and  C_34
REMARK                            x       y       z     vdW  Elec       q    Type
REMARK                         _______ _______ _______ _____ _____    ______ ____
ROOT
ATOM      1  S   UNL     1      17.442   5.782  19.733  0.00  0.00    -0.057 S 
ATOM      5  O   UNL     1      21.559   7.439  21.154  0.00  0.00    -0.275 OA
ATOM      6  N   UNL     1      18.622   7.760  20.910  0.00  0.00    -0.229 NA
ATOM      8  N   UNL     1      20.023   5.943  20.172  0.00  0.00    -0.265 N 
ATOM      9  C   UNL     1      15.233   9.600  20.928  0.00  0.00    -0.019 C 
ATOM     10  C   UNL     1      14.408   8.243  21.033  0.00  0.00    +0.011 C 
ATOM     11  C   UNL     1      12.836   8.353  20.959  0.00  0.00    +0.021 C 
ATOM     12  C   UNL     1      16.715   9.317  21.457  0.00  0.00    +0.054 C 
ATOM     13  C   UNL     1      14.584  10.670  21.844  0.00  0.00    +0.010 C 
ATOM     14  C   UNL     1      12.359   9.498  21.897  0.00  0.00    +0.123 C 
ATOM     15  C   UNL     1      15.003   7.142  20.107  0.00  0.00    +0.049 C 
ATOM     16  C   UNL     1      13.081  10.817  21.649  0.00  0.00    +0.032 C 
ATOM     17  C   UNL     1      15.299  10.154  19.484  0.00  0.00    +0.012 C 
ATOM     18  C   UNL     1      17.271   8.050  20.860  0.00  0.00    +0.058 A 
ATOM     20  C   UNL     1      12.209   7.031  21.488  0.00  0.00    +0.016 C 
ATOM     21  C   UNL     1      16.484   7.080  20.275  0.00  0.00    +0.015 A 
ATOM     24  C   UNL     1      18.829   6.594  20.340  0.00  0.00    +0.165 A 
ATOM     26  C   UNL     1      21.291   6.389  20.576  0.00  0.00    +0.219 C 
ATOM     41  H   UNL     1      19.957   5.046  19.699  0.00  0.00    +0.157 HD
ENDROOT
BRANCH  14   2
ATOM      2  O   UNL     1      10.954   9.710  21.756  0.00  0.00    -0.391 OA
ATOM     38  H   UNL     1      10.782   9.936  20.826  0.00  0.00    +0.210 HD
ENDBRANCH  14   2
BRANCH  11  19
ATOM     19  C   UNL     1      12.273   8.538  19.533  0.00  0.00    +0.165 C 
BRANCH  19   3
ATOM      3  O   UNL     1      10.919   8.146  19.548  0.00  0.00    -0.394 OA
ATOM     39  H   UNL     1      10.396   8.893  19.210  0.00  0.00    +0.209 HD
ENDBRANCH  19   3
ENDBRANCH  11  19
BRANCH  12  22
ATOM     22  C   UNL     1      17.687  10.493  21.288  0.00  0.00    +0.106 C 
BRANCH  22  23
ATOM      4  O   UNL     1      17.776  11.861  23.282  0.00  0.00    -0.276 OA
ATOM      7  N   UNL     1      19.380  10.211  22.949  0.00  0.00    -0.311 N 
ATOM     23  C   UNL     1      18.256  10.952  22.610  0.00  0.00    +0.214 C 
ATOM     40  H   UNL     1      19.709   9.491  22.314  0.00  0.00    +0.149 HD
BRANCH   7  25
ATOM     25  C   UNL     1      20.134  10.432  24.162  0.00  0.00    +0.139 C 
BRANCH  25  28
ATOM     28  C   UNL     1      20.911   9.214  24.570  0.00  0.00    -0.030 A 
ATOM     30  C   UNL     1      20.420   7.942  24.273  0.00  0.00    +0.005 A 
ATOM     31  C   UNL     1      22.124   9.354  25.245  0.00  0.00    +0.005 A 
ATOM     35  C   UNL     1      21.143   6.810  24.652  0.00  0.00    +0.000 A 
ATOM     36  C   UNL     1      22.846   8.222  25.624  0.00  0.00    +0.000 A 
ATOM     37  C   UNL     1      22.355   6.951  25.327  0.00  0.00    +0.000 A 
ENDBRANCH  25  28
ENDBRANCH   7  25
ENDBRANCH  22  23
ENDBRANCH  12  22
BRANCH  26  27
ATOM     27  C   UNL     1      22.402   5.408  20.220  0.00  0.00    +0.102 C 
BRANCH  27  29
ATOM     29  C   UNL     1      22.984   4.624  21.420  0.00  0.00    -0.029 C 
ATOM     32  C   UNL     1      23.909   5.504  22.275  0.00  0.00    +0.011 C 
ATOM     33  C   UNL     1      23.809   3.446  20.864  0.00  0.00    +0.011 C 
ATOM     34  C   UNL     1      21.862   4.057  22.307  0.00  0.00    +0.011 C 
ENDBRANCH  27  29
ENDBRANCH  26  27
TORSDOF 9
ENDMDL
MODEL 7
REMARK VINA RESULT:      -6.4     28.248     31.836
REMARK  Name = 11867047
REMARK  14 active torsions:
REMARK  status: ('A' for Active; 'I' for Inactive)
REMARK    1  A    between atoms: O_2  and  C_14
REMARK    2  A    between atoms: O_3  and  C_19
REMARK    3  A    between atoms: N_7  and  C_25
REMARK    4  A    between atoms: C_9  and  C_17
REMARK    5  A    between atoms: C_11  and  C_19
REMARK    6  A    between atoms: C_11  and  C_20
REMARK    7  A    between atoms: C_12  and  C_22
REMARK    8  A    between atoms: C_22  and  C_23
REMARK    9  A    between atoms: C_25  and  C_28
REMARK   10  A    between atoms: C_26  and  C_27
REMARK   11  A    between atoms: C_27  and  C_29
REMARK   12  A    between atoms: C_29  and  C_32
REMARK   13  A    between atoms: C_29  and  C_33
REMARK   14  A    between atoms: C_29  and  C_34
REMARK                            x       y       z     vdW  Elec       q    Type
REMARK                         _______ _______ _______ _____ _____    ______ ____
ROOT
ATOM      1  S   UNL     1      -4.667  -9.114   9.835  0.00  0.00    -0.057 S 
ATOM      5  O   UNL     1      -8.985  -7.497   9.156  0.00  0.00    -0.275 OA
ATOM      6  N   UNL     1      -6.994  -8.800  10.924  0.00  0.00    -0.229 NA
ATOM      8  N   UNL     1      -6.738  -8.015   8.658  0.00  0.00    -0.265 N 
ATOM      9  C   UNL     1      -5.705 -10.811  13.951  0.00  0.00    -0.019 C 
ATOM     10  C   UNL     1      -4.209 -10.303  13.750  0.00  0.00    +0.011 C 
ATOM     11  C   UNL     1      -3.110 -10.924  14.697  0.00  0.00    +0.021 C 
ATOM     12  C   UNL     1      -6.679  -9.768  13.231  0.00  0.00    +0.054 C 
ATOM     13  C   UNL     1      -6.044 -10.832  15.463  0.00  0.00    +0.010 C 
ATOM     14  C   UNL     1      -3.629 -10.911  16.162  0.00  0.00    +0.123 C 
ATOM     15  C   UNL     1      -3.808 -10.292  12.247  0.00  0.00    +0.049 C 
ATOM     16  C   UNL     1      -5.005 -11.546  16.317  0.00  0.00    +0.032 C 
ATOM     17  C   UNL     1      -5.943 -12.225  13.367  0.00  0.00    +0.012 C 
ATOM     18  C   UNL     1      -6.179  -9.422  11.852  0.00  0.00    +0.058 A 
ATOM     20  C   UNL     1      -1.836 -10.032  14.648  0.00  0.00    +0.016 C 
ATOM     21  C   UNL     1      -4.883  -9.649  11.437  0.00  0.00    +0.015 A 
ATOM     24  C   UNL     1      -6.306  -8.596   9.821  0.00  0.00    +0.165 A 
ATOM     26  C   UNL     1      -8.021  -7.510   8.394  0.00  0.00    +0.219 C 
ATOM     41  H   UNL     1      -6.037  -7.958   7.924  0.00  0.00    +0.157 HD
ENDROOT
BRANCH  14   2
ATOM      2  O   UNL     1      -2.712 -11.583  17.025  0.00  0.00    -0.391 OA
ATOM     38  H   UNL     1      -2.443 -10.955  17.717  0.00  0.00    +0.210 HD
ENDBRANCH  14   2
BRANCH  11  19
ATOM     19  C   UNL     1      -2.641 -12.339  14.291  0.00  0.00    +0.165 C 
BRANCH  19   3
ATOM      3  O   UNL     1      -1.293 -12.475  14.680  0.00  0.00    -0.394 OA
ATOM     39  H   UNL     1      -1.285 -12.871  15.568  0.00  0.00    +0.209 HD
ENDBRANCH  19   3
ENDBRANCH  11  19
BRANCH  12  22
ATOM     22  C   UNL     1      -8.156 -10.188  13.206  0.00  0.00    +0.106 C 
BRANCH  22  23
ATOM      4  O   UNL     1      -9.359 -10.925  15.172  0.00  0.00    -0.276 OA
ATOM      7  N   UNL     1      -8.723  -8.697  14.983  0.00  0.00    -0.311 N 
ATOM     23  C   UNL     1      -8.816 -10.013  14.553  0.00  0.00    +0.214 C 
ATOM     40  H   UNL     1      -8.269  -8.012  14.387  0.00  0.00    +0.149 HD
BRANCH   7  25
ATOM     25  C   UNL     1      -9.270  -8.237  16.239  0.00  0.00    +0.139 C 
BRANCH  25  28
ATOM     28  C   UNL     1     -10.644  -7.654  16.074  0.00  0.00    -0.030 A 
ATOM     30  C   UNL     1     -11.766  -8.401  16.435  0.00  0.00    +0.005 A 
ATOM     31  C   UNL     1     -10.799  -6.366  15.561  0.00  0.00    +0.005 A 
ATOM     35  C   UNL     1     -13.043  -7.859  16.282  0.00  0.00    +0.000 A 
ATOM     36  C   UNL     1     -12.075  -5.825  15.408  0.00  0.00    +0.000 A 
ATOM     37  C   UNL     1     -13.197  -6.572  15.769  0.00  0.00    +0.000 A 
ENDBRANCH  25  28
ENDBRANCH   7  25
ENDBRANCH  22  23
ENDBRANCH  12  22
BRANCH  26  27
ATOM     27  C   UNL     1      -8.150  -6.939   6.987  0.00  0.00    +0.102 C 
BRANCH  27  29
ATOM     29  C   UNL     1      -8.537  -7.972   5.901  0.00  0.00    -0.029 C 
ATOM     32  C   UNL     1      -9.045  -9.283   6.524  0.00  0.00    +0.011 C 
ATOM     33  C   UNL     1      -7.277  -8.284   5.070  0.00  0.00    +0.011 C 
ATOM     34  C   UNL     1      -9.614  -7.408   4.959  0.00  0.00    +0.011 C 
ENDBRANCH  27  29
ENDBRANCH  26  27
TORSDOF 9
ENDMDL
MODEL 8
REMARK VINA RESULT:      -6.4     26.398     30.057
REMARK  Name = 11867047
REMARK  14 active torsions:
REMARK  status: ('A' for Active; 'I' for Inactive)
REMARK    1  A    between atoms: O_2  and  C_14
REMARK    2  A    between atoms: O_3  and  C_19
REMARK    3  A    between atoms: N_7  and  C_25
REMARK    4  A    between atoms: C_9  and  C_17
REMARK    5  A    between atoms: C_11  and  C_19
REMARK    6  A    between atoms: C_11  and  C_20
REMARK    7  A    between atoms: C_12  and  C_22
REMARK    8  A    between atoms: C_22  and  C_23
REMARK    9  A    between atoms: C_25  and  C_28
REMARK   10  A    between atoms: C_26  and  C_27
REMARK   11  A    between atoms: C_27  and  C_29
REMARK   12  A    between atoms: C_29  and  C_32
REMARK   13  A    between atoms: C_29  and  C_33
REMARK   14  A    between atoms: C_29  and  C_34
REMARK                            x       y       z     vdW  Elec       q    Type
REMARK                         _______ _______ _______ _____ _____    ______ ____
ROOT
ATOM      1  S   UNL     1      18.203 -10.031  -1.203  0.00  0.00    -0.057 S 
ATOM      5  O   UNL     1      17.875 -14.140   0.971  0.00  0.00    -0.275 OA
ATOM      6  N   UNL     1      19.040 -11.419   0.813  0.00  0.00    -0.229 NA
ATOM      8  N   UNL     1      17.454 -12.484  -0.656  0.00  0.00    -0.265 N 
ATOM      9  C   UNL     1      21.501  -8.554   1.595  0.00  0.00    -0.019 C 
ATOM     10  C   UNL     1      20.518  -7.445   1.012  0.00  0.00    +0.011 C 
ATOM     11  C   UNL     1      21.064  -5.966   0.949  0.00  0.00    +0.021 C 
ATOM     12  C   UNL     1      20.626  -9.838   1.974  0.00  0.00    +0.054 C 
ATOM     13  C   UNL     1      22.170  -8.021   2.888  0.00  0.00    +0.010 C 
ATOM     14  C   UNL     1      21.741  -5.613   2.302  0.00  0.00    +0.123 C 
ATOM     15  C   UNL     1      19.841  -7.921  -0.307  0.00  0.00    +0.049 C 
ATOM     16  C   UNL     1      22.784  -6.636   2.738  0.00  0.00    +0.032 C 
ATOM     17  C   UNL     1      22.608  -8.963   0.593  0.00  0.00    +0.012 C 
ATOM     18  C   UNL     1      19.670 -10.188   0.863  0.00  0.00    +0.058 A 
ATOM     20  C   UNL     1      19.866  -4.991   0.762  0.00  0.00    +0.016 C 
ATOM     21  C   UNL     1      19.318  -9.308  -0.139  0.00  0.00    +0.015 A 
ATOM     24  C   UNL     1      18.250 -11.451  -0.237  0.00  0.00    +0.165 A 
ATOM     26  C   UNL     1      17.313 -13.741  -0.046  0.00  0.00    +0.219 C 
ATOM     41  H   UNL     1      16.922 -12.297  -1.502  0.00  0.00    +0.157 HD
ENDROOT
BRANCH  14   2
ATOM      2  O   UNL     1      22.360  -4.328   2.233  0.00  0.00    -0.391 OA
ATOM     38  H   UNL     1      23.320  -4.458   2.314  0.00  0.00    +0.210 HD
ENDBRANCH  14   2
BRANCH  11  19
ATOM     19  C   UNL     1      22.016  -5.686  -0.235  0.00  0.00    +0.165 C 
BRANCH  19   3
ATOM      3  O   UNL     1      21.699  -4.414  -0.752  0.00  0.00    -0.394 OA
ATOM     39  H   UNL     1      20.935  -4.079  -0.252  0.00  0.00    +0.209 HD
ENDBRANCH  19   3
ENDBRANCH  11  19
BRANCH  12  22
ATOM     22  C   UNL     1      21.445 -11.058   2.418  0.00  0.00    +0.106 C 
BRANCH  22  23
ATOM      4  O   UNL     1      21.442 -11.430   4.809  0.00  0.00    -0.276 OA
ATOM      7  N   UNL     1      19.819 -12.442   3.488  0.00  0.00    -0.311 N 
ATOM     23  C   UNL     1      20.931 -11.643   3.712  0.00  0.00    +0.214 C 
ATOM     40  H   UNL     1      19.485 -12.570   2.537  0.00  0.00    +0.149 HD
BRANCH   7  25
ATOM     25  C   UNL     1      19.118 -13.134   4.545  0.00  0.00    +0.139 C 
BRANCH  25  28
ATOM     28  C   UNL     1      17.668 -13.344   4.215  0.00  0.00    -0.030 A 
ATOM     30  C   UNL     1      16.914 -12.293   3.693  0.00  0.00    +0.005 A 
ATOM     31  C   UNL     1      17.077 -14.589   4.430  0.00  0.00    +0.005 A 
ATOM     35  C   UNL     1      15.567 -12.489   3.385  0.00  0.00    +0.000 A 
ATOM     36  C   UNL     1      15.730 -14.784   4.122  0.00  0.00    +0.000 A 
ATOM     37  C   UNL     1      14.976 -13.733   3.600  0.00  0.00    +0.000 A 
ENDBRANCH  25  28
ENDBRANCH   7  25
ENDBRANCH  22  23
ENDBRANCH  12  22
BRANCH  26  27
ATOM     27  C   UNL     1      16.344 -14.651  -0.791  0.00  0.00    +0.102 C 
BRANCH  27  29
ATOM     29  C   UNL     1      17.010 -15.822  -1.553  0.00  0.00    -0.029 C 
ATOM     32  C   UNL     1      18.316 -15.382  -2.233  0.00  0.00    +0.011 C 
ATOM     33  C   UNL     1      16.030 -16.299  -2.644  0.00  0.00    +0.011 C 
ATOM     34  C   UNL     1      17.300 -17.002  -0.611  0.00  0.00    +0.011 C 
ENDBRANCH  27  29
ENDBRANCH  26  27
TORSDOF 9
ENDMDL
MODEL 9
REMARK VINA RESULT:      -6.4     32.701     35.026
REMARK  Name = 11867047
REMARK  14 active torsions:
REMARK  status: ('A' for Active; 'I' for Inactive)
REMARK    1  A    between atoms: O_2  and  C_14
REMARK    2  A    between atoms: O_3  and  C_19
REMARK    3  A    between atoms: N_7  and  C_25
REMARK    4  A    between atoms: C_9  and  C_17
REMARK    5  A    between atoms: C_11  and  C_19
REMARK    6  A    between atoms: C_11  and  C_20
REMARK    7  A    between atoms: C_12  and  C_22
REMARK    8  A    between atoms: C_22  and  C_23
REMARK    9  A    between atoms: C_25  and  C_28
REMARK   10  A    between atoms: C_26  and  C_27
REMARK   11  A    between atoms: C_27  and  C_29
REMARK   12  A    between atoms: C_29  and  C_32
REMARK   13  A    between atoms: C_29  and  C_33
REMARK   14  A    between atoms: C_29  and  C_34
REMARK                            x       y       z     vdW  Elec       q    Type
REMARK                         _______ _______ _______ _____ _____    ______ ____
ROOT
ATOM      1  S   UNL     1     -10.768  -7.161  15.526  0.00  0.00    -0.057 S 
ATOM      5  O   UNL     1     -14.091  -4.629  13.461  0.00  0.00    -0.275 OA
ATOM      6  N   UNL     1     -13.317  -6.731  15.401  0.00  0.00    -0.229 NA
ATOM      8  N   UNL     1     -11.918  -5.401  13.957  0.00  0.00    -0.265 N 
ATOM      9  C   UNL     1     -13.804  -9.723  17.785  0.00  0.00    -0.019 C 
ATOM     10  C   UNL     1     -12.409  -9.473  18.511  0.00  0.00    +0.011 C 
ATOM     11  C   UNL     1     -11.964 -10.533  19.591  0.00  0.00    +0.021 C 
ATOM     12  C   UNL     1     -14.251  -8.354  17.091  0.00  0.00    +0.054 C 
ATOM     13  C   UNL     1     -14.873 -10.107  18.840  0.00  0.00    +0.010 C 
ATOM     14  C   UNL     1     -13.162 -10.836  20.534  0.00  0.00    +0.123 C 
ATOM     15  C   UNL     1     -11.292  -9.113  17.488  0.00  0.00    +0.049 C 
ATOM     16  C   UNL     1     -14.435 -11.217  19.786  0.00  0.00    +0.032 C 
ATOM     17  C   UNL     1     -13.734 -10.842  16.717  0.00  0.00    +0.012 C 
ATOM     18  C   UNL     1     -13.107  -7.734  16.331  0.00  0.00    +0.058 A 
ATOM     20  C   UNL     1     -10.832  -9.922  20.465  0.00  0.00    +0.016 C 
ATOM     21  C   UNL     1     -11.786  -8.076  16.538  0.00  0.00    +0.015 A 
ATOM     24  C   UNL     1     -12.156  -6.358  14.907  0.00  0.00    +0.165 A 
ATOM     26  C   UNL     1     -12.874  -4.609  13.300  0.00  0.00    +0.219 C 
ATOM     41  H   UNL     1     -10.939  -5.273  13.716  0.00  0.00    +0.157 HD
ENDROOT
BRANCH  14   2
ATOM      2  O   UNL     1     -12.833 -11.887  21.443  0.00  0.00    -0.391 OA
ATOM     38  H   UNL     1     -11.870 -12.020  21.404  0.00  0.00    +0.210 HD
ENDBRANCH  14   2
BRANCH  11  19
ATOM     19  C   UNL     1     -11.379 -11.837  19.006  0.00  0.00    +0.165 C 
BRANCH  19   3
ATOM      3  O   UNL     1     -10.418 -12.325  19.914  0.00  0.00    -0.394 OA
ATOM     39  H   UNL     1      -9.617 -11.784  19.808  0.00  0.00    +0.209 HD
ENDBRANCH  19   3
ENDBRANCH  11  19
BRANCH  12  22
ATOM     22  C   UNL     1     -15.512  -8.462  16.222  0.00  0.00    +0.106 C 
BRANCH  22  23
ATOM      4  O   UNL     1     -17.869  -8.108  16.636  0.00  0.00    -0.276 OA
ATOM      7  N   UNL     1     -16.300  -6.808  17.754  0.00  0.00    -0.311 N 
ATOM     23  C   UNL     1     -16.704  -7.800  16.871  0.00  0.00    +0.214 C 
ATOM     40  H   UNL     1     -15.309  -6.616  17.863  0.00  0.00    +0.149 HD
BRANCH   7  25
ATOM     25  C   UNL     1     -17.228  -6.004  18.516  0.00  0.00    +0.139 C 
BRANCH  25  28
ATOM     28  C   UNL     1     -16.832  -5.909  19.962  0.00  0.00    -0.030 A 
ATOM     30  C   UNL     1     -16.842  -4.672  20.606  0.00  0.00    +0.005 A 
ATOM     31  C   UNL     1     -16.456  -7.057  20.659  0.00  0.00    +0.005 A 
ATOM     35  C   UNL     1     -16.476  -4.583  21.950  0.00  0.00    +0.000 A 
ATOM     36  C   UNL     1     -16.090  -6.967  22.002  0.00  0.00    +0.000 A 
ATOM     37  C   UNL     1     -16.099  -5.730  22.647  0.00  0.00    +0.000 A 
ENDBRANCH  25  28
ENDBRANCH   7  25
ENDBRANCH  22  23
ENDBRANCH  12  22
BRANCH  26  27
ATOM     27  C   UNL     1     -12.251  -3.649  12.293  0.00  0.00    +0.102 C 
BRANCH  27  29
ATOM     29  C   UNL     1     -12.379  -4.088  10.815  0.00  0.00    -0.029 C 
ATOM     32  C   UNL     1     -11.220  -3.547   9.963  0.00  0.00    +0.011 C 
ATOM     33  C   UNL     1     -13.699  -3.518  10.261  0.00  0.00    +0.011 C 
ATOM     34  C   UNL     1     -12.423  -5.621  10.695  0.00  0.00    +0.011 C 
ENDBRANCH  27  29
ENDBRANCH  26  27
TORSDOF 9
ENDMDL
MODEL 10
REMARK VINA RESULT:      -6.2     27.909     31.554
REMARK  Name = 11867047
REMARK  14 active torsions:
REMARK  status: ('A' for Active; 'I' for Inactive)
REMARK    1  A    between atoms: O_2  and  C_14
REMARK    2  A    between atoms: O_3  and  C_19
REMARK    3  A    between atoms: N_7  and  C_25
REMARK    4  A    between atoms: C_9  and  C_17
REMARK    5  A    between atoms: C_11  and  C_19
REMARK    6  A    between atoms: C_11  and  C_20
REMARK    7  A    between atoms: C_12  and  C_22
REMARK    8  A    between atoms: C_22  and  C_23
REMARK    9  A    between atoms: C_25  and  C_28
REMARK   10  A    between atoms: C_26  and  C_27
REMARK   11  A    between atoms: C_27  and  C_29
REMARK   12  A    between atoms: C_29  and  C_32
REMARK   13  A    between atoms: C_29  and  C_33
REMARK   14  A    between atoms: C_29  and  C_34
REMARK                            x       y       z     vdW  Elec       q    Type
REMARK                         _______ _______ _______ _____ _____    ______ ____
ROOT
ATOM      1  S   UNL     1     -14.363   4.784  34.809  0.00  0.00    -0.057 S 
ATOM      5  O   UNL     1     -15.088   4.330  30.228  0.00  0.00    -0.275 OA
ATOM      6  N   UNL     1     -14.034   5.911  32.503  0.00  0.00    -0.229 NA
ATOM      8  N   UNL     1     -15.133   3.766  32.518  0.00  0.00    -0.265 N 
ATOM      9  C   UNL     1     -12.696   9.016  34.358  0.00  0.00    -0.019 C 
ATOM     10  C   UNL     1     -12.103   8.145  35.551  0.00  0.00    +0.011 C 
ATOM     11  C   UNL     1     -11.481   8.930  36.771  0.00  0.00    +0.021 C 
ATOM     12  C   UNL     1     -12.855   8.064  33.084  0.00  0.00    +0.054 C 
ATOM     13  C   UNL     1     -11.699  10.148  34.001  0.00  0.00    +0.010 C 
ATOM     14  C   UNL     1     -10.548  10.052  36.235  0.00  0.00    +0.123 C 
ATOM     15  C   UNL     1     -13.082   7.010  35.970  0.00  0.00    +0.049 C 
ATOM     16  C   UNL     1     -11.220  10.950  35.203  0.00  0.00    +0.032 C 
ATOM     17  C   UNL     1     -14.067   9.650  34.700  0.00  0.00    +0.012 C 
ATOM     18  C   UNL     1     -13.507   6.759  33.461  0.00  0.00    +0.058 A 
ATOM     20  C   UNL     1     -10.602   7.956  37.606  0.00  0.00    +0.016 C 
ATOM     21  C   UNL     1     -13.583   6.297  34.759  0.00  0.00    +0.015 A 
ATOM     24  C   UNL     1     -14.518   4.844  33.099  0.00  0.00    +0.165 A 
ATOM     26  C   UNL     1     -15.379   3.572  31.149  0.00  0.00    +0.219 C 
ATOM     41  H   UNL     1     -15.436   3.046  33.168  0.00  0.00    +0.157 HD
ENDROOT
BRANCH  14   2
ATOM      2  O   UNL     1     -10.072  10.863  37.309  0.00  0.00    -0.391 OA
ATOM     38  H   UNL     1      -9.940  10.285  38.080  0.00  0.00    +0.210 HD
ENDBRANCH  14   2
BRANCH  11  19
ATOM     19  C   UNL     1     -12.521   9.502  37.760  0.00  0.00    +0.165 C 
BRANCH  19   3
ATOM      3  O   UNL     1     -12.064   9.239  39.067  0.00  0.00    -0.394 OA
ATOM     39  H   UNL     1     -11.899  10.096  39.495  0.00  0.00    +0.209 HD
ENDBRANCH  19   3
ENDBRANCH  11  19
BRANCH  12  22
ATOM     22  C   UNL     1     -13.553   8.717  31.883  0.00  0.00    +0.106 C 
BRANCH  22  23
ATOM      4  O   UNL     1     -11.569   9.204  30.586  0.00  0.00    -0.276 OA
ATOM      7  N   UNL     1     -13.095  10.900  31.030  0.00  0.00    -0.311 N 
ATOM     23  C   UNL     1     -12.615   9.600  31.094  0.00  0.00    +0.214 C 
ATOM     40  H   UNL     1     -13.964  11.131  31.502  0.00  0.00    +0.149 HD
BRANCH   7  25
ATOM     25  C   UNL     1     -12.402  11.964  30.340  0.00  0.00    +0.139 C 
BRANCH  25  28
ATOM     28  C   UNL     1     -11.347  12.598  31.201  0.00  0.00    -0.030 A 
ATOM     30  C   UNL     1      -9.999  12.325  30.964  0.00  0.00    +0.005 A 
ATOM     31  C   UNL     1     -11.714  13.458  32.235  0.00  0.00    +0.005 A 
ATOM     35  C   UNL     1      -9.018  12.915  31.762  0.00  0.00    +0.000 A 
ATOM     36  C   UNL     1     -10.733  14.046  33.034  0.00  0.00    +0.000 A 
ATOM     37  C   UNL     1      -9.386  13.774  32.797  0.00  0.00    +0.000 A 
ENDBRANCH  25  28
ENDBRANCH   7  25
ENDBRANCH  22  23
ENDBRANCH  12  22
BRANCH  26  27
ATOM     27  C   UNL     1     -16.093   2.257  30.860  0.00  0.00    +0.102 C 
BRANCH  27  29
ATOM     29  C   UNL     1     -15.208   1.171  30.202  0.00  0.00    -0.029 C 
ATOM     32  C   UNL     1     -13.730   1.593  30.164  0.00  0.00    +0.011 C 
ATOM     33  C   UNL     1     -15.696   0.974  28.752  0.00  0.00    +0.011 C 
ATOM     34  C   UNL     1     -15.333  -0.170  30.944  0.00  0.00    +0.011 C 
ENDBRANCH  27  29
ENDBRANCH  26  27
TORSDOF 9
ENDMDL
