MODEL 1
REMARK VINA RESULT:      -7.3      0.000      0.000
REMARK  Name = 75368452
REMARK  5 active torsions:
REMARK  status: ('A' for Active; 'I' for Inactive)
REMARK    1  A    between atoms: O_3  and  C_25
REMARK    2  A    between atoms: O_3  and  C_26
REMARK    3  A    between atoms: N_6  and  C_19
REMARK    4  A    between atoms: C_9  and  C_15
REMARK    5  A    between atoms: C_19  and  C_20
REMARK                            x       y       z     vdW  Elec       q    Type
REMARK                         _______ _______ _______ _____ _____    ______ ____
ROOT
ATOM      1  O   UNL     1      10.407  11.719  24.539  0.00  0.00    -0.275 OA
ATOM      2  O   UNL     1      11.857   6.207  20.543  0.00  0.00    -0.252 OA
ATOM      4  N   UNL     1      12.174   8.219  21.715  0.00  0.00    -0.278 N 
ATOM      5  N   UNL     1      11.513  10.710  22.763  0.00  0.00    -0.298 N 
ATOM      6  N   UNL     1      13.753   7.577  20.251  0.00  0.00    -0.279 N 
ATOM      7  C   UNL     1      13.232   9.202  21.866  0.00  0.00    +0.112 C 
ATOM      8  C   UNL     1      12.654  10.615  21.834  0.00  0.00    +0.132 C 
ATOM     10  C   UNL     1      14.193   8.879  20.723  0.00  0.00    +0.133 C 
ATOM     11  C   UNL     1      10.986   8.307  22.544  0.00  0.00    +0.128 C 
ATOM     12  C   UNL     1      10.440   9.732  22.521  0.00  0.00    +0.127 C 
ATOM     15  C   UNL     1      11.384  11.644  23.790  0.00  0.00    +0.219 C 
ATOM     18  C   UNL     1      12.513   7.206  20.806  0.00  0.00    +0.306 C 
ENDROOT
BRANCH  15   9
ATOM      9  C   UNL     1      12.521  12.601  23.971  0.00  0.00    +0.075 C 
ATOM     13  C   UNL     1      13.435  12.133  25.110  0.00  0.00    +0.013 C 
ATOM     14  C   UNL     1      12.006  13.982  24.377  0.00  0.00    +0.013 C 
ATOM     16  C   UNL     1      13.501  13.295  26.094  0.00  0.00    +0.001 C 
ATOM     17  C   UNL     1      12.193  14.034  25.887  0.00  0.00    +0.001 C 
ENDBRANCH  15   9
BRANCH   6  19
ATOM     19  C   UNL     1      14.473   6.852  19.228  0.00  0.00    +0.144 C 
BRANCH  19  20
ATOM     20  C   UNL     1      15.886   6.555  19.639  0.00  0.00    -0.030 A 
ATOM     21  C   UNL     1      16.758   5.935  18.743  0.00  0.00    +0.009 A 
ATOM     22  C   UNL     1      16.329   6.900  20.916  0.00  0.00    +0.009 A 
ATOM     23  C   UNL     1      18.071   5.660  19.126  0.00  0.00    +0.046 A 
ATOM     24  C   UNL     1      17.641   6.626  21.298  0.00  0.00    +0.046 A 
ATOM     25  C   UNL     1      18.513   6.005  20.402  0.00  0.00    +0.120 A 
BRANCH  25   3
ATOM      3  O   UNL     1      19.795   5.737  20.775  0.00  0.00    -0.495 OA
ATOM     26  C   UNL     1      20.279   6.387  21.949  0.00  0.00    +0.277 C 
ENDBRANCH  25   3
ENDBRANCH  19  20
ENDBRANCH   6  19
TORSDOF 4
ENDMDL
MODEL 2
REMARK VINA RESULT:      -7.1      1.576      7.982
REMARK  Name = 75368452
REMARK  5 active torsions:
REMARK  status: ('A' for Active; 'I' for Inactive)
REMARK    1  A    between atoms: O_3  and  C_25
REMARK    2  A    between atoms: O_3  and  C_26
REMARK    3  A    between atoms: N_6  and  C_19
REMARK    4  A    between atoms: C_9  and  C_15
REMARK    5  A    between atoms: C_19  and  C_20
REMARK                            x       y       z     vdW  Elec       q    Type
REMARK                         _______ _______ _______ _____ _____    ______ ____
ROOT
ATOM      1  O   UNL     1      18.654   6.341  19.731  0.00  0.00    -0.275 OA
ATOM      2  O   UNL     1      11.917   7.882  18.905  0.00  0.00    -0.252 OA
ATOM      4  N   UNL     1      14.074   7.875  19.838  0.00  0.00    -0.278 N 
ATOM      5  N   UNL     1      16.548   6.836  20.574  0.00  0.00    -0.298 N 
ATOM      6  N   UNL     1      12.392   8.747  21.046  0.00  0.00    -0.279 N 
ATOM      7  C   UNL     1      14.717   8.412  21.024  0.00  0.00    +0.112 C 
ATOM      8  C   UNL     1      15.669   7.380  21.626  0.00  0.00    +0.132 C 
ATOM     10  C   UNL     1      13.548   8.804  21.925  0.00  0.00    +0.133 C 
ATOM     11  C   UNL     1      14.878   7.251  18.802  0.00  0.00    +0.128 C 
ATOM     12  C   UNL     1      15.841   6.245  19.427  0.00  0.00    +0.127 C 
ATOM     15  C   UNL     1      17.941   6.825  20.613  0.00  0.00    +0.219 C 
ATOM     18  C   UNL     1      12.697   8.139  19.813  0.00  0.00    +0.306 C 
ENDROOT
BRANCH  15   9
ATOM      9  C   UNL     1      18.583   7.449  21.814  0.00  0.00    +0.075 C 
ATOM     13  C   UNL     1      19.123   8.841  21.465  0.00  0.00    +0.013 C 
ATOM     14  C   UNL     1      19.786   6.626  22.273  0.00  0.00    +0.013 C 
ATOM     16  C   UNL     1      20.604   8.814  21.826  0.00  0.00    +0.001 C 
ATOM     17  C   UNL     1      20.992   7.353  21.697  0.00  0.00    +0.001 C 
ENDBRANCH  15   9
BRANCH   6  19
ATOM     19  C   UNL     1      11.076   9.155  21.485  0.00  0.00    +0.144 C 
BRANCH  19  20
ATOM     20  C   UNL     1      11.114  10.451  22.243  0.00  0.00    -0.030 A 
ATOM     21  C   UNL     1      10.840  10.468  23.611  0.00  0.00    +0.009 A 
ATOM     22  C   UNL     1      11.425  11.638  21.580  0.00  0.00    +0.009 A 
ATOM     23  C   UNL     1      10.876  11.672  24.314  0.00  0.00    +0.046 A 
ATOM     24  C   UNL     1      11.460  12.842  22.283  0.00  0.00    +0.046 A 
ATOM     25  C   UNL     1      11.185  12.859  23.652  0.00  0.00    +0.120 A 
BRANCH  25   3
ATOM      3  O   UNL     1      11.221  14.033  24.338  0.00  0.00    -0.495 OA
ATOM     26  C   UNL     1      10.569  14.064  25.607  0.00  0.00    +0.277 C 
ENDBRANCH  25   3
ENDBRANCH  19  20
ENDBRANCH   6  19
TORSDOF 4
ENDMDL
MODEL 3
REMARK VINA RESULT:      -7.0     27.245     29.025
REMARK  Name = 75368452
REMARK  5 active torsions:
REMARK  status: ('A' for Active; 'I' for Inactive)
REMARK    1  A    between atoms: O_3  and  C_25
REMARK    2  A    between atoms: O_3  and  C_26
REMARK    3  A    between atoms: N_6  and  C_19
REMARK    4  A    between atoms: C_9  and  C_15
REMARK    5  A    between atoms: C_19  and  C_20
REMARK                            x       y       z     vdW  Elec       q    Type
REMARK                         _______ _______ _______ _____ _____    ______ ____
ROOT
ATOM      1  O   UNL     1      -7.183 -10.720  18.821  0.00  0.00    -0.275 OA
ATOM      2  O   UNL     1      -1.356 -11.314  15.061  0.00  0.00    -0.252 OA
ATOM      4  N   UNL     1      -3.600 -10.851  15.582  0.00  0.00    -0.278 N 
ATOM      5  N   UNL     1      -6.061 -11.172  16.838  0.00  0.00    -0.298 N 
ATOM      6  N   UNL     1      -2.999 -10.914  13.418  0.00  0.00    -0.279 N 
ATOM      7  C   UNL     1      -4.795 -10.452  14.860  0.00  0.00    +0.112 C 
ATOM      8  C   UNL     1      -6.007 -11.232  15.366  0.00  0.00    +0.132 C 
ATOM     10  C   UNL     1      -4.437 -10.707  13.397  0.00  0.00    +0.133 C 
ATOM     11  C   UNL     1      -3.615 -10.892  17.033  0.00  0.00    +0.128 C 
ATOM     12  C   UNL     1      -4.848 -11.651  17.518  0.00  0.00    +0.127 C 
ATOM     15  C   UNL     1      -7.153 -10.737  17.588  0.00  0.00    +0.219 C 
ATOM     18  C   UNL     1      -2.505 -11.055  14.729  0.00  0.00    +0.306 C 
ENDROOT
BRANCH  15   9
ATOM      9  C   UNL     1      -8.348 -10.263  16.819  0.00  0.00    +0.075 C 
ATOM     13  C   UNL     1      -8.496  -8.743  16.950  0.00  0.00    +0.013 C 
ATOM     14  C   UNL     1      -9.631 -10.868  17.388  0.00  0.00    +0.013 C 
ATOM     16  C   UNL     1      -9.899  -8.507  17.498  0.00  0.00    +0.001 C 
ATOM     17  C   UNL     1     -10.214  -9.774  18.271  0.00  0.00    +0.001 C 
ENDBRANCH  15   9
BRANCH   6  19
ATOM     19  C   UNL     1      -2.234 -11.085  12.203  0.00  0.00    +0.144 C 
BRANCH  19  20
ATOM     20  C   UNL     1      -3.028 -10.718  10.983  0.00  0.00    -0.030 A 
ATOM     21  C   UNL     1      -3.082  -9.390  10.558  0.00  0.00    +0.009 A 
ATOM     22  C   UNL     1      -3.709 -11.706  10.272  0.00  0.00    +0.009 A 
ATOM     23  C   UNL     1      -3.820  -9.051   9.424  0.00  0.00    +0.046 A 
ATOM     24  C   UNL     1      -4.446 -11.367   9.137  0.00  0.00    +0.046 A 
ATOM     25  C   UNL     1      -4.502 -10.038   8.714  0.00  0.00    +0.120 A 
BRANCH  25   3
ATOM      3  O   UNL     1      -5.220  -9.707   7.606  0.00  0.00    -0.495 OA
ATOM     26  C   UNL     1      -5.389 -10.719   6.614  0.00  0.00    +0.277 C 
ENDBRANCH  25   3
ENDBRANCH  19  20
ENDBRANCH   6  19
TORSDOF 4
ENDMDL
MODEL 4
REMARK VINA RESULT:      -6.9      3.159      4.437
REMARK  Name = 75368452
REMARK  5 active torsions:
REMARK  status: ('A' for Active; 'I' for Inactive)
REMARK    1  A    between atoms: O_3  and  C_25
REMARK    2  A    between atoms: O_3  and  C_26
REMARK    3  A    between atoms: N_6  and  C_19
REMARK    4  A    between atoms: C_9  and  C_15
REMARK    5  A    between atoms: C_19  and  C_20
REMARK                            x       y       z     vdW  Elec       q    Type
REMARK                         _______ _______ _______ _____ _____    ______ ____
ROOT
ATOM      1  O   UNL     1      11.586  12.135  25.647  0.00  0.00    -0.275 OA
ATOM      2  O   UNL     1      10.843   7.351  20.646  0.00  0.00    -0.252 OA
ATOM      4  N   UNL     1      11.891   8.886  22.084  0.00  0.00    -0.278 N 
ATOM      5  N   UNL     1      12.171  11.200  23.603  0.00  0.00    -0.298 N 
ATOM      6  N   UNL     1      13.064   8.081  20.344  0.00  0.00    -0.279 N 
ATOM      7  C   UNL     1      13.225   9.435  22.257  0.00  0.00    +0.112 C 
ATOM      8  C   UNL     1      13.151  10.935  22.532  0.00  0.00    +0.132 C 
ATOM     10  C   UNL     1      13.944   9.057  20.964  0.00  0.00    +0.133 C 
ATOM     11  C   UNL     1      10.858   9.179  23.061  0.00  0.00    +0.128 C 
ATOM     12  C   UNL     1      10.820  10.679  23.343  0.00  0.00    +0.127 C 
ATOM     15  C   UNL     1      12.430  11.905  24.777  0.00  0.00    +0.219 C 
ATOM     18  C   UNL     1      11.811   8.019  20.984  0.00  0.00    +0.306 C 
ENDROOT
BRANCH  15   9
ATOM      9  C   UNL     1      13.832  12.398  24.967  0.00  0.00    +0.075 C 
ATOM     13  C   UNL     1      14.634  11.409  25.820  0.00  0.00    +0.013 C 
ATOM     14  C   UNL     1      13.839  13.724  25.729  0.00  0.00    +0.013 C 
ATOM     16  C   UNL     1      15.166  12.213  27.000  0.00  0.00    +0.001 C 
ATOM     17  C   UNL     1      14.163  13.339  27.166  0.00  0.00    +0.001 C 
ENDBRANCH  15   9
BRANCH   6  19
ATOM     19  C   UNL     1      13.430   7.382  19.133  0.00  0.00    +0.144 C 
BRANCH  19  20
ATOM     20  C   UNL     1      13.278   8.250  17.916  0.00  0.00    -0.030 A 
ATOM     21  C   UNL     1      14.397   8.865  17.353  0.00  0.00    +0.009 A 
ATOM     22  C   UNL     1      12.019   8.439  17.348  0.00  0.00    +0.009 A 
ATOM     23  C   UNL     1      14.255   9.670  16.224  0.00  0.00    +0.046 A 
ATOM     24  C   UNL     1      11.877   9.245  16.218  0.00  0.00    +0.046 A 
ATOM     25  C   UNL     1      12.996   9.861  15.656  0.00  0.00    +0.120 A 
BRANCH  25   3
ATOM      3  O   UNL     1      12.858  10.646  14.553  0.00  0.00    -0.495 OA
ATOM     26  C   UNL     1      13.753  11.750  14.425  0.00  0.00    +0.277 C 
ENDBRANCH  25   3
ENDBRANCH  19  20
ENDBRANCH   6  19
TORSDOF 4
ENDMDL
MODEL 5
REMARK VINA RESULT:      -6.6     26.589     30.330
REMARK  Name = 75368452
REMARK  5 active torsions:
REMARK  status: ('A' for Active; 'I' for Inactive)
REMARK    1  A    between atoms: O_3  and  C_25
REMARK    2  A    between atoms: O_3  and  C_26
REMARK    3  A    between atoms: N_6  and  C_19
REMARK    4  A    between atoms: C_9  and  C_15
REMARK    5  A    between atoms: C_19  and  C_20
REMARK                            x       y       z     vdW  Elec       q    Type
REMARK                         _______ _______ _______ _____ _____    ______ ____
ROOT
ATOM      1  O   UNL     1     -14.478   7.988  19.367  0.00  0.00    -0.275 OA
ATOM      2  O   UNL     1     -18.354   3.972  23.526  0.00  0.00    -0.252 OA
ATOM      4  N   UNL     1     -16.512   5.213  22.759  0.00  0.00    -0.278 N 
ATOM      5  N   UNL     1     -14.720   6.271  20.912  0.00  0.00    -0.298 N 
ATOM      6  N   UNL     1     -16.221   3.849  24.521  0.00  0.00    -0.279 N 
ATOM      7  C   UNL     1     -15.148   5.461  23.192  0.00  0.00    +0.112 C 
ATOM      8  C   UNL     1     -14.196   5.423  21.998  0.00  0.00    +0.132 C 
ATOM     10  C   UNL     1     -14.898   4.382  24.243  0.00  0.00    +0.133 C 
ATOM     11  C   UNL     1     -17.060   5.957  21.640  0.00  0.00    +0.128 C 
ATOM     12  C   UNL     1     -16.081   5.930  20.469  0.00  0.00    +0.127 C 
ATOM     15  C   UNL     1     -14.026   7.308  20.291  0.00  0.00    +0.219 C 
ATOM     18  C   UNL     1     -17.179   4.305  23.595  0.00  0.00    +0.306 C 
ENDROOT
BRANCH  15   9
ATOM      9  C   UNL     1     -12.648   7.593  20.804  0.00  0.00    +0.075 C 
ATOM     13  C   UNL     1     -12.391   9.104  20.830  0.00  0.00    +0.013 C 
ATOM     14  C   UNL     1     -11.591   6.996  19.874  0.00  0.00    +0.013 C 
ATOM     16  C   UNL     1     -11.135   9.328  19.996  0.00  0.00    +0.001 C 
ATOM     17  C   UNL     1     -11.126   8.166  19.019  0.00  0.00    +0.001 C 
ENDBRANCH  15   9
BRANCH   6  19
ATOM     19  C   UNL     1     -16.446   2.862  25.554  0.00  0.00    +0.144 C 
BRANCH  19  20
ATOM     20  C   UNL     1     -16.363   3.460  26.929  0.00  0.00    -0.030 A 
ATOM     21  C   UNL     1     -15.631   2.815  27.927  0.00  0.00    +0.009 A 
ATOM     22  C   UNL     1     -17.016   4.660  27.209  0.00  0.00    +0.009 A 
ATOM     23  C   UNL     1     -15.554   3.371  29.204  0.00  0.00    +0.046 A 
ATOM     24  C   UNL     1     -16.939   5.216  28.486  0.00  0.00    +0.046 A 
ATOM     25  C   UNL     1     -16.208   4.570  29.484  0.00  0.00    +0.120 A 
BRANCH  25   3
ATOM      3  O   UNL     1     -16.132   5.113  30.730  0.00  0.00    -0.495 OA
ATOM     26  C   UNL     1     -16.623   4.325  31.813  0.00  0.00    +0.277 C 
ENDBRANCH  25   3
ENDBRANCH  19  20
ENDBRANCH   6  19
TORSDOF 4
ENDMDL
MODEL 6
REMARK VINA RESULT:      -6.5     27.274     29.167
REMARK  Name = 75368452
REMARK  5 active torsions:
REMARK  status: ('A' for Active; 'I' for Inactive)
REMARK    1  A    between atoms: O_3  and  C_25
REMARK    2  A    between atoms: O_3  and  C_26
REMARK    3  A    between atoms: N_6  and  C_19
REMARK    4  A    between atoms: C_9  and  C_15
REMARK    5  A    between atoms: C_19  and  C_20
REMARK                            x       y       z     vdW  Elec       q    Type
REMARK                         _______ _______ _______ _____ _____    ______ ____
ROOT
ATOM      1  O   UNL     1     -11.036  -9.173  18.186  0.00  0.00    -0.275 OA
ATOM      2  O   UNL     1      -4.573 -11.664  18.881  0.00  0.00    -0.252 OA
ATOM      4  N   UNL     1      -6.364 -10.398  18.038  0.00  0.00    -0.278 N 
ATOM      5  N   UNL     1      -8.989  -9.833  17.309  0.00  0.00    -0.298 N 
ATOM      6  N   UNL     1      -4.459 -10.476  16.848  0.00  0.00    -0.279 N 
ATOM      7  C   UNL     1      -6.587  -9.483  16.931  0.00  0.00    +0.112 C 
ATOM      8  C   UNL     1      -7.938  -9.760  16.276  0.00  0.00    +0.132 C 
ATOM     10  C   UNL     1      -5.379  -9.710  16.024  0.00  0.00    +0.133 C 
ATOM     11  C   UNL     1      -7.395 -10.577  19.043  0.00  0.00    +0.128 C 
ATOM     12  C   UNL     1      -8.742 -10.824  18.368  0.00  0.00    +0.127 C 
ATOM     15  C   UNL     1     -10.159  -9.076  17.324  0.00  0.00    +0.219 C 
ATOM     18  C   UNL     1      -5.069 -10.935  18.032  0.00  0.00    +0.306 C 
ENDROOT
BRANCH  15   9
ATOM      9  C   UNL     1     -10.332  -8.088  16.211  0.00  0.00    +0.075 C 
ATOM     13  C   UNL     1     -10.929  -6.782  16.747  0.00  0.00    +0.013 C 
ATOM     14  C   UNL     1     -11.321  -8.614  15.170  0.00  0.00    +0.013 C 
ATOM     16  C   UNL     1     -12.194  -6.537  15.933  0.00  0.00    +0.001 C 
ATOM     17  C   UNL     1     -12.636  -7.925  15.506  0.00  0.00    +0.001 C 
ENDBRANCH  15   9
BRANCH   6  19
ATOM     19  C   UNL     1      -3.129 -10.814  16.396  0.00  0.00    +0.144 C 
BRANCH  19  20
ATOM     20  C   UNL     1      -3.121 -11.274  14.966  0.00  0.00    -0.030 A 
ATOM     21  C   UNL     1      -2.454 -10.525  13.996  0.00  0.00    +0.009 A 
ATOM     22  C   UNL     1      -3.778 -12.451  14.609  0.00  0.00    +0.009 A 
ATOM     23  C   UNL     1      -2.448 -10.954  12.668  0.00  0.00    +0.046 A 
ATOM     24  C   UNL     1      -3.772 -12.879  13.281  0.00  0.00    +0.046 A 
ATOM     25  C   UNL     1      -3.106 -12.129  12.311  0.00  0.00    +0.120 A 
BRANCH  25   3
ATOM      3  O   UNL     1      -3.098 -12.548  11.015  0.00  0.00    -0.495 OA
ATOM     26  C   UNL     1      -3.929 -11.836  10.098  0.00  0.00    +0.277 C 
ENDBRANCH  25   3
ENDBRANCH  19  20
ENDBRANCH   6  19
TORSDOF 4
ENDMDL
MODEL 7
REMARK VINA RESULT:      -6.5     14.633     17.275
REMARK  Name = 75368452
REMARK  5 active torsions:
REMARK  status: ('A' for Active; 'I' for Inactive)
REMARK    1  A    between atoms: O_3  and  C_25
REMARK    2  A    between atoms: O_3  and  C_26
REMARK    3  A    between atoms: N_6  and  C_19
REMARK    4  A    between atoms: C_9  and  C_15
REMARK    5  A    between atoms: C_19  and  C_20
REMARK                            x       y       z     vdW  Elec       q    Type
REMARK                         _______ _______ _______ _____ _____    ______ ____
ROOT
ATOM      1  O   UNL     1      18.644  10.837   6.304  0.00  0.00    -0.275 OA
ATOM      2  O   UNL     1      11.713  10.524   5.749  0.00  0.00    -0.252 OA
ATOM      4  N   UNL     1      13.941   9.798   5.925  0.00  0.00    -0.278 N 
ATOM      5  N   UNL     1      16.694   9.844   5.526  0.00  0.00    -0.298 N 
ATOM      6  N   UNL     1      12.369   8.292   5.369  0.00  0.00    -0.279 N 
ATOM      7  C   UNL     1      14.648   8.530   5.882  0.00  0.00    +0.112 C 
ATOM      8  C   UNL     1      15.934   8.666   5.068  0.00  0.00    +0.132 C 
ATOM     10  C   UNL     1      13.623   7.561   5.298  0.00  0.00    +0.133 C 
ATOM     11  C   UNL     1      14.653  11.009   6.288  0.00  0.00    +0.128 C 
ATOM     12  C   UNL     1      15.947  11.111   5.485  0.00  0.00    +0.127 C 
ATOM     15  C   UNL     1      18.022   9.833   5.949  0.00  0.00    +0.219 C 
ATOM     18  C   UNL     1      12.566   9.648   5.692  0.00  0.00    +0.306 C 
ENDROOT
BRANCH  15   9
ATOM      9  C   UNL     1      18.709   8.502   5.964  0.00  0.00    +0.075 C 
ATOM     13  C   UNL     1      19.801   8.479   7.040  0.00  0.00    +0.013 C 
ATOM     14  C   UNL     1      19.414   8.242   4.633  0.00  0.00    +0.013 C 
ATOM     16  C   UNL     1      21.090   8.109   6.315  0.00  0.00    +0.001 C 
ATOM     17  C   UNL     1      20.872   8.595   4.895  0.00  0.00    +0.001 C 
ENDBRANCH  15   9
BRANCH   6  19
ATOM     19  C   UNL     1      11.108   7.683   5.007  0.00  0.00    +0.144 C 
BRANCH  19  20
ATOM     20  C   UNL     1      10.632   6.714   6.051  0.00  0.00    -0.030 A 
ATOM     21  C   UNL     1      10.271   5.417   5.686  0.00  0.00    +0.009 A 
ATOM     22  C   UNL     1      10.552   7.110   7.386  0.00  0.00    +0.009 A 
ATOM     23  C   UNL     1       9.830   4.517   6.656  0.00  0.00    +0.046 A 
ATOM     24  C   UNL     1      10.110   6.210   8.356  0.00  0.00    +0.046 A 
ATOM     25  C   UNL     1       9.749   4.913   7.990  0.00  0.00    +0.120 A 
BRANCH  25   3
ATOM      3  O   UNL     1       9.319   4.034   8.936  0.00  0.00    -0.495 OA
ATOM     26  C   UNL     1       9.015   4.565  10.226  0.00  0.00    +0.277 C 
ENDBRANCH  25   3
ENDBRANCH  19  20
ENDBRANCH   6  19
TORSDOF 4
ENDMDL
MODEL 8
REMARK VINA RESULT:      -6.5      4.827      9.798
REMARK  Name = 75368452
REMARK  5 active torsions:
REMARK  status: ('A' for Active; 'I' for Inactive)
REMARK    1  A    between atoms: O_3  and  C_25
REMARK    2  A    between atoms: O_3  and  C_26
REMARK    3  A    between atoms: N_6  and  C_19
REMARK    4  A    between atoms: C_9  and  C_15
REMARK    5  A    between atoms: C_19  and  C_20
REMARK                            x       y       z     vdW  Elec       q    Type
REMARK                         _______ _______ _______ _____ _____    ______ ____
ROOT
ATOM      1  O   UNL     1      23.812   5.388  20.703  0.00  0.00    -0.275 OA
ATOM      2  O   UNL     1      18.624  10.005  21.166  0.00  0.00    -0.252 OA
ATOM      4  N   UNL     1      19.759   7.951  21.293  0.00  0.00    -0.278 N 
ATOM      5  N   UNL     1      21.568   5.969  20.558  0.00  0.00    -0.298 N 
ATOM      6  N   UNL     1      17.520   7.945  21.480  0.00  0.00    -0.279 N 
ATOM      7  C   UNL     1      19.421   6.570  21.590  0.00  0.00    +0.112 C 
ATOM      8  C   UNL     1      20.135   5.628  20.622  0.00  0.00    +0.132 C 
ATOM     10  C   UNL     1      17.897   6.542  21.501  0.00  0.00    +0.133 C 
ATOM     11  C   UNL     1      21.150   8.335  21.134  0.00  0.00    +0.128 C 
ATOM     12  C   UNL     1      21.852   7.365  20.187  0.00  0.00    +0.127 C 
ATOM     15  C   UNL     1      22.620   5.083  20.788  0.00  0.00    +0.219 C 
ATOM     18  C   UNL     1      18.634   8.788  21.300  0.00  0.00    +0.306 C 
ENDROOT
BRANCH  15   9
ATOM      9  C   UNL     1      22.245   3.683  21.163  0.00  0.00    +0.075 C 
ATOM     13  C   UNL     1      22.159   3.546  22.688  0.00  0.00    +0.013 C 
ATOM     14  C   UNL     1      23.319   2.695  20.706  0.00  0.00    +0.013 C 
ATOM     16  C   UNL     1      23.111   2.415  23.059  0.00  0.00    +0.001 C 
ATOM     17  C   UNL     1      24.149   2.425  21.953  0.00  0.00    +0.001 C 
ENDBRANCH  15   9
BRANCH   6  19
ATOM     19  C   UNL     1      16.137   8.366  21.506  0.00  0.00    +0.144 C 
BRANCH  19  20
ATOM     20  C   UNL     1      15.509   8.317  20.143  0.00  0.00    -0.030 A 
ATOM     21  C   UNL     1      15.215   9.501  19.466  0.00  0.00    +0.009 A 
ATOM     22  C   UNL     1      15.221   7.087  19.552  0.00  0.00    +0.009 A 
ATOM     23  C   UNL     1      14.632   9.454  18.200  0.00  0.00    +0.046 A 
ATOM     24  C   UNL     1      14.638   7.040  18.286  0.00  0.00    +0.046 A 
ATOM     25  C   UNL     1      14.343   8.225  17.610  0.00  0.00    +0.120 A 
BRANCH  25   3
ATOM      3  O   UNL     1      13.775   8.179  16.374  0.00  0.00    -0.495 OA
ATOM     26  C   UNL     1      12.975   9.295  15.985  0.00  0.00    +0.277 C 
ENDBRANCH  25   3
ENDBRANCH  19  20
ENDBRANCH   6  19
TORSDOF 4
ENDMDL
MODEL 9
REMARK VINA RESULT:      -6.4     28.327     31.159
REMARK  Name = 75368452
REMARK  5 active torsions:
REMARK  status: ('A' for Active; 'I' for Inactive)
REMARK    1  A    between atoms: O_3  and  C_25
REMARK    2  A    between atoms: O_3  and  C_26
REMARK    3  A    between atoms: N_6  and  C_19
REMARK    4  A    between atoms: C_9  and  C_15
REMARK    5  A    between atoms: C_19  and  C_20
REMARK                            x       y       z     vdW  Elec       q    Type
REMARK                         _______ _______ _______ _____ _____    ______ ____
ROOT
ATOM      1  O   UNL     1      -7.589 -12.043  17.418  0.00  0.00    -0.275 OA
ATOM      2  O   UNL     1     -13.231  -8.891  14.833  0.00  0.00    -0.252 OA
ATOM      4  N   UNL     1     -11.017  -9.189  15.560  0.00  0.00    -0.278 N 
ATOM      5  N   UNL     1      -8.941 -10.177  17.128  0.00  0.00    -0.298 N 
ATOM      6  N   UNL     1     -11.740  -7.097  15.172  0.00  0.00    -0.279 N 
ATOM      7  C   UNL     1      -9.841  -8.356  15.746  0.00  0.00    +0.112 C 
ATOM      8  C   UNL     1      -9.134  -8.717  17.051  0.00  0.00    +0.132 C 
ATOM     10  C   UNL     1     -10.393  -6.933  15.691  0.00  0.00    +0.133 C 
ATOM     11  C   UNL     1     -10.909 -10.629  15.705  0.00  0.00    +0.128 C 
ATOM     12  C   UNL     1     -10.175 -10.968  16.999  0.00  0.00    +0.127 C 
ATOM     15  C   UNL     1      -7.721 -10.820  17.332  0.00  0.00    +0.219 C 
ATOM     18  C   UNL     1     -12.134  -8.449  15.146  0.00  0.00    +0.306 C 
ENDROOT
BRANCH  15   9
ATOM      9  C   UNL     1      -6.513  -9.942  17.449  0.00  0.00    +0.075 C 
ATOM     13  C   UNL     1      -5.687  -9.999  16.158  0.00  0.00    +0.013 C 
ATOM     14  C   UNL     1      -5.593 -10.434  18.567  0.00  0.00    +0.013 C 
ATOM     16  C   UNL     1      -4.286 -10.427  16.579  0.00  0.00    +0.001 C 
ATOM     17  C   UNL     1      -4.507 -11.224  17.851  0.00  0.00    +0.001 C 
ENDBRANCH  15   9
BRANCH   6  19
ATOM     19  C   UNL     1     -12.584  -5.965  14.863  0.00  0.00    +0.144 C 
BRANCH  19  20
ATOM     20  C   UNL     1     -12.457  -5.544  13.427  0.00  0.00    -0.030 A 
ATOM     21  C   UNL     1     -12.496  -6.503  12.414  0.00  0.00    +0.009 A 
ATOM     22  C   UNL     1     -12.302  -4.196  13.106  0.00  0.00    +0.009 A 
ATOM     23  C   UNL     1     -12.378  -6.111  11.080  0.00  0.00    +0.046 A 
ATOM     24  C   UNL     1     -12.185  -3.805  11.772  0.00  0.00    +0.046 A 
ATOM     25  C   UNL     1     -12.223  -4.764  10.759  0.00  0.00    +0.120 A 
BRANCH  25   3
ATOM      3  O   UNL     1     -12.109  -4.382   9.457  0.00  0.00    -0.495 OA
ATOM     26  C   UNL     1     -11.089  -3.435   9.145  0.00  0.00    +0.277 C 
ENDBRANCH  25   3
ENDBRANCH  19  20
ENDBRANCH   6  19
TORSDOF 4
ENDMDL
MODEL 10
REMARK VINA RESULT:      -6.3      2.091      2.991
REMARK  Name = 75368452
REMARK  5 active torsions:
REMARK  status: ('A' for Active; 'I' for Inactive)
REMARK    1  A    between atoms: O_3  and  C_25
REMARK    2  A    between atoms: O_3  and  C_26
REMARK    3  A    between atoms: N_6  and  C_19
REMARK    4  A    between atoms: C_9  and  C_15
REMARK    5  A    between atoms: C_19  and  C_20
REMARK                            x       y       z     vdW  Elec       q    Type
REMARK                         _______ _______ _______ _____ _____    ______ ____
ROOT
ATOM      1  O   UNL     1      10.601  10.296  23.274  0.00  0.00    -0.275 OA
ATOM      2  O   UNL     1      16.117   7.105  20.472  0.00  0.00    -0.252 OA
ATOM      4  N   UNL     1      14.873   8.673  21.704  0.00  0.00    -0.278 N 
ATOM      5  N   UNL     1      12.721  10.324  22.325  0.00  0.00    -0.298 N 
ATOM      6  N   UNL     1      17.035   9.120  21.284  0.00  0.00    -0.279 N 
ATOM      7  C   UNL     1      15.140   9.903  22.429  0.00  0.00    +0.112 C 
ATOM      8  C   UNL     1      14.051  10.936  22.143  0.00  0.00    +0.132 C 
ATOM     10  C   UNL     1      16.538  10.304  21.963  0.00  0.00    +0.133 C 
ATOM     11  C   UNL     1      13.557   8.065  21.775  0.00  0.00    +0.128 C 
ATOM     12  C   UNL     1      12.483   9.119  21.516  0.00  0.00    +0.127 C 
ATOM     15  C   UNL     1      11.715  10.813  23.158  0.00  0.00    +0.219 C 
ATOM     18  C   UNL     1      16.021   8.164  21.079  0.00  0.00    +0.306 C 
ENDROOT
BRANCH  15   9
ATOM      9  C   UNL     1      12.040  12.041  23.950  0.00  0.00    +0.075 C 
ATOM     13  C   UNL     1      11.387  11.969  25.336  0.00  0.00    +0.013 C 
ATOM     14  C   UNL     1      11.469  13.287  23.273  0.00  0.00    +0.013 C 
ATOM     16  C   UNL     1      10.534  13.226  25.460  0.00  0.00    +0.001 C 
ATOM     17  C   UNL     1      10.179  13.578  24.027  0.00  0.00    +0.001 C 
ENDBRANCH  15   9
BRANCH   6  19
ATOM     19  C   UNL     1      18.386   9.040  20.776  0.00  0.00    +0.144 C 
BRANCH  19  20
ATOM     20  C   UNL     1      19.191   7.988  21.483  0.00  0.00    -0.030 A 
ATOM     21  C   UNL     1      19.550   6.817  20.815  0.00  0.00    +0.009 A 
ATOM     22  C   UNL     1      19.582   8.182  22.808  0.00  0.00    +0.009 A 
ATOM     23  C   UNL     1      20.297   5.840  21.473  0.00  0.00    +0.046 A 
ATOM     24  C   UNL     1      20.329   7.206  23.466  0.00  0.00    +0.046 A 
ATOM     25  C   UNL     1      20.687   6.034  22.798  0.00  0.00    +0.120 A 
BRANCH  25   3
ATOM      3  O   UNL     1      21.418   5.081  23.439  0.00  0.00    -0.495 OA
ATOM     26  C   UNL     1      22.188   4.197  22.627  0.00  0.00    +0.277 C 
ENDBRANCH  25   3
ENDBRANCH  19  20
ENDBRANCH   6  19
TORSDOF 4
ENDMDL
