REMARK  Name = 45783484
REMARK  9 active torsions:
REMARK  status: ('A' for Active; 'I' for Inactive)
REMARK    1  A    between atoms: O_4  and  C_30
REMARK    2  A    between atoms: O_4  and  C_31
REMARK    3  A    between atoms: N_5  and  C_14
REMARK    4  A    between atoms: N_9  and  C_28
REMARK    5  A    between atoms: N_9  and  C_29
REMARK    6  A    between atoms: C_10  and  C_15
REMARK    7  A    between atoms: C_14  and  C_16
REMARK    8  A    between atoms: C_19  and  C_23
REMARK    9  A    between atoms: C_29  and  C_30
REMARK                            x       y       z     vdW  Elec       q    Type
REMARK                         _______ _______ _______ _____ _____    ______ ____
ROOT
ATOM      1  O   UNL     1      -2.476  -1.873   1.806  0.00  0.00    -0.336 OA
ATOM      6  N   UNL     1      -1.544  -1.180  -0.109  0.00  0.00    -0.190 NA
ATOM      7  N   UNL     1      -1.091  -1.907   2.013  0.00  0.00    -0.056 NA
ATOM     15  C   UNL     1      -2.656  -1.435   0.532  0.00  0.00    +0.245 A 
ATOM     19  C   UNL     1      -0.611  -1.484   0.839  0.00  0.00    +0.204 A 
ENDROOT
BRANCH  19  23
ATOM      8  N   UNL     1       3.068  -1.571   1.376  0.00  0.00    -0.240 NA
ATOM     23  C   UNL     1       0.795  -1.357   0.582  0.00  0.00    +0.041 A 
ATOM     25  C   UNL     1       1.260  -0.915  -0.652  0.00  0.00    +0.016 A 
ATOM     26  C   UNL     1       1.731  -1.669   1.554  0.00  0.00    +0.124 A 
ATOM     27  C   UNL     1       2.628  -0.801  -0.873  0.00  0.00    +0.044 A 
ATOM     28  C   UNL     1       3.483  -1.138   0.164  0.00  0.00    +0.119 A 
BRANCH  28   9
ATOM      9  N   UNL     1       4.874  -1.018  -0.076  0.00  0.00    -0.327 N 
ATOM     32  H   UNL     1       5.488  -1.264   0.692  0.00  0.00    +0.148 HD
BRANCH   9  29
ATOM     29  C   UNL     1       5.404  -0.571  -1.323  0.00  0.00    +0.131 C 
BRANCH  29  30
ATOM     30  C   UNL     1       6.923  -0.584  -1.276  0.00  0.00    +0.178 C 
BRANCH  30   4
ATOM      4  O   UNL     1       7.373   0.307  -0.264  0.00  0.00    -0.381 OA
ATOM     31  C   UNL     1       8.791   0.333  -0.186  0.00  0.00    +0.194 C 
ENDBRANCH  30   4
ENDBRANCH  29  30
ENDBRANCH   9  29
ENDBRANCH  28   9
ENDBRANCH  19  23
BRANCH  15  10
ATOM      5  N   UNL     1      -4.250  -0.283  -0.992  0.00  0.00    -0.287 NA
ATOM     10  C   UNL     1      -4.088  -1.308   0.059  0.00  0.00    +0.146 C 
ATOM     11  C   UNL     1      -4.621  -2.606  -0.576  0.00  0.00    +0.030 C 
ATOM     12  C   UNL     1      -5.116  -2.200  -1.957  0.00  0.00    +0.017 C 
ATOM     13  C   UNL     1      -5.378  -0.714  -1.819  0.00  0.00    +0.085 C 
BRANCH   5  14
ATOM     14  C   UNL     1      -4.443   1.060  -0.460  0.00  0.00    +0.120 C 
BRANCH  14  16
ATOM      2  O   UNL     1       0.164   2.667  -1.290  0.00  0.00    -0.453 OA
ATOM      3  O   UNL     1       0.453   3.383   0.993  0.00  0.00    -0.453 OA
ATOM     16  C   UNL     1      -3.141   1.685  -0.034  0.00  0.00    -0.030 A 
ATOM     17  C   UNL     1      -2.113   1.849  -0.966  0.00  0.00    +0.054 A 
ATOM     18  C   UNL     1      -2.972   2.103   1.298  0.00  0.00    +0.009 A 
ATOM     20  C   UNL     1      -0.940   2.430  -0.530  0.00  0.00    +0.167 A 
ATOM     21  C   UNL     1      -1.774   2.688   1.713  0.00  0.00    +0.050 A 
ATOM     22  C   UNL     1      -0.775   2.838   0.774  0.00  0.00    +0.166 A 
ATOM     24  C   UNL     1       1.042   3.272  -0.318  0.00  0.00    +0.466 C 
ENDBRANCH  14  16
ENDBRANCH   5  14
ENDBRANCH  15  10
TORSDOF 8
