MODEL 1
REMARK VINA RESULT:      -6.9      0.000      0.000
REMARK  Name = 40777102
REMARK  8 active torsions:
REMARK  status: ('A' for Active; 'I' for Inactive)
REMARK    1  A    between atoms: O_3  and  C_22
REMARK    2  A    between atoms: O_3  and  C_29
REMARK    3  A    between atoms: N_5  and  C_15
REMARK    4  A    between atoms: C_9  and  C_16
REMARK    5  A    between atoms: C_10  and  C_15
REMARK    6  A    between atoms: C_18  and  C_21
REMARK    7  A    between atoms: C_19  and  C_22
REMARK    8  A    between atoms: C_20  and  C_23
REMARK                            x       y       z     vdW  Elec       q    Type
REMARK                         _______ _______ _______ _____ _____    ______ ____
ROOT
ATOM      4  N   UNL     1      -6.056 -10.440   9.877  0.00  0.00    -0.297 NA
ATOM      8  C   UNL     1      -3.865  -9.256  10.642  0.00  0.00    +0.002 C 
ATOM      9  C   UNL     1      -3.795 -10.779  10.945  0.00  0.00    +0.055 C 
ATOM     10  C   UNL     1      -6.384  -9.248  10.702  0.00  0.00    +0.074 C 
ATOM     11  C   UNL     1      -5.107  -8.655  11.334  0.00  0.00    +0.024 C 
ATOM     12  C   UNL     1      -4.083  -9.116   9.119  0.00  0.00    +0.019 C 
ATOM     13  C   UNL     1      -5.201 -11.375  10.651  0.00  0.00    +0.094 C 
ATOM     14  C   UNL     1      -5.285  -9.978   8.697  0.00  0.00    +0.085 C 
ENDROOT
BRANCH   9  16
ATOM      6  N   UNL     1      -2.446 -10.346  12.939  0.00  0.00    -0.237 NA
ATOM      7  N   UNL     1      -2.248 -11.950  14.727  0.00  0.00    -0.232 NA
ATOM     16  C   UNL     1      -3.253 -11.218  12.299  0.00  0.00    +0.050 A 
ATOM     17  C   UNL     1      -3.598 -12.456  12.800  0.00  0.00    +0.052 A 
ATOM     18  C   UNL     1      -3.061 -12.771  14.031  0.00  0.00    +0.076 A 
ATOM     20  C   UNL     1      -1.986 -10.771  14.132  0.00  0.00    +0.127 A 
ATOM     23  C   UNL     1      -1.088  -9.837  14.870  0.00  0.00    +0.088 C 
BRANCH  18  21
ATOM      1 BR   UNL     1      -1.010 -15.124  13.339  0.00  0.00    -0.050 Br
ATOM     21  C   UNL     1      -3.344 -14.037  14.665  0.00  0.00    +0.014 A 
ATOM     24  C   UNL     1      -2.542 -15.160  14.464  0.00  0.00    +0.027 A 
ATOM     25  C   UNL     1      -4.457 -14.116  15.501  0.00  0.00    +0.011 A 
ATOM     26  C   UNL     1      -2.853 -16.363  15.098  0.00  0.00    +0.016 A 
ATOM     27  C   UNL     1      -4.769 -15.319  16.136  0.00  0.00    +0.001 A 
ATOM     28  C   UNL     1      -3.966 -16.442  15.933  0.00  0.00    +0.001 A 
ENDBRANCH  18  21
ENDBRANCH   9  16
BRANCH  10  15
ATOM     15  C   UNL     1      -7.456  -9.544  11.753  0.00  0.00    +0.123 C 
BRANCH  15   5
ATOM      2  O   UNL     1      -6.739 -11.427  13.829  0.00  0.00    -0.272 OA
ATOM      5  N   UNL     1      -6.979  -9.240  13.068  0.00  0.00    -0.311 N 
ATOM     19  C   UNL     1      -6.656 -10.215  14.010  0.00  0.00    +0.251 C 
ATOM     35  H   UNL     1      -6.878  -8.262  13.322  0.00  0.00    +0.149 HD
BRANCH  19  22
ATOM     22  C   UNL     1      -6.179  -9.613  15.314  0.00  0.00    +0.324 C 
BRANCH  22   3
ATOM      3  O   UNL     1      -5.082 -10.340  15.827  0.00  0.00    -0.483 OA
BRANCH   3  29
ATOM     29  C   UNL     1      -5.137 -10.710  17.150  0.00  0.00    +0.121 A 
ATOM     30  C   UNL     1      -4.082 -11.422  17.720  0.00  0.00    +0.045 A 
ATOM     31  C   UNL     1      -6.249 -10.372  17.922  0.00  0.00    +0.045 A 
ATOM     32  C   UNL     1      -4.139 -11.797  19.062  0.00  0.00    +0.004 A 
ATOM     33  C   UNL     1      -6.306 -10.747  19.264  0.00  0.00    +0.004 A 
ATOM     34  C   UNL     1      -5.251 -11.459  19.834  0.00  0.00    +0.000 A 
ENDBRANCH   3  29
ENDBRANCH  22   3
ENDBRANCH  19  22
ENDBRANCH  15   5
ENDBRANCH  10  15
TORSDOF 7
ENDMDL
MODEL 2
REMARK VINA RESULT:      -6.8     23.590     26.451
REMARK  Name = 40777102
REMARK  8 active torsions:
REMARK  status: ('A' for Active; 'I' for Inactive)
REMARK    1  A    between atoms: O_3  and  C_22
REMARK    2  A    between atoms: O_3  and  C_29
REMARK    3  A    between atoms: N_5  and  C_15
REMARK    4  A    between atoms: C_9  and  C_16
REMARK    5  A    between atoms: C_10  and  C_15
REMARK    6  A    between atoms: C_18  and  C_21
REMARK    7  A    between atoms: C_19  and  C_22
REMARK    8  A    between atoms: C_20  and  C_23
REMARK                            x       y       z     vdW  Elec       q    Type
REMARK                         _______ _______ _______ _____ _____    ______ ____
ROOT
ATOM      4  N   UNL     1       8.300  10.257   2.416  0.00  0.00    -0.297 NA
ATOM      8  C   UNL     1       7.236   9.697   4.727  0.00  0.00    +0.002 C 
ATOM      9  C   UNL     1       8.424  10.684   4.900  0.00  0.00    +0.055 C 
ATOM     10  C   UNL     1       8.163   8.785   2.569  0.00  0.00    +0.074 C 
ATOM     11  C   UNL     1       7.730   8.425   4.006  0.00  0.00    +0.024 C 
ATOM     12  C   UNL     1       6.221  10.385   3.788  0.00  0.00    +0.019 C 
ATOM     13  C   UNL     1       9.127  10.809   3.518  0.00  0.00    +0.094 C 
ATOM     14  C   UNL     1       6.945  10.852   2.513  0.00  0.00    +0.085 C 
ENDROOT
BRANCH   9  16
ATOM      6  N   UNL     1       9.050  10.849   7.259  0.00  0.00    -0.237 NA
ATOM      7  N   UNL     1      11.144   9.999   8.094  0.00  0.00    -0.232 NA
ATOM     16  C   UNL     1       9.413  10.427   6.029  0.00  0.00    +0.050 A 
ATOM     17  C   UNL     1      10.608   9.794   5.756  0.00  0.00    +0.052 A 
ATOM     18  C   UNL     1      11.442   9.604   6.839  0.00  0.00    +0.076 A 
ATOM     20  C   UNL     1       9.950  10.605   8.230  0.00  0.00    +0.127 A 
ATOM     23  C   UNL     1       9.586  11.058   9.604  0.00  0.00    +0.088 C 
BRANCH  18  21
ATOM      1 BR   UNL     1      13.866  11.544   6.072  0.00  0.00    -0.050 Br
ATOM     21  C   UNL     1      12.723   8.955   6.687  0.00  0.00    +0.014 A 
ATOM     24  C   UNL     1      13.877   9.665   6.355  0.00  0.00    +0.027 A 
ATOM     25  C   UNL     1      12.785   7.576   6.884  0.00  0.00    +0.011 A 
ATOM     26  C   UNL     1      15.093   8.995   6.219  0.00  0.00    +0.016 A 
ATOM     27  C   UNL     1      14.002   6.906   6.748  0.00  0.00    +0.001 A 
ATOM     28  C   UNL     1      15.155   7.617   6.416  0.00  0.00    +0.001 A 
ENDBRANCH  18  21
ENDBRANCH   9  16
BRANCH  10  15
ATOM     15  C   UNL     1       9.430   8.036   2.151  0.00  0.00    +0.123 C 
BRANCH  15   5
ATOM      2  O   UNL     1      10.349   5.293   2.127  0.00  0.00    -0.272 OA
ATOM      5  N   UNL     1       9.973   7.298   3.250  0.00  0.00    -0.311 N 
ATOM     19  C   UNL     1      10.393   5.972   3.150  0.00  0.00    +0.251 C 
ATOM     35  H   UNL     1      10.050   7.768   4.146  0.00  0.00    +0.149 HD
BRANCH  19  22
ATOM     22  C   UNL     1      10.924   5.440   4.463  0.00  0.00    +0.324 C 
BRANCH  22   3
ATOM      3  O   UNL     1       9.903   4.783   5.184  0.00  0.00    -0.483 OA
BRANCH   3  29
ATOM     29  C   UNL     1       9.661   5.216   6.466  0.00  0.00    +0.121 A 
ATOM     30  C   UNL     1       9.858   4.353   7.543  0.00  0.00    +0.045 A 
ATOM     31  C   UNL     1       9.217   6.520   6.689  0.00  0.00    +0.045 A 
ATOM     32  C   UNL     1       9.612   4.793   8.844  0.00  0.00    +0.004 A 
ATOM     33  C   UNL     1       8.971   6.960   7.989  0.00  0.00    +0.004 A 
ATOM     34  C   UNL     1       9.169   6.097   9.066  0.00  0.00    +0.000 A 
ENDBRANCH   3  29
ENDBRANCH  22   3
ENDBRANCH  19  22
ENDBRANCH  15   5
ENDBRANCH  10  15
TORSDOF 7
ENDMDL
MODEL 3
REMARK VINA RESULT:      -6.4     23.588     26.729
REMARK  Name = 40777102
REMARK  8 active torsions:
REMARK  status: ('A' for Active; 'I' for Inactive)
REMARK    1  A    between atoms: O_3  and  C_22
REMARK    2  A    between atoms: O_3  and  C_29
REMARK    3  A    between atoms: N_5  and  C_15
REMARK    4  A    between atoms: C_9  and  C_16
REMARK    5  A    between atoms: C_10  and  C_15
REMARK    6  A    between atoms: C_18  and  C_21
REMARK    7  A    between atoms: C_19  and  C_22
REMARK    8  A    between atoms: C_20  and  C_23
REMARK                            x       y       z     vdW  Elec       q    Type
REMARK                         _______ _______ _______ _____ _____    ______ ____
ROOT
ATOM      4  N   UNL     1      14.299   9.996   5.630  0.00  0.00    -0.297 NA
ATOM      8  C   UNL     1      14.028   7.412   5.817  0.00  0.00    +0.002 C 
ATOM      9  C   UNL     1      13.533   7.913   4.432  0.00  0.00    +0.055 C 
ATOM     10  C   UNL     1      13.607   9.648   6.898  0.00  0.00    +0.074 C 
ATOM     11  C   UNL     1      13.252   8.147   6.931  0.00  0.00    +0.024 C 
ATOM     12  C   UNL     1      15.508   7.836   5.940  0.00  0.00    +0.019 C 
ATOM     13  C   UNL     1      13.536   9.467   4.471  0.00  0.00    +0.094 C 
ATOM     14  C   UNL     1      15.630   9.341   5.645  0.00  0.00    +0.085 C 
ENDROOT
BRANCH   9  16
ATOM      6  N   UNL     1      12.198   6.031   3.618  0.00  0.00    -0.237 NA
ATOM      7  N   UNL     1       9.908   6.290   2.915  0.00  0.00    -0.232 NA
ATOM     16  C   UNL     1      12.224   7.352   3.890  0.00  0.00    +0.050 A 
ATOM     17  C   UNL     1      11.149   8.196   3.704  0.00  0.00    +0.052 A 
ATOM     18  C   UNL     1      10.005   7.603   3.209  0.00  0.00    +0.076 A 
ATOM     20  C   UNL     1      11.025   5.573   3.140  0.00  0.00    +0.127 A 
ATOM     23  C   UNL     1      10.957   4.117   2.825  0.00  0.00    +0.088 C 
BRANCH  18  21
ATOM      1 BR   UNL     1       9.502   8.407   0.155  0.00  0.00    -0.050 Br
ATOM     21  C   UNL     1       8.810   8.376   2.968  0.00  0.00    +0.014 A 
ATOM     24  C   UNL     1       8.452   8.804   1.689  0.00  0.00    +0.027 A 
ATOM     25  C   UNL     1       8.004   8.694   4.060  0.00  0.00    +0.011 A 
ATOM     26  C   UNL     1       7.287   9.548   1.503  0.00  0.00    +0.016 A 
ATOM     27  C   UNL     1       6.839   9.439   3.875  0.00  0.00    +0.001 A 
ATOM     28  C   UNL     1       6.481   9.866   2.596  0.00  0.00    +0.001 A 
ENDBRANCH  18  21
ENDBRANCH   9  16
BRANCH  10  15
ATOM     15  C   UNL     1      12.381  10.529   7.152  0.00  0.00    +0.123 C 
BRANCH  15   5
ATOM      2  O   UNL     1      10.291  10.666   9.148  0.00  0.00    -0.272 OA
ATOM      5  N   UNL     1      11.189   9.741   7.209  0.00  0.00    -0.311 N 
ATOM     19  C   UNL     1      10.229   9.873   8.212  0.00  0.00    +0.251 C 
ATOM     35  H   UNL     1      11.042   9.049   6.480  0.00  0.00    +0.149 HD
BRANCH  19  22
ATOM     22  C   UNL     1       9.072   8.915   8.026  0.00  0.00    +0.324 C 
BRANCH  22   3
ATOM      3  O   UNL     1       9.374   7.956   7.035  0.00  0.00    -0.483 OA
BRANCH   3  29
ATOM     29  C   UNL     1       9.504   6.650   7.444  0.00  0.00    +0.121 A 
ATOM     30  C   UNL     1       9.293   6.314   8.780  0.00  0.00    +0.045 A 
ATOM     31  C   UNL     1       9.846   5.661   6.521  0.00  0.00    +0.045 A 
ATOM     32  C   UNL     1       9.425   4.989   9.195  0.00  0.00    +0.004 A 
ATOM     33  C   UNL     1       9.978   4.336   6.936  0.00  0.00    +0.004 A 
ATOM     34  C   UNL     1       9.768   4.000   8.273  0.00  0.00    +0.000 A 
ENDBRANCH   3  29
ENDBRANCH  22   3
ENDBRANCH  19  22
ENDBRANCH  15   5
ENDBRANCH  10  15
TORSDOF 7
ENDMDL
MODEL 4
REMARK VINA RESULT:      -6.4     24.378     27.279
REMARK  Name = 40777102
REMARK  8 active torsions:
REMARK  status: ('A' for Active; 'I' for Inactive)
REMARK    1  A    between atoms: O_3  and  C_22
REMARK    2  A    between atoms: O_3  and  C_29
REMARK    3  A    between atoms: N_5  and  C_15
REMARK    4  A    between atoms: C_9  and  C_16
REMARK    5  A    between atoms: C_10  and  C_15
REMARK    6  A    between atoms: C_18  and  C_21
REMARK    7  A    between atoms: C_19  and  C_22
REMARK    8  A    between atoms: C_20  and  C_23
REMARK                            x       y       z     vdW  Elec       q    Type
REMARK                         _______ _______ _______ _____ _____    ______ ____
ROOT
ATOM      4  N   UNL     1      17.272  -8.273  27.768  0.00  0.00    -0.297 NA
ATOM      8  C   UNL     1      16.331  -7.515  25.460  0.00  0.00    +0.002 C 
ATOM      9  C   UNL     1      17.836  -7.883  25.340  0.00  0.00    +0.055 C 
ATOM     10  C   UNL     1      16.543  -6.986  27.914  0.00  0.00    +0.074 C 
ATOM     11  C   UNL     1      16.159  -6.417  26.532  0.00  0.00    +0.024 C 
ATOM     12  C   UNL     1      15.605  -8.774  25.981  0.00  0.00    +0.019 C 
ATOM     13  C   UNL     1      18.370  -8.127  26.780  0.00  0.00    +0.094 C 
ATOM     14  C   UNL     1      16.314  -9.280  27.249  0.00  0.00    +0.085 C 
ENDROOT
BRANCH   9  16
ATOM      6  N   UNL     1      18.699  -7.084  23.195  0.00  0.00    -0.237 NA
ATOM      7  N   UNL     1      20.343  -5.328  23.046  0.00  0.00    -0.232 NA
ATOM     16  C   UNL     1      18.741  -6.957  24.538  0.00  0.00    +0.050 A 
ATOM     17  C   UNL     1      19.546  -6.053  25.199  0.00  0.00    +0.052 A 
ATOM     18  C   UNL     1      20.333  -5.256  24.394  0.00  0.00    +0.076 A 
ATOM     20  C   UNL     1      19.514  -6.250  22.521  0.00  0.00    +0.127 A 
ATOM     23  C   UNL     1      19.498  -6.361  21.034  0.00  0.00    +0.088 C 
BRANCH  18  21
ATOM      1 BR   UNL     1      23.257  -6.325  25.128  0.00  0.00    -0.050 Br
ATOM     21  C   UNL     1      21.222  -4.270  24.961  0.00  0.00    +0.014 A 
ATOM     24  C   UNL     1      22.530  -4.581  25.334  0.00  0.00    +0.027 A 
ATOM     25  C   UNL     1      20.737  -2.974  25.134  0.00  0.00    +0.011 A 
ATOM     26  C   UNL     1      23.353  -3.595  25.878  0.00  0.00    +0.016 A 
ATOM     27  C   UNL     1      21.561  -1.988  25.679  0.00  0.00    +0.001 A 
ATOM     28  C   UNL     1      22.868  -2.299  26.051  0.00  0.00    +0.001 A 
ENDBRANCH  18  21
ENDBRANCH   9  16
BRANCH  10  15
ATOM     15  C   UNL     1      17.321  -5.969  28.753  0.00  0.00    +0.123 C 
BRANCH  15   5
ATOM      2  O   UNL     1      17.680  -3.265  29.716  0.00  0.00    -0.272 OA
ATOM      5  N   UNL     1      17.651  -4.813  27.977  0.00  0.00    -0.311 N 
ATOM     19  C   UNL     1      17.806  -3.540  28.525  0.00  0.00    +0.251 C 
ATOM     35  H   UNL     1      17.773  -4.932  26.976  0.00  0.00    +0.149 HD
BRANCH  19  22
ATOM     22  C   UNL     1      18.153  -2.505  27.477  0.00  0.00    +0.324 C 
BRANCH  22   3
ATOM      3  O   UNL     1      17.029  -2.210  26.676  0.00  0.00    -0.483 OA
BRANCH   3  29
ATOM     29  C   UNL     1      17.194  -2.279  25.313  0.00  0.00    +0.121 A 
ATOM     30  C   UNL     1      17.005  -3.489  24.647  0.00  0.00    +0.045 A 
ATOM     31  C   UNL     1      17.552  -1.137  24.595  0.00  0.00    +0.045 A 
ATOM     32  C   UNL     1      17.173  -3.559  23.265  0.00  0.00    +0.004 A 
ATOM     33  C   UNL     1      17.720  -1.206  23.213  0.00  0.00    +0.004 A 
ATOM     34  C   UNL     1      17.530  -2.417  22.547  0.00  0.00    +0.000 A 
ENDBRANCH   3  29
ENDBRANCH  22   3
ENDBRANCH  19  22
ENDBRANCH  15   5
ENDBRANCH  10  15
TORSDOF 7
ENDMDL
MODEL 5
REMARK VINA RESULT:      -6.3     23.718     27.014
REMARK  Name = 40777102
REMARK  8 active torsions:
REMARK  status: ('A' for Active; 'I' for Inactive)
REMARK    1  A    between atoms: O_3  and  C_22
REMARK    2  A    between atoms: O_3  and  C_29
REMARK    3  A    between atoms: N_5  and  C_15
REMARK    4  A    between atoms: C_9  and  C_16
REMARK    5  A    between atoms: C_10  and  C_15
REMARK    6  A    between atoms: C_18  and  C_21
REMARK    7  A    between atoms: C_19  and  C_22
REMARK    8  A    between atoms: C_20  and  C_23
REMARK                            x       y       z     vdW  Elec       q    Type
REMARK                         _______ _______ _______ _____ _____    ______ ____
ROOT
ATOM      4  N   UNL     1       9.933   5.676   5.952  0.00  0.00    -0.297 NA
ATOM      8  C   UNL     1       9.654   7.900   7.279  0.00  0.00    +0.002 C 
ATOM      9  C   UNL     1       8.504   7.735   6.247  0.00  0.00    +0.055 C 
ATOM     10  C   UNL     1      11.210   6.435   5.946  0.00  0.00    +0.074 C 
ATOM     11  C   UNL     1      11.010   7.844   6.545  0.00  0.00    +0.024 C 
ATOM     12  C   UNL     1       9.592   6.672   8.214  0.00  0.00    +0.019 C 
ATOM     13  C   UNL     1       8.847   6.501   5.365  0.00  0.00    +0.094 C 
ATOM     14  C   UNL     1       9.582   5.389   7.365  0.00  0.00    +0.085 C 
ENDROOT
BRANCH   9  16
ATOM      6  N   UNL     1       8.507  10.152   5.869  0.00  0.00    -0.237 NA
ATOM      7  N   UNL     1       7.417  11.155   3.969  0.00  0.00    -0.232 NA
ATOM     16  C   UNL     1       8.105   8.946   5.415  0.00  0.00    +0.050 A 
ATOM     17  C   UNL     1       7.366   8.767   4.264  0.00  0.00    +0.052 A 
ATOM     18  C   UNL     1       7.048   9.919   3.574  0.00  0.00    +0.076 A 
ATOM     20  C   UNL     1       8.134  11.198   5.107  0.00  0.00    +0.127 A 
ATOM     23  C   UNL     1       8.558  12.548   5.577  0.00  0.00    +0.088 C 
BRANCH  18  21
ATOM      1 BR   UNL     1       8.745   9.386   0.916  0.00  0.00    -0.050 Br
ATOM     21  C   UNL     1       6.278   9.868   2.354  0.00  0.00    +0.014 A 
ATOM     24  C   UNL     1       6.872   9.644   1.112  0.00  0.00    +0.027 A 
ATOM     25  C   UNL     1       4.898  10.052   2.444  0.00  0.00    +0.011 A 
ATOM     26  C   UNL     1       6.087   9.603  -0.040  0.00  0.00    +0.016 A 
ATOM     27  C   UNL     1       4.113  10.011   1.291  0.00  0.00    +0.001 A 
ATOM     28  C   UNL     1       4.708   9.787   0.050  0.00  0.00    +0.001 A 
ENDBRANCH  18  21
ENDBRANCH   9  16
BRANCH  10  15
ATOM     15  C   UNL     1      11.846   6.493   4.555  0.00  0.00    +0.123 C 
BRANCH  15   5
ATOM      2  O   UNL     1      11.011   6.205   1.801  0.00  0.00    -0.272 OA
ATOM      5  N   UNL     1      11.626   5.271   3.843  0.00  0.00    -0.311 N 
ATOM     19  C   UNL     1      11.222   5.224   2.509  0.00  0.00    +0.251 C 
ATOM     35  H   UNL     1      11.770   4.398   4.341  0.00  0.00    +0.149 HD
BRANCH  19  22
ATOM     22  C   UNL     1      11.066   3.804   2.010  0.00  0.00    +0.324 C 
BRANCH  22   3
ATOM      3  O   UNL     1      12.295   3.112   2.083  0.00  0.00    -0.483 OA
BRANCH   3  29
ATOM     29  C   UNL     1      13.254   3.436   1.153  0.00  0.00    +0.121 A 
ATOM     30  C   UNL     1      12.908   3.560  -0.192  0.00  0.00    +0.045 A 
ATOM     31  C   UNL     1      14.574   3.641   1.556  0.00  0.00    +0.045 A 
ATOM     32  C   UNL     1      13.882   3.888  -1.135  0.00  0.00    +0.004 A 
ATOM     33  C   UNL     1      15.548   3.969   0.613  0.00  0.00    +0.004 A 
ATOM     34  C   UNL     1      15.202   4.093  -0.732  0.00  0.00    +0.000 A 
ENDBRANCH   3  29
ENDBRANCH  22   3
ENDBRANCH  19  22
ENDBRANCH  15   5
ENDBRANCH  10  15
TORSDOF 7
ENDMDL
MODEL 6
REMARK VINA RESULT:      -6.2     23.897     27.006
REMARK  Name = 40777102
REMARK  8 active torsions:
REMARK  status: ('A' for Active; 'I' for Inactive)
REMARK    1  A    between atoms: O_3  and  C_22
REMARK    2  A    between atoms: O_3  and  C_29
REMARK    3  A    between atoms: N_5  and  C_15
REMARK    4  A    between atoms: C_9  and  C_16
REMARK    5  A    between atoms: C_10  and  C_15
REMARK    6  A    between atoms: C_18  and  C_21
REMARK    7  A    between atoms: C_19  and  C_22
REMARK    8  A    between atoms: C_20  and  C_23
REMARK                            x       y       z     vdW  Elec       q    Type
REMARK                         _______ _______ _______ _____ _____    ______ ____
ROOT
ATOM      4  N   UNL     1      14.277   5.221   0.115  0.00  0.00    -0.297 NA
ATOM      8  C   UNL     1      11.966   4.291   0.877  0.00  0.00    +0.002 C 
ATOM      9  C   UNL     1      11.778   5.526  -0.049  0.00  0.00    +0.055 C 
ATOM     10  C   UNL     1      14.264   5.038   1.590  0.00  0.00    +0.074 C 
ATOM     11  C   UNL     1      12.844   4.688   2.083  0.00  0.00    +0.024 C 
ATOM     12  C   UNL     1      12.758   3.243   0.064  0.00  0.00    +0.019 C 
ATOM     13  C   UNL     1      13.186   6.140  -0.294  0.00  0.00    +0.094 C 
ATOM     14  C   UNL     1      14.027   3.899  -0.508  0.00  0.00    +0.085 C 
ENDROOT
BRANCH   9  16
ATOM      6  N   UNL     1      10.096   7.197  -0.649  0.00  0.00    -0.237 NA
ATOM      7  N   UNL     1       8.902   8.471   1.012  0.00  0.00    -0.232 NA
ATOM     16  C   UNL     1      10.752   6.576   0.353  0.00  0.00    +0.050 A 
ATOM     17  C   UNL     1      10.541   6.844   1.690  0.00  0.00    +0.052 A 
ATOM     18  C   UNL     1       9.594   7.810   1.962  0.00  0.00    +0.076 A 
ATOM     20  C   UNL     1       9.199   8.120  -0.254  0.00  0.00    +0.127 A 
ATOM     23  C   UNL     1       8.455   8.830  -1.333  0.00  0.00    +0.088 C 
BRANCH  18  21
ATOM      1 BR   UNL     1      11.290  10.261   3.122  0.00  0.00    -0.050 Br
ATOM     21  C   UNL     1       9.281   8.184   3.321  0.00  0.00    +0.014 A 
ATOM     24  C   UNL     1       9.934   9.233   3.969  0.00  0.00    +0.027 A 
ATOM     25  C   UNL     1       8.293   7.461   3.988  0.00  0.00    +0.011 A 
ATOM     26  C   UNL     1       9.598   9.560   5.282  0.00  0.00    +0.016 A 
ATOM     27  C   UNL     1       7.956   7.787   5.303  0.00  0.00    +0.001 A 
ATOM     28  C   UNL     1       8.609   8.837   5.949  0.00  0.00    +0.001 A 
ENDBRANCH  18  21
ENDBRANCH   9  16
BRANCH  10  15
ATOM     15  C   UNL     1      14.843   6.246   2.331  0.00  0.00    +0.123 C 
BRANCH  15   5
ATOM      2  O   UNL     1      15.604   7.449   4.849  0.00  0.00    -0.272 OA
ATOM      5  N   UNL     1      13.972   6.661   3.388  0.00  0.00    -0.311 N 
ATOM     19  C   UNL     1      14.427   7.235   4.575  0.00  0.00    +0.251 C 
ATOM     35  H   UNL     1      12.974   6.525   3.262  0.00  0.00    +0.149 HD
BRANCH  19  22
ATOM     22  C   UNL     1      13.291   7.578   5.515  0.00  0.00    +0.324 C 
BRANCH  22   3
ATOM      3  O   UNL     1      12.069   7.063   5.030  0.00  0.00    -0.483 OA
BRANCH   3  29
ATOM     29  C   UNL     1      11.317   6.309   5.899  0.00  0.00    +0.121 A 
ATOM     30  C   UNL     1      11.331   6.597   7.263  0.00  0.00    +0.045 A 
ATOM     31  C   UNL     1      10.539   5.256   5.416  0.00  0.00    +0.045 A 
ATOM     32  C   UNL     1      10.568   5.833   8.145  0.00  0.00    +0.004 A 
ATOM     33  C   UNL     1       9.776   4.492   6.298  0.00  0.00    +0.004 A 
ATOM     34  C   UNL     1       9.790   4.780   7.662  0.00  0.00    +0.000 A 
ENDBRANCH   3  29
ENDBRANCH  22   3
ENDBRANCH  19  22
ENDBRANCH  15   5
ENDBRANCH  10  15
TORSDOF 7
ENDMDL
MODEL 7
REMARK VINA RESULT:      -6.2      3.707      6.631
REMARK  Name = 40777102
REMARK  8 active torsions:
REMARK  status: ('A' for Active; 'I' for Inactive)
REMARK    1  A    between atoms: O_3  and  C_22
REMARK    2  A    between atoms: O_3  and  C_29
REMARK    3  A    between atoms: N_5  and  C_15
REMARK    4  A    between atoms: C_9  and  C_16
REMARK    5  A    between atoms: C_10  and  C_15
REMARK    6  A    between atoms: C_18  and  C_21
REMARK    7  A    between atoms: C_19  and  C_22
REMARK    8  A    between atoms: C_20  and  C_23
REMARK                            x       y       z     vdW  Elec       q    Type
REMARK                         _______ _______ _______ _____ _____    ______ ____
ROOT
ATOM      4  N   UNL     1      -4.803 -10.157  11.927  0.00  0.00    -0.297 NA
ATOM      8  C   UNL     1      -4.242  -9.548   9.457  0.00  0.00    +0.002 C 
ATOM      9  C   UNL     1      -5.113 -10.834   9.517  0.00  0.00    +0.055 C 
ATOM     10  C   UNL     1      -3.343  -9.918  11.782  0.00  0.00    +0.074 C 
ATOM     11  C   UNL     1      -2.962  -9.761  10.294  0.00  0.00    +0.024 C 
ATOM     12  C   UNL     1      -5.053  -8.429  10.146  0.00  0.00    +0.019 C 
ATOM     13  C   UNL     1      -5.234 -11.243  11.012  0.00  0.00    +0.094 C 
ATOM     14  C   UNL     1      -5.508  -8.914  11.534  0.00  0.00    +0.085 C 
ENDROOT
BRANCH   9  16
ATOM      6  N   UNL     1      -4.523 -13.192   9.239  0.00  0.00    -0.237 NA
ATOM      7  N   UNL     1      -4.025 -14.146   7.083  0.00  0.00    -0.232 NA
ATOM     16  C   UNL     1      -4.725 -12.007   8.626  0.00  0.00    +0.050 A 
ATOM     17  C   UNL     1      -4.597 -11.815   7.266  0.00  0.00    +0.052 A 
ATOM     18  C   UNL     1      -4.242 -12.931   6.537  0.00  0.00    +0.076 A 
ATOM     20  C   UNL     1      -4.181 -14.204   8.419  0.00  0.00    +0.127 A 
ATOM     23  C   UNL     1      -3.947 -15.530   9.060  0.00  0.00    +0.088 C 
BRANCH  18  21
ATOM      1 BR   UNL     1      -6.914 -13.367   4.834  0.00  0.00    -0.050 Br
ATOM     21  C   UNL     1      -4.074 -12.863   5.105  0.00  0.00    +0.014 A 
ATOM     24  C   UNL     1      -5.144 -13.033   4.226  0.00  0.00    +0.027 A 
ATOM     25  C   UNL     1      -2.795 -12.621   4.607  0.00  0.00    +0.011 A 
ATOM     26  C   UNL     1      -4.935 -12.959   2.849  0.00  0.00    +0.016 A 
ATOM     27  C   UNL     1      -2.585 -12.546   3.229  0.00  0.00    +0.001 A 
ATOM     28  C   UNL     1      -3.655 -12.716   2.351  0.00  0.00    +0.001 A 
ENDBRANCH  18  21
ENDBRANCH   9  16
BRANCH  10  15
ATOM     15  C   UNL     1      -2.505 -10.996  12.474  0.00  0.00    +0.123 C 
BRANCH  15   5
ATOM      2  O   UNL     1      -1.084  -9.775  14.678  0.00  0.00    -0.272 OA
ATOM      5  N   UNL     1      -2.831 -11.081  13.865  0.00  0.00    -0.311 N 
ATOM     19  C   UNL     1      -2.088 -10.458  14.866  0.00  0.00    +0.251 C 
ATOM     35  H   UNL     1      -3.645 -11.628  14.129  0.00  0.00    +0.149 HD
BRANCH  19  22
ATOM     22  C   UNL     1      -2.658 -10.714  16.244  0.00  0.00    +0.324 C 
BRANCH  22   3
ATOM      3  O   UNL     1      -4.012 -10.319  16.305  0.00  0.00    -0.483 OA
BRANCH   3  29
ATOM     29  C   UNL     1      -4.720 -10.676  17.428  0.00  0.00    +0.121 A 
ATOM     30  C   UNL     1      -6.049 -10.276  17.571  0.00  0.00    +0.045 A 
ATOM     31  C   UNL     1      -4.110 -11.440  18.423  0.00  0.00    +0.045 A 
ATOM     32  C   UNL     1      -6.767 -10.639  18.710  0.00  0.00    +0.004 A 
ATOM     33  C   UNL     1      -4.828 -11.803  19.563  0.00  0.00    +0.004 A 
ATOM     34  C   UNL     1      -6.157 -11.402  19.706  0.00  0.00    +0.000 A 
ENDBRANCH   3  29
ENDBRANCH  22   3
ENDBRANCH  19  22
ENDBRANCH  15   5
ENDBRANCH  10  15
TORSDOF 7
ENDMDL
MODEL 8
REMARK VINA RESULT:      -6.2      3.399      5.892
REMARK  Name = 40777102
REMARK  8 active torsions:
REMARK  status: ('A' for Active; 'I' for Inactive)
REMARK    1  A    between atoms: O_3  and  C_22
REMARK    2  A    between atoms: O_3  and  C_29
REMARK    3  A    between atoms: N_5  and  C_15
REMARK    4  A    between atoms: C_9  and  C_16
REMARK    5  A    between atoms: C_10  and  C_15
REMARK    6  A    between atoms: C_18  and  C_21
REMARK    7  A    between atoms: C_19  and  C_22
REMARK    8  A    between atoms: C_20  and  C_23
REMARK                            x       y       z     vdW  Elec       q    Type
REMARK                         _______ _______ _______ _____ _____    ______ ____
ROOT
ATOM      4  N   UNL     1     -11.448 -10.069  15.941  0.00  0.00    -0.297 NA
ATOM      8  C   UNL     1      -9.149  -8.844  15.921  0.00  0.00    +0.002 C 
ATOM      9  C   UNL     1      -9.136 -10.044  14.933  0.00  0.00    +0.055 C 
ATOM     10  C   UNL     1     -10.958  -9.885  17.332  0.00  0.00    +0.074 C 
ATOM     11  C   UNL     1      -9.510  -9.352  17.333  0.00  0.00    +0.024 C 
ATOM     12  C   UNL     1     -10.292  -7.909  15.469  0.00  0.00    +0.019 C 
ATOM     13  C   UNL     1     -10.455 -10.837  15.148  0.00  0.00    +0.094 C 
ATOM     14  C   UNL     1     -11.589  -8.725  15.328  0.00  0.00    +0.085 C 
ENDROOT
BRANCH   9  16
ATOM      6  N   UNL     1      -7.970 -12.056  15.692  0.00  0.00    -0.237 NA
ATOM      7  N   UNL     1      -5.749 -12.613  14.941  0.00  0.00    -0.232 NA
ATOM     16  C   UNL     1      -7.913 -10.950  14.920  0.00  0.00    +0.050 A 
ATOM     17  C   UNL     1      -6.824 -10.613  14.143  0.00  0.00    +0.052 A 
ATOM     18  C   UNL     1      -5.761 -11.491  14.193  0.00  0.00    +0.076 A 
ATOM     20  C   UNL     1      -6.869 -12.831  15.655  0.00  0.00    +0.127 A 
ATOM     23  C   UNL     1      -6.893 -14.062  16.497  0.00  0.00    +0.088 C 
BRANCH  18  21
ATOM      1 BR   UNL     1      -5.910 -12.375  11.123  0.00  0.00    -0.050 Br
ATOM     21  C   UNL     1      -4.560 -11.252  13.427  0.00  0.00    +0.014 A 
ATOM     24  C   UNL     1      -4.468 -11.582  12.074  0.00  0.00    +0.027 A 
ATOM     25  C   UNL     1      -3.473 -10.672  14.078  0.00  0.00    +0.011 A 
ATOM     26  C   UNL     1      -3.288 -11.332  11.374  0.00  0.00    +0.016 A 
ATOM     27  C   UNL     1      -2.292 -10.421  13.378  0.00  0.00    +0.001 A 
ATOM     28  C   UNL     1      -2.200 -10.752  12.026  0.00  0.00    +0.001 A 
ENDBRANCH  18  21
ENDBRANCH   9  16
BRANCH  10  15
ATOM     15  C   UNL     1     -11.098 -11.158  18.171  0.00  0.00    +0.123 C 
BRANCH  15   5
ATOM      2  O   UNL     1      -9.817 -13.719  18.575  0.00  0.00    -0.272 OA
ATOM      5  N   UNL     1      -9.900 -11.417  18.908  0.00  0.00    -0.311 N 
ATOM     19  C   UNL     1      -9.349 -12.690  19.054  0.00  0.00    +0.251 C 
ATOM     35  H   UNL     1      -9.434 -10.629  19.349  0.00  0.00    +0.149 HD
BRANCH  19  22
ATOM     22  C   UNL     1      -8.083 -12.673  19.882  0.00  0.00    +0.324 C 
BRANCH  22   3
ATOM      3  O   UNL     1      -7.477 -11.398  19.841  0.00  0.00    -0.483 OA
BRANCH   3  29
ATOM     29  C   UNL     1      -6.312 -11.280  19.121  0.00  0.00    +0.121 A 
ATOM     30  C   UNL     1      -6.178 -10.267  18.171  0.00  0.00    +0.045 A 
ATOM     31  C   UNL     1      -5.263 -12.173  19.341  0.00  0.00    +0.045 A 
ATOM     32  C   UNL     1      -4.996 -10.148  17.441  0.00  0.00    +0.004 A 
ATOM     33  C   UNL     1      -4.081 -12.053  18.611  0.00  0.00    +0.004 A 
ATOM     34  C   UNL     1      -3.947 -11.041  17.661  0.00  0.00    +0.000 A 
ENDBRANCH   3  29
ENDBRANCH  22   3
ENDBRANCH  19  22
ENDBRANCH  15   5
ENDBRANCH  10  15
TORSDOF 7
ENDMDL
MODEL 9
REMARK VINA RESULT:      -6.2      2.543      5.441
REMARK  Name = 40777102
REMARK  8 active torsions:
REMARK  status: ('A' for Active; 'I' for Inactive)
REMARK    1  A    between atoms: O_3  and  C_22
REMARK    2  A    between atoms: O_3  and  C_29
REMARK    3  A    between atoms: N_5  and  C_15
REMARK    4  A    between atoms: C_9  and  C_16
REMARK    5  A    between atoms: C_10  and  C_15
REMARK    6  A    between atoms: C_18  and  C_21
REMARK    7  A    between atoms: C_19  and  C_22
REMARK    8  A    between atoms: C_20  and  C_23
REMARK                            x       y       z     vdW  Elec       q    Type
REMARK                         _______ _______ _______ _____ _____    ______ ____
ROOT
ATOM      4  N   UNL     1      -2.771 -14.125  12.211  0.00  0.00    -0.297 NA
ATOM      8  C   UNL     1      -5.072 -14.367  13.408  0.00  0.00    +0.002 C 
ATOM      9  C   UNL     1      -5.149 -13.286  12.294  0.00  0.00    +0.055 C 
ATOM     10  C   UNL     1      -2.587 -14.062  13.685  0.00  0.00    +0.074 C 
ATOM     11  C   UNL     1      -3.952 -13.995  14.402  0.00  0.00    +0.024 C 
ATOM     12  C   UNL     1      -4.650 -15.684  12.721  0.00  0.00    +0.019 C 
ATOM     13  C   UNL     1      -3.704 -13.057  11.769  0.00  0.00    +0.094 C 
ATOM     14  C   UNL     1      -3.382 -15.436  11.886  0.00  0.00    +0.085 C 
ENDROOT
BRANCH   9  16
ATOM      6  N   UNL     1      -5.823 -11.022  11.659  0.00  0.00    -0.237 NA
ATOM      7  N   UNL     1      -7.122  -9.612  13.118  0.00  0.00    -0.232 NA
ATOM     16  C   UNL     1      -5.863 -11.979  12.609  0.00  0.00    +0.050 A 
ATOM     17  C   UNL     1      -6.503 -11.829  13.822  0.00  0.00    +0.052 A 
ATOM     18  C   UNL     1      -7.122 -10.612  14.023  0.00  0.00    +0.076 A 
ATOM     20  C   UNL     1      -6.463  -9.881  11.975  0.00  0.00    +0.127 A 
ATOM     23  C   UNL     1      -6.439  -8.798  10.950  0.00  0.00    +0.088 C 
BRANCH  18  21
ATOM      1 BR   UNL     1     -10.042 -11.897  14.246  0.00  0.00    -0.050 Br
ATOM     21  C   UNL     1      -7.825 -10.328  15.252  0.00  0.00    +0.014 A 
ATOM     24  C   UNL     1      -9.108 -10.816  15.500  0.00  0.00    +0.027 A 
ATOM     25  C   UNL     1      -7.183  -9.539  16.206  0.00  0.00    +0.011 A 
ATOM     26  C   UNL     1      -9.748 -10.516  16.702  0.00  0.00    +0.016 A 
ATOM     27  C   UNL     1      -7.824  -9.238  17.409  0.00  0.00    +0.001 A 
ATOM     28  C   UNL     1      -9.107  -9.727  17.656  0.00  0.00    +0.001 A 
ENDBRANCH  18  21
ENDBRANCH   9  16
BRANCH  10  15
ATOM     15  C   UNL     1      -1.664 -12.917  14.108  0.00  0.00    +0.123 C 
BRANCH  15   5
ATOM      2  O   UNL     1      -3.070 -10.393  13.960  0.00  0.00    -0.272 OA
ATOM      5  N   UNL     1      -2.231 -12.179  15.195  0.00  0.00    -0.311 N 
ATOM     19  C   UNL     1      -2.895 -10.964  15.033  0.00  0.00    +0.251 C 
ATOM     35  H   UNL     1      -2.137 -12.564  16.130  0.00  0.00    +0.149 HD
BRANCH  19  22
ATOM     22  C   UNL     1      -3.392 -10.405  16.349  0.00  0.00    +0.324 C 
BRANCH  22   3
ATOM      3  O   UNL     1      -3.394 -11.405  17.346  0.00  0.00    -0.483 OA
BRANCH   3  29
ATOM     29  C   UNL     1      -4.605 -11.726  17.912  0.00  0.00    +0.121 A 
ATOM     30  C   UNL     1      -4.975 -11.165  19.134  0.00  0.00    +0.045 A 
ATOM     31  C   UNL     1      -5.464 -12.613  17.262  0.00  0.00    +0.045 A 
ATOM     32  C   UNL     1      -6.204 -11.491  19.707  0.00  0.00    +0.004 A 
ATOM     33  C   UNL     1      -6.693 -12.939  17.836  0.00  0.00    +0.004 A 
ATOM     34  C   UNL     1      -7.063 -12.378  19.058  0.00  0.00    +0.000 A 
ENDBRANCH   3  29
ENDBRANCH  22   3
ENDBRANCH  19  22
ENDBRANCH  15   5
ENDBRANCH  10  15
TORSDOF 7
ENDMDL
MODEL 10
REMARK VINA RESULT:      -6.1      3.748      8.323
REMARK  Name = 40777102
REMARK  8 active torsions:
REMARK  status: ('A' for Active; 'I' for Inactive)
REMARK    1  A    between atoms: O_3  and  C_22
REMARK    2  A    between atoms: O_3  and  C_29
REMARK    3  A    between atoms: N_5  and  C_15
REMARK    4  A    between atoms: C_9  and  C_16
REMARK    5  A    between atoms: C_10  and  C_15
REMARK    6  A    between atoms: C_18  and  C_21
REMARK    7  A    between atoms: C_19  and  C_22
REMARK    8  A    between atoms: C_20  and  C_23
REMARK                            x       y       z     vdW  Elec       q    Type
REMARK                         _______ _______ _______ _____ _____    ______ ____
ROOT
ATOM      4  N   UNL     1      -5.120 -12.945  17.148  0.00  0.00    -0.297 NA
ATOM      8  C   UNL     1      -5.292 -10.348  17.272  0.00  0.00    +0.002 C 
ATOM      9  C   UNL     1      -6.680 -10.971  16.954  0.00  0.00    +0.055 C 
ATOM     10  C   UNL     1      -4.062 -12.325  16.309  0.00  0.00    +0.074 C 
ATOM     11  C   UNL     1      -4.274 -10.799  16.203  0.00  0.00    +0.024 C 
ATOM     12  C   UNL     1      -4.833 -10.950  18.618  0.00  0.00    +0.019 C 
ATOM     13  C   UNL     1      -6.459 -12.489  16.698  0.00  0.00    +0.094 C 
ATOM     14  C   UNL     1      -4.921 -12.484  18.544  0.00  0.00    +0.085 C 
ENDROOT
BRANCH   9  16
ATOM      6  N   UNL     1      -7.154 -10.542  14.593  0.00  0.00    -0.237 NA
ATOM      7  N   UNL     1      -9.009  -9.176  13.884  0.00  0.00    -0.232 NA
ATOM     16  C   UNL     1      -7.528 -10.320  15.870  0.00  0.00    +0.050 A 
ATOM     17  C   UNL     1      -8.614  -9.549  16.229  0.00  0.00    +0.052 A 
ATOM     18  C   UNL     1      -9.325  -8.997  15.183  0.00  0.00    +0.076 A 
ATOM     20  C   UNL     1      -7.928  -9.948  13.664  0.00  0.00    +0.127 A 
ATOM     23  C   UNL     1      -7.546 -10.168  12.240  0.00  0.00    +0.088 C 
BRANCH  18  21
ATOM      1 BR   UNL     1     -12.131 -10.530  15.123  0.00  0.00    -0.050 Br
ATOM     21  C   UNL     1     -10.483  -8.168  15.424  0.00  0.00    +0.014 A 
ATOM     24  C   UNL     1     -11.777  -8.688  15.430  0.00  0.00    +0.027 A 
ATOM     25  C   UNL     1     -10.277  -6.808  15.655  0.00  0.00    +0.011 A 
ATOM     26  C   UNL     1     -12.865  -7.849  15.668  0.00  0.00    +0.016 A 
ATOM     27  C   UNL     1     -11.366  -5.968  15.893  0.00  0.00    +0.001 A 
ATOM     28  C   UNL     1     -12.660  -6.490  15.899  0.00  0.00    +0.001 A 
ENDBRANCH  18  21
ENDBRANCH   9  16
BRANCH  10  15
ATOM     15  C   UNL     1      -3.952 -12.982  14.931  0.00  0.00    +0.123 C 
BRANCH  15   5
ATOM      2  O   UNL     1      -1.364 -13.008  13.640  0.00  0.00    -0.272 OA
ATOM      5  N   UNL     1      -3.462 -12.052  13.960  0.00  0.00    -0.311 N 
ATOM     19  C   UNL     1      -2.194 -12.140  13.386  0.00  0.00    +0.251 C 
ATOM     35  H   UNL     1      -4.073 -11.290  13.682  0.00  0.00    +0.149 HD
BRANCH  19  22
ATOM     22  C   UNL     1      -1.940 -11.028  12.391  0.00  0.00    +0.324 C 
BRANCH  22   3
ATOM      3  O   UNL     1      -3.104 -10.251  12.203  0.00  0.00    -0.483 OA
BRANCH   3  29
ATOM     29  C   UNL     1      -3.623 -10.196  10.932  0.00  0.00    +0.121 A 
ATOM     30  C   UNL     1      -3.925 -11.374  10.250  0.00  0.00    +0.045 A 
ATOM     31  C   UNL     1      -3.848  -8.960  10.323  0.00  0.00    +0.045 A 
ATOM     32  C   UNL     1      -4.452 -11.318   8.960  0.00  0.00    +0.004 A 
ATOM     33  C   UNL     1      -4.375  -8.904   9.033  0.00  0.00    +0.004 A 
ATOM     34  C   UNL     1      -4.677 -10.083   8.352  0.00  0.00    +0.000 A 
ENDBRANCH   3  29
ENDBRANCH  22   3
ENDBRANCH  19  22
ENDBRANCH  15   5
ENDBRANCH  10  15
TORSDOF 7
ENDMDL
