MODEL 1
REMARK VINA RESULT:      -7.2      0.000      0.000
REMARK  Name = 11882508
REMARK  5 active torsions:
REMARK  status: ('A' for Active; 'I' for Inactive)
REMARK    1  A    between atoms: N_6  and  C_13
REMARK    2  A    between atoms: CA_17  and  CB_20
REMARK    3  A    between atoms: CB_20  and  CG_22
REMARK    4  A    between atoms: C_21  and  C_24
REMARK    5  A    between atoms: C_23  and  C_27
REMARK                            x       y       z     vdW  Elec       q    Type
REMARK                         _______ _______ _______ _____ _____    ______ ____
ROOT
ATOM      1  O   PHE A   2      -1.419 -11.206  15.433  0.00  0.00    -0.274 OA
ATOM      2  O   UNK A   1      -6.422  -9.906  14.152  0.00  0.00    -0.274 OA
ATOM      5  N   UNK A   1      -3.709 -11.404  15.809  0.00  0.00    -0.288 N 
ATOM      7  N   PHE A   2      -4.175  -9.881  13.676  0.00  0.00    -0.302 N 
ATOM     12  C   UNK A   1      -5.012 -11.599  15.169  0.00  0.00    +0.164 C 
ATOM     13  C   UNK A   1      -6.029 -11.022  17.433  0.00  0.00    +0.113 C 
ATOM     14  C   UNK A   1      -6.128 -11.909  16.176  0.00  0.00    +0.059 C 
ATOM     15  C   UNK A   1      -4.614 -11.017  18.056  0.00  0.00    +0.046 C 
ATOM     16  C   UNK A   1      -3.591 -11.776  17.215  0.00  0.00    +0.110 C 
ATOM     17  CA  PHE A   2      -2.895 -10.572  13.655  0.00  0.00    +0.163 C 
ATOM     18  C   PHE A   2      -2.582 -11.065  15.059  0.00  0.00    +0.237 C 
ATOM     19  C   UNK A   1      -5.295 -10.363  14.330  0.00  0.00    +0.234 C 
ATOM     31  H   PHE A   2      -4.293  -9.078  13.064  0.00  0.00    +0.150 HD
ENDROOT
BRANCH  13   6
ATOM      6  N   UNK A   1      -7.075 -11.343  18.413  0.00  0.00    -0.236 N 
ATOM      8  N   UNK A   1      -6.814 -12.195  19.412  0.00  0.00    -0.064 NA
ATOM      9  N   UNK A   1      -7.925 -12.296  20.135  0.00  0.00    -0.124 NA
ATOM     21  C   UNK A   1      -8.346 -10.874  18.457  0.00  0.00    +0.156 A 
ATOM     23  C   UNK A   1      -8.872 -11.493  19.563  0.00  0.00    +0.179 A 
BRANCH  21  24
ATOM      3  O   UNK A   1      -9.580 -10.303  16.524  0.00  0.00    -0.269 OA
ATOM     10  N   UNK A   1      -8.815  -8.586  17.814  0.00  0.00    -0.324 N 
ATOM     24  C   UNK A   1      -8.940  -9.954  17.543  0.00  0.00    +0.262 C 
ATOM     32  H   UNK A   1      -8.318  -8.242  18.629  0.00  0.00    +0.145 HD
ATOM     33  H   UNK A   1      -9.227  -7.893  17.198  0.00  0.00    +0.145 HD
ENDBRANCH  21  24
BRANCH  23  27
ATOM      4  O   UNK A   1     -11.026 -12.296  20.116  0.00  0.00    -0.269 OA
ATOM     11  N   UNK A   1     -10.566 -10.121  20.618  0.00  0.00    -0.324 N 
ATOM     27  C   UNK A   1     -10.196 -11.360  20.088  0.00  0.00    +0.264 C 
ATOM     34  H   UNK A   1      -9.930  -9.329  20.631  0.00  0.00    +0.145 HD
ATOM     35  H   UNK A   1     -11.490  -9.977  21.010  0.00  0.00    +0.145 HD
ENDBRANCH  23  27
ENDBRANCH  13   6
BRANCH  17  20
ATOM     20  CB  PHE A   2      -2.830 -11.681  12.617  0.00  0.00    +0.067 C 
BRANCH  20  22
ATOM     22  CG  PHE A   2      -3.359 -11.228  11.281  0.00  0.00    -0.045 A 
ATOM     25  CD1 PHE A   2      -4.081 -12.116  10.496  0.00  0.00    +0.004 A 
ATOM     26  CD2 PHE A   2      -3.117  -9.930  10.856  0.00  0.00    +0.004 A 
ATOM     28  CE1 PHE A   2      -4.569 -11.697   9.259  0.00  0.00    +0.000 A 
ATOM     29  CE2 PHE A   2      -3.608  -9.510   9.620  0.00  0.00    +0.000 A 
ATOM     30  CZ  PHE A   2      -4.334 -10.394   8.821  0.00  0.00    +0.000 A 
ENDBRANCH  20  22
ENDBRANCH  17  20
TORSDOF 5
ENDMDL
MODEL 2
REMARK VINA RESULT:      -7.0      4.719      7.688
REMARK  Name = 11882508
REMARK  5 active torsions:
REMARK  status: ('A' for Active; 'I' for Inactive)
REMARK    1  A    between atoms: N_6  and  C_13
REMARK    2  A    between atoms: CA_17  and  CB_20
REMARK    3  A    between atoms: CB_20  and  CG_22
REMARK    4  A    between atoms: C_21  and  C_24
REMARK    5  A    between atoms: C_23  and  C_27
REMARK                            x       y       z     vdW  Elec       q    Type
REMARK                         _______ _______ _______ _____ _____    ______ ____
ROOT
ATOM      1  O   PHE A   2      -8.757 -10.708   8.391  0.00  0.00    -0.274 OA
ATOM      2  O   UNK A   1      -3.854  -8.743   9.072  0.00  0.00    -0.274 OA
ATOM      5  N   UNK A   1      -7.072  -9.950   9.809  0.00  0.00    -0.288 N 
ATOM      7  N   PHE A   2      -5.598  -9.307   7.686  0.00  0.00    -0.302 N 
ATOM     12  C   UNK A   1      -6.079  -8.895  10.028  0.00  0.00    +0.164 C 
ATOM     13  C   UNK A   1      -5.139 -10.386  11.868  0.00  0.00    +0.113 C 
ATOM     14  C   UNK A   1      -5.462  -8.943  11.433  0.00  0.00    +0.059 C 
ATOM     15  C   UNK A   1      -6.330 -11.352  11.681  0.00  0.00    +0.046 C 
ATOM     16  C   UNK A   1      -7.518 -10.702  10.976  0.00  0.00    +0.110 C 
ATOM     17  CA  PHE A   2      -7.029  -9.349   7.436  0.00  0.00    +0.163 C 
ATOM     18  C   PHE A   2      -7.705 -10.097   8.575  0.00  0.00    +0.237 C 
ATOM     19  C   UNK A   1      -5.045  -9.008   8.919  0.00  0.00    +0.234 C 
ATOM     31  H   PHE A   2      -4.972  -9.361   6.888  0.00  0.00    +0.150 HD
ENDROOT
BRANCH  13   6
ATOM      6  N   UNK A   1      -4.581 -10.435  13.226  0.00  0.00    -0.236 N 
ATOM      8  N   UNK A   1      -5.382 -10.250  14.283  0.00  0.00    -0.064 NA
ATOM      9  N   UNK A   1      -4.620 -10.348  15.368  0.00  0.00    -0.124 NA
ATOM     21  C   UNK A   1      -3.294 -10.655  13.590  0.00  0.00    +0.156 A 
ATOM     23  C   UNK A   1      -3.340 -10.596  14.960  0.00  0.00    +0.179 A 
BRANCH  21  24
ATOM      3  O   UNK A   1      -1.584  -9.977  12.106  0.00  0.00    -0.269 OA
ATOM     10  N   UNK A   1      -1.765 -12.209  12.533  0.00  0.00    -0.324 N 
ATOM     24  C   UNK A   1      -2.195 -10.888  12.710  0.00  0.00    +0.262 C 
ATOM     32  H   UNK A   1      -2.213 -12.988  13.004  0.00  0.00    +0.145 HD
ATOM     33  H   UNK A   1      -0.983 -12.425  11.924  0.00  0.00    +0.145 HD
ENDBRANCH  21  24
BRANCH  23  27
ATOM      4  O   UNK A   1      -1.083 -10.388  15.634  0.00  0.00    -0.269 OA
ATOM     11  N   UNK A   1      -2.526 -11.348  17.113  0.00  0.00    -0.324 N 
ATOM     27  C   UNK A   1      -2.252 -10.761  15.875  0.00  0.00    +0.264 C 
ATOM     34  H   UNK A   1      -3.458 -11.661  17.368  0.00  0.00    +0.145 HD
ATOM     35  H   UNK A   1      -1.792 -11.480  17.801  0.00  0.00    +0.145 HD
ENDBRANCH  23  27
ENDBRANCH  13   6
BRANCH  17  20
ATOM     20  CB  PHE A   2      -7.636  -7.975   7.198  0.00  0.00    +0.067 C 
BRANCH  20  22
ATOM     22  CG  PHE A   2      -8.177  -7.838   5.798  0.00  0.00    -0.045 A 
ATOM     25  CD1 PHE A   2      -9.442  -7.301   5.605  0.00  0.00    +0.004 A 
ATOM     26  CD2 PHE A   2      -7.401  -8.247   4.724  0.00  0.00    +0.004 A 
ATOM     28  CE1 PHE A   2      -9.942  -7.175   4.309  0.00  0.00    +0.000 A 
ATOM     29  CE2 PHE A   2      -7.900  -8.118   3.428  0.00  0.00    +0.000 A 
ATOM     30  CZ  PHE A   2      -9.171  -7.581   3.221  0.00  0.00    +0.000 A 
ENDBRANCH  20  22
ENDBRANCH  17  20
TORSDOF 5
ENDMDL
MODEL 3
REMARK VINA RESULT:      -7.0      3.369      8.859
REMARK  Name = 11882508
REMARK  5 active torsions:
REMARK  status: ('A' for Active; 'I' for Inactive)
REMARK    1  A    between atoms: N_6  and  C_13
REMARK    2  A    between atoms: CA_17  and  CB_20
REMARK    3  A    between atoms: CB_20  and  CG_22
REMARK    4  A    between atoms: C_21  and  C_24
REMARK    5  A    between atoms: C_23  and  C_27
REMARK                            x       y       z     vdW  Elec       q    Type
REMARK                         _______ _______ _______ _____ _____    ______ ____
ROOT
ATOM      1  O   PHE A   2      -1.411 -11.021  15.396  0.00  0.00    -0.274 OA
ATOM      2  O   UNK A   1      -6.388 -11.883  13.707  0.00  0.00    -0.274 OA
ATOM      5  N   UNK A   1      -3.082 -10.694  13.807  0.00  0.00    -0.288 N 
ATOM      7  N   PHE A   2      -4.791 -12.028  15.353  0.00  0.00    -0.302 N 
ATOM     12  C   UNK A   1      -4.496 -10.366  13.610  0.00  0.00    +0.164 C 
ATOM     13  C   UNK A   1      -4.144 -11.032  11.176  0.00  0.00    +0.113 C 
ATOM     14  C   UNK A   1      -4.835 -10.053  12.146  0.00  0.00    +0.059 C 
ATOM     15  C   UNK A   1      -2.630 -11.177  11.444  0.00  0.00    +0.046 C 
ATOM     16  C   UNK A   1      -2.173 -10.432  12.696  0.00  0.00    +0.110 C 
ATOM     17  CA  PHE A   2      -3.677 -11.426  16.066  0.00  0.00    +0.163 C 
ATOM     18  C   PHE A   2      -2.595 -11.055  15.063  0.00  0.00    +0.237 C 
ATOM     19  C   UNK A   1      -5.312 -11.518  14.176  0.00  0.00    +0.234 C 
ATOM     31  H   PHE A   2      -5.303 -12.775  15.812  0.00  0.00    +0.150 HD
ENDROOT
BRANCH  13   6
ATOM      6  N   UNK A   1      -4.440 -10.710   9.773  0.00  0.00    -0.236 N 
ATOM      8  N   UNK A   1      -4.531  -9.431   9.387  0.00  0.00    -0.064 NA
ATOM      9  N   UNK A   1      -4.801  -9.438   8.086  0.00  0.00    -0.124 NA
ATOM     21  C   UNK A   1      -4.645 -11.571   8.747  0.00  0.00    +0.156 A 
ATOM     23  C   UNK A   1      -4.874 -10.740   7.679  0.00  0.00    +0.179 A 
BRANCH  21  24
ATOM      3  O   UNK A   1      -5.491 -13.678   9.406  0.00  0.00    -0.269 OA
ATOM     10  N   UNK A   1      -3.566 -13.666   8.184  0.00  0.00    -0.324 N 
ATOM     24  C   UNK A   1      -4.618 -12.996   8.821  0.00  0.00    +0.262 C 
ATOM     32  H   UNK A   1      -2.836 -13.169   7.686  0.00  0.00    +0.145 HD
ATOM     33  H   UNK A   1      -3.507 -14.678   8.201  0.00  0.00    +0.145 HD
ENDBRANCH  21  24
BRANCH  23  27
ATOM      4  O   UNK A   1      -4.371 -11.799   5.626  0.00  0.00    -0.269 OA
ATOM     11  N   UNK A   1      -6.371 -10.717   5.775  0.00  0.00    -0.324 N 
ATOM     27  C   UNK A   1      -5.150 -11.117   6.327  0.00  0.00    +0.264 C 
ATOM     34  H   UNK A   1      -7.047 -10.170   6.301  0.00  0.00    +0.145 HD
ATOM     35  H   UNK A   1      -6.619 -10.965   4.823  0.00  0.00    +0.145 HD
ENDBRANCH  23  27
ENDBRANCH  13   6
BRANCH  17  20
ATOM     20  CB  PHE A   2      -4.088 -10.253  16.942  0.00  0.00    +0.067 C 
BRANCH  20  22
ATOM     22  CG  PHE A   2      -5.271 -10.593  17.812  0.00  0.00    -0.045 A 
ATOM     25  CD1 PHE A   2      -6.528 -10.114  17.471  0.00  0.00    +0.004 A 
ATOM     26  CD2 PHE A   2      -5.085 -11.380  18.938  0.00  0.00    +0.004 A 
ATOM     28  CE1 PHE A   2      -7.622 -10.429  18.277  0.00  0.00    +0.000 A 
ATOM     29  CE2 PHE A   2      -6.180 -11.695  19.743  0.00  0.00    +0.000 A 
ATOM     30  CZ  PHE A   2      -7.449 -11.220  19.411  0.00  0.00    +0.000 A 
ENDBRANCH  20  22
ENDBRANCH  17  20
TORSDOF 5
ENDMDL
MODEL 4
REMARK VINA RESULT:      -7.0     28.857     31.218
REMARK  Name = 11882508
REMARK  5 active torsions:
REMARK  status: ('A' for Active; 'I' for Inactive)
REMARK    1  A    between atoms: N_6  and  C_13
REMARK    2  A    between atoms: CA_17  and  CB_20
REMARK    3  A    between atoms: CB_20  and  CG_22
REMARK    4  A    between atoms: C_21  and  C_24
REMARK    5  A    between atoms: C_23  and  C_27
REMARK                            x       y       z     vdW  Elec       q    Type
REMARK                         _______ _______ _______ _____ _____    ______ ____
ROOT
ATOM      1  O   PHE A   2      22.682   7.027  21.834  0.00  0.00    -0.274 OA
ATOM      2  O   UNK A   1      18.327   5.043  19.498  0.00  0.00    -0.274 OA
ATOM      5  N   UNK A   1      20.363   6.942  21.643  0.00  0.00    -0.288 N 
ATOM      7  N   PHE A   2      20.598   4.997  19.840  0.00  0.00    -0.302 N 
ATOM     12  C   UNK A   1      19.205   6.052  21.523  0.00  0.00    +0.164 C 
ATOM     13  C   UNK A   1      17.851   8.149  21.012  0.00  0.00    +0.113 C 
ATOM     14  C   UNK A   1      17.871   6.783  21.726  0.00  0.00    +0.059 C 
ATOM     15  C   UNK A   1      19.088   9.016  21.337  0.00  0.00    +0.046 C 
ATOM     16  C   UNK A   1      20.127   8.279  22.178  0.00  0.00    +0.110 C 
ATOM     17  CA  PHE A   2      21.726   5.115  20.751  0.00  0.00    +0.163 C 
ATOM     18  C   PHE A   2      21.659   6.469  21.441  0.00  0.00    +0.237 C 
ATOM     19  C   UNK A   1      19.305   5.359  20.173  0.00  0.00    +0.234 C 
ATOM     31  H   PHE A   2      20.740   4.494  18.969  0.00  0.00    +0.150 HD
ENDROOT
BRANCH  13   6
ATOM      6  N   UNK A   1      16.587   8.864  21.236  0.00  0.00    -0.236 N 
ATOM      8  N   UNK A   1      16.592  10.048  21.862  0.00  0.00    -0.064 NA
ATOM      9  N   UNK A   1      15.329  10.458  21.923  0.00  0.00    -0.124 NA
ATOM     21  C   UNK A   1      15.338   8.478  20.879  0.00  0.00    +0.156 A 
ATOM     23  C   UNK A   1      14.550   9.508  21.326  0.00  0.00    +0.179 A 
BRANCH  21  24
ATOM      3  O   UNK A   1      15.219   7.067  18.986  0.00  0.00    -0.269 OA
ATOM     10  N   UNK A   1      14.368   6.259  20.941  0.00  0.00    -0.324 N 
ATOM     24  C   UNK A   1      14.987   7.273  20.200  0.00  0.00    +0.262 C 
ATOM     32  H   UNK A   1      14.164   6.363  21.929  0.00  0.00    +0.145 HD
ATOM     33  H   UNK A   1      14.107   5.381  20.505  0.00  0.00    +0.145 HD
ENDBRANCH  21  24
BRANCH  23  27
ATOM      4  O   UNK A   1      12.552  10.114  20.216  0.00  0.00    -0.269 OA
ATOM     11  N   UNK A   1      12.348   9.154  22.273  0.00  0.00    -0.324 N 
ATOM     27  C   UNK A   1      13.128   9.629  21.214  0.00  0.00    +0.264 C 
ATOM     34  H   UNK A   1      12.761   8.742  23.104  0.00  0.00    +0.145 HD
ATOM     35  H   UNK A   1      11.336   9.209  22.240  0.00  0.00    +0.145 HD
ENDBRANCH  23  27
ENDBRANCH  13   6
BRANCH  17  20
ATOM     20  CB  PHE A   2      21.824   3.961  21.735  0.00  0.00    +0.067 C 
BRANCH  20  22
ATOM     22  CG  PHE A   2      23.095   3.172  21.548  0.00  0.00    -0.045 A 
ATOM     25  CD1 PHE A   2      23.923   3.459  20.472  0.00  0.00    +0.004 A 
ATOM     26  CD2 PHE A   2      23.418   2.174  22.455  0.00  0.00    +0.004 A 
ATOM     28  CE1 PHE A   2      25.098   2.729  20.299  0.00  0.00    +0.000 A 
ATOM     29  CE2 PHE A   2      24.594   1.445  22.281  0.00  0.00    +0.000 A 
ATOM     30  CZ  PHE A   2      25.435   1.723  21.204  0.00  0.00    +0.000 A 
ENDBRANCH  20  22
ENDBRANCH  17  20
TORSDOF 5
ENDMDL
MODEL 5
REMARK VINA RESULT:      -6.9     19.644     22.866
REMARK  Name = 11882508
REMARK  5 active torsions:
REMARK  status: ('A' for Active; 'I' for Inactive)
REMARK    1  A    between atoms: N_6  and  C_13
REMARK    2  A    between atoms: CA_17  and  CB_20
REMARK    3  A    between atoms: CB_20  and  CG_22
REMARK    4  A    between atoms: C_21  and  C_24
REMARK    5  A    between atoms: C_23  and  C_27
REMARK                            x       y       z     vdW  Elec       q    Type
REMARK                         _______ _______ _______ _____ _____    ______ ____
ROOT
ATOM      1  O   PHE A   2     -19.144   3.070  26.859  0.00  0.00    -0.274 OA
ATOM      2  O   UNK A   1     -15.388   0.662  29.765  0.00  0.00    -0.274 OA
ATOM      5  N   UNK A   1     -17.490   3.175  28.494  0.00  0.00    -0.288 N 
ATOM      7  N   PHE A   2     -16.883   0.626  28.021  0.00  0.00    -0.302 N 
ATOM     12  C   UNK A   1     -16.121   2.780  28.837  0.00  0.00    +0.164 C 
ATOM     13  C   UNK A   1     -16.654   3.580  31.197  0.00  0.00    +0.113 C 
ATOM     14  C   UNK A   1     -15.590   3.500  30.084  0.00  0.00    +0.059 C 
ATOM     15  C   UNK A   1     -18.009   4.127  30.695  0.00  0.00    +0.046 C 
ATOM     16  C   UNK A   1     -18.044   4.335  29.183  0.00  0.00    +0.110 C 
ATOM     17  CA  PHE A   2     -17.516   1.312  26.906  0.00  0.00    +0.163 C 
ATOM     18  C   PHE A   2     -18.160   2.591  27.420  0.00  0.00    +0.237 C 
ATOM     19  C   UNK A   1     -16.107   1.266  28.972  0.00  0.00    +0.234 C 
ATOM     31  H   PHE A   2     -16.892  -0.390  28.024  0.00  0.00    +0.150 HD
ENDROOT
BRANCH  13   6
ATOM      6  N   UNK A   1     -16.157   4.300  32.377  0.00  0.00    -0.236 N 
ATOM      8  N   UNK A   1     -16.635   5.517  32.666  0.00  0.00    -0.064 NA
ATOM      9  N   UNK A   1     -16.018   5.923  33.771  0.00  0.00    -0.124 NA
ATOM     21  C   UNK A   1     -15.229   3.887  33.274  0.00  0.00    +0.156 A 
ATOM     23  C   UNK A   1     -15.154   4.936  34.155  0.00  0.00    +0.179 A 
BRANCH  21  24
ATOM      3  O   UNK A   1     -13.458   2.459  32.631  0.00  0.00    -0.269 OA
ATOM     10  N   UNK A   1     -15.060   1.579  33.993  0.00  0.00    -0.324 N 
ATOM     24  C   UNK A   1     -14.529   2.643  33.255  0.00  0.00    +0.262 C 
ATOM     32  H   UNK A   1     -15.918   1.671  34.527  0.00  0.00    +0.145 HD
ATOM     33  H   UNK A   1     -14.595   0.679  34.018  0.00  0.00    +0.145 HD
ENDBRANCH  21  24
BRANCH  23  27
ATOM      4  O   UNK A   1     -13.535   5.991  35.518  0.00  0.00    -0.269 OA
ATOM     11  N   UNK A   1     -14.421   4.035  36.281  0.00  0.00    -0.324 N 
ATOM     27  C   UNK A   1     -14.323   5.041  35.315  0.00  0.00    +0.264 C 
ATOM     34  H   UNK A   1     -15.051   3.245  36.175  0.00  0.00    +0.145 HD
ATOM     35  H   UNK A   1     -13.860   4.067  37.125  0.00  0.00    +0.145 HD
ENDBRANCH  23  27
ENDBRANCH  13   6
BRANCH  17  20
ATOM     20  CB  PHE A   2     -16.572   1.560  25.741  0.00  0.00    +0.067 C 
BRANCH  20  22
ATOM     22  CG  PHE A   2     -17.301   1.563  24.422  0.00  0.00    -0.045 A 
ATOM     25  CD1 PHE A   2     -17.253   2.694  23.619  0.00  0.00    +0.004 A 
ATOM     26  CD2 PHE A   2     -18.007   0.436  24.030  0.00  0.00    +0.004 A 
ATOM     28  CE1 PHE A   2     -17.929   2.697  22.399  0.00  0.00    +0.000 A 
ATOM     29  CE2 PHE A   2     -18.681   0.439  22.809  0.00  0.00    +0.000 A 
ATOM     30  CZ  PHE A   2     -18.641   1.570  21.993  0.00  0.00    +0.000 A 
ENDBRANCH  20  22
ENDBRANCH  17  20
TORSDOF 5
ENDMDL
MODEL 6
REMARK VINA RESULT:      -6.9      1.789      2.563
REMARK  Name = 11882508
REMARK  5 active torsions:
REMARK  status: ('A' for Active; 'I' for Inactive)
REMARK    1  A    between atoms: N_6  and  C_13
REMARK    2  A    between atoms: CA_17  and  CB_20
REMARK    3  A    between atoms: CB_20  and  CG_22
REMARK    4  A    between atoms: C_21  and  C_24
REMARK    5  A    between atoms: C_23  and  C_27
REMARK                            x       y       z     vdW  Elec       q    Type
REMARK                         _______ _______ _______ _____ _____    ______ ____
ROOT
ATOM      1  O   PHE A   2      -2.838 -11.429  18.181  0.00  0.00    -0.274 OA
ATOM      2  O   UNK A   1      -6.869  -9.613  15.210  0.00  0.00    -0.274 OA
ATOM      5  N   UNK A   1      -5.124 -11.304  17.750  0.00  0.00    -0.288 N 
ATOM      7  N   PHE A   2      -4.615  -9.913  15.537  0.00  0.00    -0.302 N 
ATOM     12  C   UNK A   1      -6.149 -11.383  16.707  0.00  0.00    +0.164 C 
ATOM     13  C   UNK A   1      -7.771 -10.499  18.461  0.00  0.00    +0.113 C 
ATOM     14  C   UNK A   1      -7.571 -11.466  17.278  0.00  0.00    +0.059 C 
ATOM     15  C   UNK A   1      -6.665 -10.623  19.533  0.00  0.00    +0.046 C 
ATOM     16  C   UNK A   1      -5.542 -11.571  19.122  0.00  0.00    +0.110 C 
ATOM     17  CA  PHE A   2      -3.520 -10.760  15.982  0.00  0.00    +0.163 C 
ATOM     18  C   PHE A   2      -3.774 -11.173  17.424  0.00  0.00    +0.237 C 
ATOM     19  C   UNK A   1      -5.947 -10.194  15.781  0.00  0.00    +0.234 C 
ATOM     31  H   PHE A   2      -4.400  -9.154  14.897  0.00  0.00    +0.150 HD
ENDROOT
BRANCH  13   6
ATOM      6  N   UNK A   1      -9.122 -10.603  19.031  0.00  0.00    -0.236 N 
ATOM      8  N   UNK A   1      -9.352 -11.437  20.053  0.00  0.00    -0.064 NA
ATOM      9  N   UNK A   1     -10.640 -11.326  20.360  0.00  0.00    -0.124 NA
ATOM     21  C   UNK A   1     -10.239  -9.938  18.650  0.00  0.00    +0.156 A 
ATOM     23  C   UNK A   1     -11.197 -10.412  19.510  0.00  0.00    +0.179 A 
BRANCH  21  24
ATOM      3  O   UNK A   1     -10.977  -9.175  16.538  0.00  0.00    -0.269 OA
ATOM     10  N   UNK A   1      -9.693  -7.749  17.767  0.00  0.00    -0.324 N 
ATOM     24  C   UNK A   1     -10.335  -8.980  17.596  0.00  0.00    +0.262 C 
ATOM     32  H   UNK A   1      -9.167  -7.529  18.607  0.00  0.00    +0.145 HD
ATOM     33  H   UNK A   1      -9.739  -7.032  17.051  0.00  0.00    +0.145 HD
ENDBRANCH  21  24
BRANCH  23  27
ATOM      4  O   UNK A   1     -13.110  -9.481  20.542  0.00  0.00    -0.269 OA
ATOM     11  N   UNK A   1     -13.367 -10.319  18.438  0.00  0.00    -0.324 N 
ATOM     27  C   UNK A   1     -12.579 -10.047  19.561  0.00  0.00    +0.264 C 
ATOM     34  H   UNK A   1     -12.988 -10.767  17.610  0.00  0.00    +0.145 HD
ATOM     35  H   UNK A   1     -14.351 -10.072  18.420  0.00  0.00    +0.145 HD
ENDBRANCH  23  27
ENDBRANCH  13   6
BRANCH  17  20
ATOM     20  CB  PHE A   2      -3.273 -11.950  15.068  0.00  0.00    +0.067 C 
BRANCH  20  22
ATOM     22  CG  PHE A   2      -3.159 -11.532  13.625  0.00  0.00    -0.045 A 
ATOM     25  CD1 PHE A   2      -2.085 -10.749  13.224  0.00  0.00    +0.004 A 
ATOM     26  CD2 PHE A   2      -4.127 -11.938  12.719  0.00  0.00    +0.004 A 
ATOM     28  CE1 PHE A   2      -1.980 -10.363  11.888  0.00  0.00    +0.000 A 
ATOM     29  CE2 PHE A   2      -4.021 -11.552  11.383  0.00  0.00    +0.000 A 
ATOM     30  CZ  PHE A   2      -2.947 -10.765  10.967  0.00  0.00    +0.000 A 
ENDBRANCH  20  22
ENDBRANCH  17  20
TORSDOF 5
ENDMDL
MODEL 7
REMARK VINA RESULT:      -6.9     19.140     20.361
REMARK  Name = 11882508
REMARK  5 active torsions:
REMARK  status: ('A' for Active; 'I' for Inactive)
REMARK    1  A    between atoms: N_6  and  C_13
REMARK    2  A    between atoms: CA_17  and  CB_20
REMARK    3  A    between atoms: CB_20  and  CG_22
REMARK    4  A    between atoms: C_21  and  C_24
REMARK    5  A    between atoms: C_23  and  C_27
REMARK                            x       y       z     vdW  Elec       q    Type
REMARK                         _______ _______ _______ _____ _____    ______ ____
ROOT
ATOM      1  O   PHE A   2     -11.692   7.256  21.234  0.00  0.00    -0.274 OA
ATOM      2  O   UNK A   1     -16.939   7.774  21.984  0.00  0.00    -0.274 OA
ATOM      5  N   UNK A   1     -13.786   6.285  21.543  0.00  0.00    -0.288 N 
ATOM      7  N   PHE A   2     -14.899   8.703  21.481  0.00  0.00    -0.302 N 
ATOM     12  C   UNK A   1     -15.192   6.320  21.132  0.00  0.00    +0.164 C 
ATOM     13  C   UNK A   1     -15.631   4.730  23.074  0.00  0.00    +0.113 C 
ATOM     14  C   UNK A   1     -15.984   5.099  21.620  0.00  0.00    +0.059 C 
ATOM     15  C   UNK A   1     -14.108   4.618  23.314  0.00  0.00    +0.046 C 
ATOM     16  C   UNK A   1     -13.283   5.034  22.099  0.00  0.00    +0.110 C 
ATOM     17  CA  PHE A   2     -13.620   8.611  20.795  0.00  0.00    +0.163 C 
ATOM     18  C   PHE A   2     -12.920   7.334  21.235  0.00  0.00    +0.237 C 
ATOM     19  C   UNK A   1     -15.773   7.640  21.618  0.00  0.00    +0.234 C 
ATOM     31  H   PHE A   2     -15.230   9.625  21.749  0.00  0.00    +0.150 HD
ENDROOT
BRANCH  13   6
ATOM      6  N   UNK A   1     -16.362   3.540  23.529  0.00  0.00    -0.236 N 
ATOM      8  N   UNK A   1     -16.684   2.580  22.653  0.00  0.00    -0.064 NA
ATOM      9  N   UNK A   1     -17.330   1.638  23.331  0.00  0.00    -0.124 NA
ATOM     21  C   UNK A   1     -16.785   3.252  24.784  0.00  0.00    +0.156 A 
ATOM     23  C   UNK A   1     -17.400   2.034  24.638  0.00  0.00    +0.179 A 
BRANCH  21  24
ATOM      3  O   UNK A   1     -17.197   5.149  26.132  0.00  0.00    -0.269 OA
ATOM     10  N   UNK A   1     -15.727   3.603  26.935  0.00  0.00    -0.324 N 
ATOM     24  C   UNK A   1     -16.603   4.062  25.945  0.00  0.00    +0.262 C 
ATOM     32  H   UNK A   1     -15.225   2.726  26.845  0.00  0.00    +0.145 HD
ATOM     33  H   UNK A   1     -15.571   4.139  27.782  0.00  0.00    +0.145 HD
ENDBRANCH  21  24
BRANCH  23  27
ATOM      4  O   UNK A   1     -19.262   1.278  25.883  0.00  0.00    -0.269 OA
ATOM     11  N   UNK A   1     -17.230   0.391  26.409  0.00  0.00    -0.324 N 
ATOM     27  C   UNK A   1     -18.033   1.250  25.654  0.00  0.00    +0.264 C 
ATOM     34  H   UNK A   1     -16.227   0.320  26.260  0.00  0.00    +0.145 HD
ATOM     35  H   UNK A   1     -17.630  -0.192  27.136  0.00  0.00    +0.145 HD
ENDBRANCH  23  27
ENDBRANCH  13   6
BRANCH  17  20
ATOM     20  CB  PHE A   2     -13.741   8.720  19.284  0.00  0.00    +0.067 C 
BRANCH  20  22
ATOM     22  CG  PHE A   2     -12.414   9.018  18.637  0.00  0.00    -0.045 A 
ATOM     25  CD1 PHE A   2     -11.959   8.205  17.608  0.00  0.00    +0.004 A 
ATOM     26  CD2 PHE A   2     -11.668  10.101  19.078  0.00  0.00    +0.004 A 
ATOM     28  CE1 PHE A   2     -10.730   8.482  17.009  0.00  0.00    +0.000 A 
ATOM     29  CE2 PHE A   2     -10.439  10.377  18.478  0.00  0.00    +0.000 A 
ATOM     30  CZ  PHE A   2      -9.971   9.568  17.443  0.00  0.00    +0.000 A 
ENDBRANCH  20  22
ENDBRANCH  17  20
TORSDOF 5
ENDMDL
MODEL 8
REMARK VINA RESULT:      -6.8      3.091      9.449
REMARK  Name = 11882508
REMARK  5 active torsions:
REMARK  status: ('A' for Active; 'I' for Inactive)
REMARK    1  A    between atoms: N_6  and  C_13
REMARK    2  A    between atoms: CA_17  and  CB_20
REMARK    3  A    between atoms: CB_20  and  CG_22
REMARK    4  A    between atoms: C_21  and  C_24
REMARK    5  A    between atoms: C_23  and  C_27
REMARK                            x       y       z     vdW  Elec       q    Type
REMARK                         _______ _______ _______ _____ _____    ______ ____
ROOT
ATOM      1  O   PHE A   2     -11.564  -8.656  17.785  0.00  0.00    -0.274 OA
ATOM      2  O   UNK A   1      -7.735 -11.553  20.089  0.00  0.00    -0.274 OA
ATOM      5  N   UNK A   1      -9.657  -9.981  17.602  0.00  0.00    -0.288 N 
ATOM      7  N   PHE A   2      -9.724 -10.412  20.228  0.00  0.00    -0.302 N 
ATOM     12  C   UNK A   1      -9.013 -11.216  18.053  0.00  0.00    +0.164 C 
ATOM     13  C   UNK A   1      -6.903 -10.335  16.928  0.00  0.00    +0.113 C 
ATOM     14  C   UNK A   1      -7.771 -11.574  17.225  0.00  0.00    +0.059 C 
ATOM     15  C   UNK A   1      -7.717  -9.157  16.347  0.00  0.00    +0.046 C 
ATOM     16  C   UNK A   1      -9.220  -9.424  16.326  0.00  0.00    +0.110 C 
ATOM     17  CA  PHE A   2     -11.009 -10.067  19.642  0.00  0.00    +0.163 C 
ATOM     18  C   PHE A   2     -10.773  -9.468  18.263  0.00  0.00    +0.237 C 
ATOM     19  C   UNK A   1      -8.715 -11.057  19.536  0.00  0.00    +0.234 C 
ATOM     31  H   PHE A   2      -9.614 -10.302  21.232  0.00  0.00    +0.150 HD
ENDROOT
BRANCH  13   6
ATOM      6  N   UNK A   1      -5.733 -10.672  16.105  0.00  0.00    -0.236 N 
ATOM      8  N   UNK A   1      -5.650 -10.221  14.847  0.00  0.00    -0.064 NA
ATOM      9  N   UNK A   1      -4.503 -10.672  14.350  0.00  0.00    -0.124 NA
ATOM     21  C   UNK A   1      -4.657 -11.418  16.455  0.00  0.00    +0.156 A 
ATOM     23  C   UNK A   1      -3.884 -11.406  15.322  0.00  0.00    +0.179 A 
BRANCH  21  24
ATOM      3  O   UNK A   1      -4.090 -11.422  18.750  0.00  0.00    -0.269 OA
ATOM     10  N   UNK A   1      -4.640 -13.425  17.812  0.00  0.00    -0.324 N 
ATOM     24  C   UNK A   1      -4.437 -12.043  17.719  0.00  0.00    +0.262 C 
ATOM     32  H   UNK A   1      -4.931 -13.981  17.014  0.00  0.00    +0.145 HD
ATOM     33  H   UNK A   1      -4.504 -13.914  18.690  0.00  0.00    +0.145 HD
ENDBRANCH  21  24
BRANCH  23  27
ATOM      4  O   UNK A   1      -1.522 -11.446  15.220  0.00  0.00    -0.269 OA
ATOM     11  N   UNK A   1      -2.612 -13.410  14.839  0.00  0.00    -0.324 N 
ATOM     27  C   UNK A   1      -2.617 -12.042  15.126  0.00  0.00    +0.264 C 
ATOM     34  H   UNK A   1      -3.471 -13.948  14.761  0.00  0.00    +0.145 HD
ATOM     35  H   UNK A   1      -1.741 -13.910  14.699  0.00  0.00    +0.145 HD
ENDBRANCH  23  27
ENDBRANCH  13   6
BRANCH  17  20
ATOM     20  CB  PHE A   2     -11.987 -11.231  19.613  0.00  0.00    +0.067 C 
BRANCH  20  22
ATOM     22  CG  PHE A   2     -13.280 -10.892  20.309  0.00  0.00    -0.045 A 
ATOM     25  CD1 PHE A   2     -13.791  -9.605  20.209  0.00  0.00    +0.004 A 
ATOM     26  CD2 PHE A   2     -13.940 -11.871  21.037  0.00  0.00    +0.004 A 
ATOM     28  CE1 PHE A   2     -14.988  -9.292  20.854  0.00  0.00    +0.000 A 
ATOM     29  CE2 PHE A   2     -15.137 -11.557  21.680  0.00  0.00    +0.000 A 
ATOM     30  CZ  PHE A   2     -15.661 -10.268  21.588  0.00  0.00    +0.000 A 
ENDBRANCH  20  22
ENDBRANCH  17  20
TORSDOF 5
ENDMDL
MODEL 9
REMARK VINA RESULT:      -6.8     19.843     22.291
REMARK  Name = 11882508
REMARK  5 active torsions:
REMARK  status: ('A' for Active; 'I' for Inactive)
REMARK    1  A    between atoms: N_6  and  C_13
REMARK    2  A    between atoms: CA_17  and  CB_20
REMARK    3  A    between atoms: CB_20  and  CG_22
REMARK    4  A    between atoms: C_21  and  C_24
REMARK    5  A    between atoms: C_23  and  C_27
REMARK                            x       y       z     vdW  Elec       q    Type
REMARK                         _______ _______ _______ _____ _____    ______ ____
ROOT
ATOM      1  O   PHE A   2       8.787 -12.354  32.299  0.00  0.00    -0.274 OA
ATOM      2  O   UNK A   1       6.242  -7.826  31.122  0.00  0.00    -0.274 OA
ATOM      5  N   UNK A   1       7.678 -10.429  32.997  0.00  0.00    -0.288 N 
ATOM      7  N   PHE A   2       7.162  -9.823  30.456  0.00  0.00    -0.302 N 
ATOM     12  C   UNK A   1       6.504  -9.580  32.779  0.00  0.00    +0.164 C 
ATOM     13  C   UNK A   1       7.637  -7.896  34.319  0.00  0.00    +0.113 C 
ATOM     14  C   UNK A   1       6.305  -8.545  33.894  0.00  0.00    +0.059 C 
ATOM     15  C   UNK A   1       8.739  -8.934  34.627  0.00  0.00    +0.046 C 
ATOM     16  C   UNK A   1       8.316 -10.365  34.308  0.00  0.00    +0.110 C 
ATOM     17  CA  PHE A   2       7.387 -11.238  30.705  0.00  0.00    +0.163 C 
ATOM     18  C   PHE A   2       8.050 -11.397  32.065  0.00  0.00    +0.237 C 
ATOM     19  C   UNK A   1       6.649  -8.952  31.401  0.00  0.00    +0.234 C 
ATOM     31  H   PHE A   2       7.252  -9.487  29.502  0.00  0.00    +0.150 HD
ENDROOT
BRANCH  13   6
ATOM      6  N   UNK A   1       7.450  -6.930  35.410  0.00  0.00    -0.236 N 
ATOM      8  N   UNK A   1       7.197  -7.367  36.651  0.00  0.00    -0.064 NA
ATOM      9  N   UNK A   1       7.077  -6.291  37.422  0.00  0.00    -0.124 NA
ATOM     21  C   UNK A   1       7.501  -5.578  35.343  0.00  0.00    +0.156 A 
ATOM     23  C   UNK A   1       7.261  -5.188  36.636  0.00  0.00    +0.179 A 
BRANCH  21  24
ATOM      3  O   UNK A   1       8.887  -4.645  33.670  0.00  0.00    -0.269 OA
ATOM     10  N   UNK A   1       6.657  -4.189  33.546  0.00  0.00    -0.324 N 
ATOM     24  C   UNK A   1       7.750  -4.798  34.173  0.00  0.00    +0.262 C 
ATOM     32  H   UNK A   1       5.711  -4.286  33.900  0.00  0.00    +0.145 HD
ATOM     33  H   UNK A   1       6.781  -3.632  32.708  0.00  0.00    +0.145 HD
ENDBRANCH  21  24
BRANCH  23  27
ATOM      4  O   UNK A   1       8.143  -3.303  37.759  0.00  0.00    -0.269 OA
ATOM     11  N   UNK A   1       6.031  -3.122  36.922  0.00  0.00    -0.324 N 
ATOM     27  C   UNK A   1       7.201  -3.853  37.146  0.00  0.00    +0.264 C 
ATOM     34  H   UNK A   1       5.238  -3.513  36.423  0.00  0.00    +0.145 HD
ATOM     35  H   UNK A   1       5.940  -2.168  37.256  0.00  0.00    +0.145 HD
ENDBRANCH  23  27
ENDBRANCH  13   6
BRANCH  17  20
ATOM     20  CB  PHE A   2       6.129 -12.079  30.566  0.00  0.00    +0.067 C 
BRANCH  20  22
ATOM     22  CG  PHE A   2       6.286 -13.154  29.522  0.00  0.00    -0.045 A 
ATOM     25  CD1 PHE A   2       7.437 -13.188  28.746  0.00  0.00    +0.004 A 
ATOM     26  CD2 PHE A   2       5.281 -14.094  29.353  0.00  0.00    +0.004 A 
ATOM     28  CE1 PHE A   2       7.582 -14.183  27.780  0.00  0.00    +0.000 A 
ATOM     29  CE2 PHE A   2       5.427 -15.089  28.387  0.00  0.00    +0.000 A 
ATOM     30  CZ  PHE A   2       6.579 -15.134  27.601  0.00  0.00    +0.000 A 
ENDBRANCH  20  22
ENDBRANCH  17  20
TORSDOF 5
ENDMDL
MODEL 10
REMARK VINA RESULT:      -6.7     24.951     28.722
REMARK  Name = 11882508
REMARK  5 active torsions:
REMARK  status: ('A' for Active; 'I' for Inactive)
REMARK    1  A    between atoms: N_6  and  C_13
REMARK    2  A    between atoms: CA_17  and  CB_20
REMARK    3  A    between atoms: CB_20  and  CG_22
REMARK    4  A    between atoms: C_21  and  C_24
REMARK    5  A    between atoms: C_23  and  C_27
REMARK                            x       y       z     vdW  Elec       q    Type
REMARK                         _______ _______ _______ _____ _____    ______ ____
ROOT
ATOM      1  O   PHE A   2       9.593   7.985   3.582  0.00  0.00    -0.274 OA
ATOM      2  O   UNK A   1      12.211   3.602   2.066  0.00  0.00    -0.274 OA
ATOM      5  N   UNK A   1      10.072   6.389   1.955  0.00  0.00    -0.288 N 
ATOM      7  N   PHE A   2      11.574   5.070   3.715  0.00  0.00    -0.302 N 
ATOM     12  C   UNK A   1      10.230   4.955   1.698  0.00  0.00    +0.164 C 
ATOM     13  C   UNK A   1      11.169   5.633  -0.572  0.00  0.00    +0.113 C 
ATOM     14  C   UNK A   1      10.295   4.625   0.200  0.00  0.00    +0.059 C 
ATOM     15  C   UNK A   1      10.796   7.103  -0.277  0.00  0.00    +0.046 C 
ATOM     16  C   UNK A   1       9.743   7.241   0.818  0.00  0.00    +0.110 C 
ATOM     17  CA  PHE A   2      10.546   5.909   4.309  0.00  0.00    +0.163 C 
ATOM     18  C   PHE A   2      10.043   6.887   3.258  0.00  0.00    +0.237 C 
ATOM     19  C   UNK A   1      11.460   4.490   2.463  0.00  0.00    +0.234 C 
ATOM     31  H   PHE A   2      12.350   4.779   4.302  0.00  0.00    +0.150 HD
ENDROOT
BRANCH  13   6
ATOM      6  N   UNK A   1      11.202   5.337  -2.011  0.00  0.00    -0.236 N 
ATOM      8  N   UNK A   1      10.352   5.958  -2.839  0.00  0.00    -0.064 NA
ATOM      9  N   UNK A   1      10.604   5.505  -4.063  0.00  0.00    -0.124 NA
ATOM     21  C   UNK A   1      12.018   4.475  -2.665  0.00  0.00    +0.156 A 
ATOM     23  C   UNK A   1      11.621   4.596  -3.973  0.00  0.00    +0.179 A 
BRANCH  21  24
ATOM      3  O   UNK A   1      12.793   2.689  -1.325  0.00  0.00    -0.269 OA
ATOM     10  N   UNK A   1      14.367   3.954  -2.382  0.00  0.00    -0.324 N 
ATOM     24  C   UNK A   1      13.032   3.660  -2.079  0.00  0.00    +0.262 C 
ATOM     32  H   UNK A   1      14.623   4.721  -2.995  0.00  0.00    +0.145 HD
ATOM     33  H   UNK A   1      15.123   3.399  -1.997  0.00  0.00    +0.145 HD
ENDBRANCH  21  24
BRANCH  23  27
ATOM      4  O   UNK A   1      13.341   3.995  -5.479  0.00  0.00    -0.269 OA
ATOM     11  N   UNK A   1      11.285   3.077  -5.829  0.00  0.00    -0.324 N 
ATOM     27  C   UNK A   1      12.149   3.909  -5.111  0.00  0.00    +0.264 C 
ATOM     34  H   UNK A   1      10.310   2.960  -5.570  0.00  0.00    +0.145 HD
ATOM     35  H   UNK A   1      11.612   2.561  -6.639  0.00  0.00    +0.145 HD
ENDBRANCH  23  27
ENDBRANCH  13   6
BRANCH  17  20
ATOM     20  CB  PHE A   2       9.421   5.115   4.953  0.00  0.00    +0.067 C 
BRANCH  20  22
ATOM     22  CG  PHE A   2       9.419   5.264   6.453  0.00  0.00    -0.045 A 
ATOM     25  CD1 PHE A   2       9.795   4.188   7.246  0.00  0.00    +0.004 A 
ATOM     26  CD2 PHE A   2       9.045   6.474   7.018  0.00  0.00    +0.004 A 
ATOM     28  CE1 PHE A   2       9.792   4.327   8.634  0.00  0.00    +0.000 A 
ATOM     29  CE2 PHE A   2       9.044   6.612   8.405  0.00  0.00    +0.000 A 
ATOM     30  CZ  PHE A   2       9.418   5.538   9.213  0.00  0.00    +0.000 A 
ENDBRANCH  20  22
ENDBRANCH  17  20
TORSDOF 5
ENDMDL
