MODEL 1
REMARK VINA RESULT:      -8.3      0.000      0.000
REMARK  Name = 45784031
REMARK  3 active torsions:
REMARK  status: ('A' for Active; 'I' for Inactive)
REMARK    1  A    between atoms: S_1  and  N_4
REMARK    2  A    between atoms: S_1  and  C_13
REMARK    3  A    between atoms: C_8  and  C_12
REMARK                            x       y       z     vdW  Elec       q    Type
REMARK                         _______ _______ _______ _____ _____    ______ ____
ROOT
ATOM      4  N   UNL     1      12.831   8.365  20.169  0.00  0.00    -0.176 NA
ATOM      8  C   UNL     1      11.628   8.537  22.259  0.00  0.00    +0.072 C 
ATOM      9  C   UNL     1      13.017   8.291  21.648  0.00  0.00    +0.120 C 
ATOM     10  C   UNL     1      10.679   8.150  21.122  0.00  0.00    +0.029 C 
ATOM     11  C   UNL     1      11.402   8.625  19.870  0.00  0.00    +0.110 C 
ENDROOT
BRANCH   8  12
ATOM      5  N   UNL     1      11.259  10.193  24.117  0.00  0.00    -0.342 N 
ATOM      6  N   UNL     1      11.155  11.018  22.056  0.00  0.00    -0.232 NA
ATOM     12  C   UNL     1      11.344   9.936  22.777  0.00  0.00    +0.113 A 
ATOM     14  C   UNL     1      10.997  11.530  24.272  0.00  0.00    +0.066 A 
ATOM     15  C   UNL     1      10.937  12.023  22.971  0.00  0.00    +0.089 A 
ATOM     19  C   UNL     1      10.812  12.327  25.402  0.00  0.00    +0.028 A 
ATOM     20  C   UNL     1      10.678  13.390  22.767  0.00  0.00    +0.030 A 
ATOM     23  C   UNL     1      10.557  13.684  25.181  0.00  0.00    +0.002 A 
ATOM     24  C   UNL     1      10.491  14.208  23.888  0.00  0.00    +0.002 A 
ATOM     28  H   UNL     1      11.371   9.520  24.864  0.00  0.00    +0.167 HD
ENDBRANCH   8  12
BRANCH   4   1
ATOM      1  S   UNL     1      14.009   9.142  19.231  0.00  0.00    +0.063 S 
ATOM      2  O   UNL     1      14.252  10.467  19.777  0.00  0.00    -0.153 OA
ATOM      3  O   UNL     1      13.678   8.980  17.826  0.00  0.00    -0.153 OA
BRANCH   1  13
ATOM      7  N   UNL     1      16.353   9.854  20.932  0.00  0.00    -0.253 NA
ATOM     13  C   UNL     1      15.411   8.145  19.580  0.00  0.00    +0.131 A 
ATOM     16  C   UNL     1      16.432   8.620  20.399  0.00  0.00    +0.097 A 
ATOM     17  C   UNL     1      15.462   6.870  19.012  0.00  0.00    +0.031 A 
ATOM     18  C   UNL     1      17.535   7.773  20.644  0.00  0.00    +0.002 A 
ATOM     21  C   UNL     1      16.550   6.042  19.257  0.00  0.00    +0.003 A 
ATOM     22  C   UNL     1      17.586   6.491  20.071  0.00  0.00    +0.010 A 
ATOM     25  C   UNL     1      18.564   8.251  21.467  0.00  0.00    +0.011 A 
ATOM     26  C   UNL     1      17.366  10.277  21.721  0.00  0.00    +0.111 A 
ATOM     27  C   UNL     1      18.484   9.522  22.017  0.00  0.00    +0.020 A 
ENDBRANCH   1  13
ENDBRANCH   4   1
TORSDOF 3
ENDMDL
MODEL 2
REMARK VINA RESULT:      -8.1     27.036     29.278
REMARK  Name = 45784031
REMARK  3 active torsions:
REMARK  status: ('A' for Active; 'I' for Inactive)
REMARK    1  A    between atoms: S_1  and  N_4
REMARK    2  A    between atoms: S_1  and  C_13
REMARK    3  A    between atoms: C_8  and  C_12
REMARK                            x       y       z     vdW  Elec       q    Type
REMARK                         _______ _______ _______ _____ _____    ______ ____
ROOT
ATOM      4  N   UNL     1      -5.812 -11.385  17.262  0.00  0.00    -0.176 NA
ATOM      8  C   UNL     1      -6.938 -10.862  19.338  0.00  0.00    +0.072 C 
ATOM      9  C   UNL     1      -6.068 -10.267  18.218  0.00  0.00    +0.120 C 
ATOM     10  C   UNL     1      -6.626 -12.358  19.257  0.00  0.00    +0.029 C 
ATOM     11  C   UNL     1      -6.470 -12.615  17.765  0.00  0.00    +0.110 C 
ENDROOT
BRANCH   8  12
ATOM      5  N   UNL     1      -8.974  -9.884  18.229  0.00  0.00    -0.342 N 
ATOM      6  N   UNL     1      -9.344 -10.985  20.124  0.00  0.00    -0.232 NA
ATOM     12  C   UNL     1      -8.431 -10.595  19.263  0.00  0.00    +0.113 A 
ATOM     14  C   UNL     1     -10.327  -9.810  18.436  0.00  0.00    +0.066 A 
ATOM     15  C   UNL     1     -10.533 -10.504  19.626  0.00  0.00    +0.089 A 
ATOM     19  C   UNL     1     -11.357  -9.211  17.710  0.00  0.00    +0.028 A 
ATOM     20  C   UNL     1     -11.838 -10.620  20.134  0.00  0.00    +0.030 A 
ATOM     23  C   UNL     1     -12.649  -9.338  18.230  0.00  0.00    +0.002 A 
ATOM     24  C   UNL     1     -12.889 -10.029  19.420  0.00  0.00    +0.002 A 
ATOM     28  H   UNL     1      -8.470  -9.484  17.448  0.00  0.00    +0.167 HD
ENDBRANCH   8  12
BRANCH   4   1
ATOM      1  S   UNL     1      -5.851 -11.067  15.599  0.00  0.00    +0.063 S 
ATOM      2  O   UNL     1      -6.527  -9.800  15.373  0.00  0.00    -0.153 OA
ATOM      3  O   UNL     1      -6.288 -12.263  14.899  0.00  0.00    -0.153 OA
BRANCH   1  13
ATOM      7  N   UNL     1      -4.563 -10.624  12.946  0.00  0.00    -0.253 NA
ATOM     13  C   UNL     1      -4.141 -10.836  15.272  0.00  0.00    +0.131 A 
ATOM     16  C   UNL     1      -3.689 -10.639  13.970  0.00  0.00    +0.097 A 
ATOM     17  C   UNL     1      -3.263 -10.858  16.357  0.00  0.00    +0.031 A 
ATOM     18  C   UNL     1      -2.304 -10.460  13.769  0.00  0.00    +0.002 A 
ATOM     21  C   UNL     1      -1.900 -10.681  16.152  0.00  0.00    +0.003 A 
ATOM     22  C   UNL     1      -1.420 -10.482  14.861  0.00  0.00    +0.010 A 
ATOM     25  C   UNL     1      -1.848 -10.262  12.459  0.00  0.00    +0.011 A 
ATOM     26  C   UNL     1      -4.082 -10.429  11.697  0.00  0.00    +0.111 A 
ATOM     27  C   UNL     1      -2.747 -10.245  11.402  0.00  0.00    +0.020 A 
ENDBRANCH   1  13
ENDBRANCH   4   1
TORSDOF 3
ENDMDL
MODEL 3
REMARK VINA RESULT:      -8.0      2.213      3.161
REMARK  Name = 45784031
REMARK  3 active torsions:
REMARK  status: ('A' for Active; 'I' for Inactive)
REMARK    1  A    between atoms: S_1  and  N_4
REMARK    2  A    between atoms: S_1  and  C_13
REMARK    3  A    between atoms: C_8  and  C_12
REMARK                            x       y       z     vdW  Elec       q    Type
REMARK                         _______ _______ _______ _____ _____    ______ ____
ROOT
ATOM      4  N   UNL     1      13.579   6.903  20.077  0.00  0.00    -0.176 NA
ATOM      8  C   UNL     1      12.342   7.893  21.904  0.00  0.00    +0.072 C 
ATOM      9  C   UNL     1      13.673   7.219  21.533  0.00  0.00    +0.120 C 
ATOM     10  C   UNL     1      11.388   7.389  20.818  0.00  0.00    +0.029 C 
ATOM     11  C   UNL     1      12.256   7.339  19.569  0.00  0.00    +0.110 C 
ENDROOT
BRANCH   8  12
ATOM      5  N   UNL     1      13.284  10.076  22.726  0.00  0.00    -0.342 N 
ATOM      6  N   UNL     1      11.492  10.230  21.421  0.00  0.00    -0.232 NA
ATOM     12  C   UNL     1      12.341   9.409  21.995  0.00  0.00    +0.113 A 
ATOM     14  C   UNL     1      13.026  11.418  22.617  0.00  0.00    +0.066 A 
ATOM     15  C   UNL     1      11.902  11.488  21.797  0.00  0.00    +0.089 A 
ATOM     19  C   UNL     1      13.658  12.542  23.149  0.00  0.00    +0.028 A 
ATOM     20  C   UNL     1      11.365  12.747  21.479  0.00  0.00    +0.030 A 
ATOM     23  C   UNL     1      13.110  13.786  22.821  0.00  0.00    +0.002 A 
ATOM     24  C   UNL     1      11.984  13.890  22.001  0.00  0.00    +0.002 A 
ATOM     28  H   UNL     1      14.040   9.658  23.252  0.00  0.00    +0.167 HD
ENDBRANCH   8  12
BRANCH   4   1
ATOM      1  S   UNL     1      14.941   7.139  19.097  0.00  0.00    +0.063 S 
ATOM      2  O   UNL     1      14.506   7.416  17.739  0.00  0.00    -0.153 OA
ATOM      3  O   UNL     1      15.898   6.076  19.355  0.00  0.00    -0.153 OA
BRANCH   1  13
ATOM      7  N   UNL     1      13.973   9.914  18.598  0.00  0.00    -0.253 NA
ATOM     13  C   UNL     1      15.579   8.625  19.779  0.00  0.00    +0.131 A 
ATOM     16  C   UNL     1      15.016   9.855  19.447  0.00  0.00    +0.097 A 
ATOM     17  C   UNL     1      16.660   8.527  20.657  0.00  0.00    +0.031 A 
ATOM     18  C   UNL     1      15.571  11.016  20.026  0.00  0.00    +0.002 A 
ATOM     21  C   UNL     1      17.203   9.675  21.223  0.00  0.00    +0.003 A 
ATOM     22  C   UNL     1      16.660  10.918  20.909  0.00  0.00    +0.010 A 
ATOM     25  C   UNL     1      15.006  12.254  19.693  0.00  0.00    +0.011 A 
ATOM     26  C   UNL     1      13.457  11.129  18.303  0.00  0.00    +0.111 A 
ATOM     27  C   UNL     1      13.931  12.318  18.818  0.00  0.00    +0.020 A 
ENDBRANCH   1  13
ENDBRANCH   4   1
TORSDOF 3
ENDMDL
MODEL 4
REMARK VINA RESULT:      -7.8      2.152      4.592
REMARK  Name = 45784031
REMARK  3 active torsions:
REMARK  status: ('A' for Active; 'I' for Inactive)
REMARK    1  A    between atoms: S_1  and  N_4
REMARK    2  A    between atoms: S_1  and  C_13
REMARK    3  A    between atoms: C_8  and  C_12
REMARK                            x       y       z     vdW  Elec       q    Type
REMARK                         _______ _______ _______ _____ _____    ______ ____
ROOT
ATOM      4  N   UNL     1      16.513   8.132  20.168  0.00  0.00    -0.176 NA
ATOM      8  C   UNL     1      16.220  10.481  20.664  0.00  0.00    +0.072 C 
ATOM      9  C   UNL     1      16.099   9.426  19.550  0.00  0.00    +0.120 C 
ATOM     10  C   UNL     1      17.227   9.849  21.627  0.00  0.00    +0.029 C 
ATOM     11  C   UNL     1      16.888   8.366  21.583  0.00  0.00    +0.110 C 
ENDROOT
BRANCH   8  12
ATOM      5  N   UNL     1      13.857  11.345  20.676  0.00  0.00    -0.342 N 
ATOM      6  N   UNL     1      14.707  10.836  22.665  0.00  0.00    -0.232 NA
ATOM     12  C   UNL     1      14.937  10.880  21.372  0.00  0.00    +0.113 A 
ATOM     14  C   UNL     1      12.863  11.619  21.579  0.00  0.00    +0.066 A 
ATOM     15  C   UNL     1      13.418  11.293  22.814  0.00  0.00    +0.089 A 
ATOM     19  C   UNL     1      11.565  12.111  21.427  0.00  0.00    +0.028 A 
ATOM     20  C   UNL     1      12.646  11.460  23.976  0.00  0.00    +0.030 A 
ATOM     23  C   UNL     1      10.813  12.270  22.595  0.00  0.00    +0.002 A 
ATOM     24  C   UNL     1      11.341  11.951  23.848  0.00  0.00    +0.002 A 
ATOM     28  H   UNL     1      13.798  11.465  19.673  0.00  0.00    +0.167 HD
ENDBRANCH   8  12
BRANCH   4   1
ATOM      1  S   UNL     1      15.652   6.726  19.780  0.00  0.00    +0.063 S 
ATOM      2  O   UNL     1      15.303   6.029  21.006  0.00  0.00    -0.153 OA
ATOM      3  O   UNL     1      16.348   6.025  18.714  0.00  0.00    -0.153 OA
BRANCH   1  13
ATOM      7  N   UNL     1      13.207   7.559  21.268  0.00  0.00    -0.253 NA
ATOM     13  C   UNL     1      14.185   7.418  19.110  0.00  0.00    +0.131 A 
ATOM     16  C   UNL     1      13.120   7.758  19.940  0.00  0.00    +0.097 A 
ATOM     17  C   UNL     1      14.128   7.612  17.728  0.00  0.00    +0.031 A 
ATOM     18  C   UNL     1      11.965   8.311  19.344  0.00  0.00    +0.002 A 
ATOM     21  C   UNL     1      12.988   8.156  17.149  0.00  0.00    +0.003 A 
ATOM     22  C   UNL     1      11.908   8.506  17.954  0.00  0.00    +0.010 A 
ATOM     25  C   UNL     1      10.893   8.653  20.179  0.00  0.00    +0.011 A 
ATOM     26  C   UNL     1      12.150   7.903  22.038  0.00  0.00    +0.111 A 
ATOM     27  C   UNL     1      10.980   8.449  21.548  0.00  0.00    +0.020 A 
ENDBRANCH   1  13
ENDBRANCH   4   1
TORSDOF 3
ENDMDL
MODEL 5
REMARK VINA RESULT:      -7.6     27.742     29.190
REMARK  Name = 45784031
REMARK  3 active torsions:
REMARK  status: ('A' for Active; 'I' for Inactive)
REMARK    1  A    between atoms: S_1  and  N_4
REMARK    2  A    between atoms: S_1  and  C_13
REMARK    3  A    between atoms: C_8  and  C_12
REMARK                            x       y       z     vdW  Elec       q    Type
REMARK                         _______ _______ _______ _____ _____    ______ ____
ROOT
ATOM      4  N   UNL     1      -5.172 -11.078  15.597  0.00  0.00    -0.176 NA
ATOM      8  C   UNL     1      -5.664 -10.559  17.908  0.00  0.00    +0.072 C 
ATOM      9  C   UNL     1      -5.288  -9.936  16.552  0.00  0.00    +0.120 C 
ATOM     10  C   UNL     1      -5.165 -11.999  17.774  0.00  0.00    +0.029 C 
ATOM     11  C   UNL     1      -5.444 -12.344  16.318  0.00  0.00    +0.110 C 
ENDROOT
BRANCH   8  12
ATOM      5  N   UNL     1      -8.027  -9.752  17.602  0.00  0.00    -0.342 N 
ATOM      6  N   UNL     1      -7.694 -11.133  19.310  0.00  0.00    -0.232 NA
ATOM     12  C   UNL     1      -7.129 -10.505  18.305  0.00  0.00    +0.113 A 
ATOM     14  C   UNL     1      -9.255  -9.904  18.193  0.00  0.00    +0.066 A 
ATOM     15  C   UNL     1      -9.021 -10.771  19.257  0.00  0.00    +0.089 A 
ATOM     19  C   UNL     1     -10.512  -9.373  17.899  0.00  0.00    +0.028 A 
ATOM     20  C   UNL     1     -10.093 -11.141  20.087  0.00  0.00    +0.030 A 
ATOM     23  C   UNL     1     -11.566  -9.754  18.735  0.00  0.00    +0.002 A 
ATOM     24  C   UNL     1     -11.364 -10.622  19.810  0.00  0.00    +0.002 A 
ATOM     28  H   UNL     1      -7.826  -9.184  16.789  0.00  0.00    +0.167 HD
ENDBRANCH   8  12
BRANCH   4   1
ATOM      1  S   UNL     1      -5.774 -10.895  14.024  0.00  0.00    +0.063 S 
ATOM      2  O   UNL     1      -6.582  -9.688  13.962  0.00  0.00    -0.153 OA
ATOM      3  O   UNL     1      -6.322 -12.164  13.577  0.00  0.00    -0.153 OA
BRANCH   1  13
ATOM      7  N   UNL     1      -5.497  -9.696  11.308  0.00  0.00    -0.253 NA
ATOM     13  C   UNL     1      -4.287 -10.600  13.139  0.00  0.00    +0.131 A 
ATOM     16  C   UNL     1      -4.320 -10.029  11.870  0.00  0.00    +0.097 A 
ATOM     17  C   UNL     1      -3.084 -10.957  13.751  0.00  0.00    +0.031 A 
ATOM     18  C   UNL     1      -3.093  -9.816  11.207  0.00  0.00    +0.002 A 
ATOM     21  C   UNL     1      -1.879 -10.744  13.092  0.00  0.00    +0.003 A 
ATOM     22  C   UNL     1      -1.882 -10.175  11.822  0.00  0.00    +0.010 A 
ATOM     25  C   UNL     1      -3.124  -9.241   9.929  0.00  0.00    +0.011 A 
ATOM     26  C   UNL     1      -5.484  -9.144  10.074  0.00  0.00    +0.111 A 
ATOM     27  C   UNL     1      -4.336  -8.897   9.348  0.00  0.00    +0.020 A 
ENDBRANCH   1  13
ENDBRANCH   4   1
TORSDOF 3
ENDMDL
MODEL 6
REMARK VINA RESULT:      -7.5      2.224      5.013
REMARK  Name = 45784031
REMARK  3 active torsions:
REMARK  status: ('A' for Active; 'I' for Inactive)
REMARK    1  A    between atoms: S_1  and  N_4
REMARK    2  A    between atoms: S_1  and  C_13
REMARK    3  A    between atoms: C_8  and  C_12
REMARK                            x       y       z     vdW  Elec       q    Type
REMARK                         _______ _______ _______ _____ _____    ______ ____
ROOT
ATOM      4  N   UNL     1      14.199   7.887  19.440  0.00  0.00    -0.176 NA
ATOM      8  C   UNL     1      16.014   9.021  20.566  0.00  0.00    +0.072 C 
ATOM      9  C   UNL     1      15.179   9.000  19.274  0.00  0.00    +0.120 C 
ATOM     10  C   UNL     1      15.857   7.595  21.098  0.00  0.00    +0.029 C 
ATOM     11  C   UNL     1      14.419   7.236  20.753  0.00  0.00    +0.110 C 
ENDROOT
BRANCH   8  12
ATOM      5  N   UNL     1      15.996  11.368  21.472  0.00  0.00    -0.342 N 
ATOM      6  N   UNL     1      14.958   9.847  22.716  0.00  0.00    -0.232 NA
ATOM     12  C   UNL     1      15.636  10.056  21.611  0.00  0.00    +0.113 A 
ATOM     14  C   UNL     1      15.517  12.050  22.560  0.00  0.00    +0.066 A 
ATOM     15  C   UNL     1      14.874  11.079  23.322  0.00  0.00    +0.089 A 
ATOM     19  C   UNL     1      15.591  13.393  22.934  0.00  0.00    +0.028 A 
ATOM     20  C   UNL     1      14.261  11.451  24.531  0.00  0.00    +0.030 A 
ATOM     23  C   UNL     1      14.976  13.745  24.139  0.00  0.00    +0.002 A 
ATOM     24  C   UNL     1      14.322  12.794  24.925  0.00  0.00    +0.002 A 
ATOM     28  H   UNL     1      16.519  11.767  20.704  0.00  0.00    +0.167 HD
ENDBRANCH   8  12
BRANCH   4   1
ATOM      1  S   UNL     1      12.608   8.109  18.901  0.00  0.00    +0.063 S 
ATOM      2  O   UNL     1      12.043   6.818  18.544  0.00  0.00    -0.153 OA
ATOM      3  O   UNL     1      12.580   9.206  17.949  0.00  0.00    -0.153 OA
BRANCH   1  13
ATOM      7  N   UNL     1      12.545  10.881  19.995  0.00  0.00    -0.253 NA
ATOM     13  C   UNL     1      11.836   8.650  20.381  0.00  0.00    +0.131 A 
ATOM     16  C   UNL     1      11.893   9.988  20.762  0.00  0.00    +0.097 A 
ATOM     17  C   UNL     1      11.168   7.696  21.154  0.00  0.00    +0.031 A 
ATOM     18  C   UNL     1      11.254  10.364  21.963  0.00  0.00    +0.002 A 
ATOM     21  C   UNL     1      10.541   8.074  22.335  0.00  0.00    +0.003 A 
ATOM     22  C   UNL     1      10.583   9.405  22.740  0.00  0.00    +0.010 A 
ATOM     25  C   UNL     1      11.312  11.710  22.348  0.00  0.00    +0.011 A 
ATOM     26  C   UNL     1      12.577  12.171  20.401  0.00  0.00    +0.111 A 
ATOM     27  C   UNL     1      11.982  12.633  21.558  0.00  0.00    +0.020 A 
ENDBRANCH   1  13
ENDBRANCH   4   1
TORSDOF 3
ENDMDL
MODEL 7
REMARK VINA RESULT:      -7.4      2.135      4.740
REMARK  Name = 45784031
REMARK  3 active torsions:
REMARK  status: ('A' for Active; 'I' for Inactive)
REMARK    1  A    between atoms: S_1  and  N_4
REMARK    2  A    between atoms: S_1  and  C_13
REMARK    3  A    between atoms: C_8  and  C_12
REMARK                            x       y       z     vdW  Elec       q    Type
REMARK                         _______ _______ _______ _____ _____    ______ ____
ROOT
ATOM      4  N   UNL     1      16.226   8.565  20.316  0.00  0.00    -0.176 NA
ATOM      8  C   UNL     1      15.806  10.867  20.925  0.00  0.00    +0.072 C 
ATOM      9  C   UNL     1      15.561   9.812  19.834  0.00  0.00    +0.120 C 
ATOM     10  C   UNL     1      17.054  10.340  21.638  0.00  0.00    +0.029 C 
ATOM     11  C   UNL     1      16.866   8.830  21.626  0.00  0.00    +0.110 C 
ENDROOT
BRANCH   8  12
ATOM      5  N   UNL     1      13.367  11.124  21.484  0.00  0.00    -0.342 N 
ATOM      6  N   UNL     1      14.776  11.371  23.184  0.00  0.00    -0.232 NA
ATOM     12  C   UNL     1      14.669  11.126  21.898  0.00  0.00    +0.113 A 
ATOM     14  C   UNL     1      12.580  11.384  22.576  0.00  0.00    +0.066 A 
ATOM     15  C   UNL     1      13.483  11.535  23.625  0.00  0.00    +0.089 A 
ATOM     19  C   UNL     1      11.198  11.499  22.732  0.00  0.00    +0.028 A 
ATOM     20  C   UNL     1      12.995  11.817  24.912  0.00  0.00    +0.030 A 
ATOM     23  C   UNL     1      10.731  11.779  24.020  0.00  0.00    +0.002 A 
ATOM     24  C   UNL     1      11.612  11.935  25.093  0.00  0.00    +0.002 A 
ATOM     28  H   UNL     1      13.038  10.957  20.542  0.00  0.00    +0.167 HD
ENDBRANCH   8  12
BRANCH   4   1
ATOM      1  S   UNL     1      15.450   7.078  20.079  0.00  0.00    +0.063 S 
ATOM      2  O   UNL     1      15.812   6.176  21.160  0.00  0.00    -0.153 OA
ATOM      3  O   UNL     1      15.624   6.668  18.696  0.00  0.00    -0.153 OA
BRANCH   1  13
ATOM      7  N   UNL     1      13.528   7.963  17.978  0.00  0.00    -0.253 NA
ATOM     13  C   UNL     1      13.773   7.547  20.302  0.00  0.00    +0.131 A 
ATOM     16  C   UNL     1      12.997   7.939  19.215  0.00  0.00    +0.097 A 
ATOM     17  C   UNL     1      13.253   7.511  21.598  0.00  0.00    +0.031 A 
ATOM     18  C   UNL     1      11.655   8.306  19.456  0.00  0.00    +0.002 A 
ATOM     21  C   UNL     1      11.932   7.874  21.828  0.00  0.00    +0.003 A 
ATOM     22  C   UNL     1      11.133   8.271  20.759  0.00  0.00    +0.010 A 
ATOM     25  C   UNL     1      10.873   8.702  18.362  0.00  0.00    +0.011 A 
ATOM     26  C   UNL     1      12.740   8.350  16.950  0.00  0.00    +0.111 A 
ATOM     27  C   UNL     1      11.418   8.726  17.086  0.00  0.00    +0.020 A 
ENDBRANCH   1  13
ENDBRANCH   4   1
TORSDOF 3
ENDMDL
MODEL 8
REMARK VINA RESULT:      -7.4     27.577     29.722
REMARK  Name = 45784031
REMARK  3 active torsions:
REMARK  status: ('A' for Active; 'I' for Inactive)
REMARK    1  A    between atoms: S_1  and  N_4
REMARK    2  A    between atoms: S_1  and  C_13
REMARK    3  A    between atoms: C_8  and  C_12
REMARK                            x       y       z     vdW  Elec       q    Type
REMARK                         _______ _______ _______ _____ _____    ______ ____
ROOT
ATOM      4  N   UNL     1      -4.233 -14.694  13.635  0.00  0.00    -0.176 NA
ATOM      8  C   UNL     1      -4.754 -15.403  15.888  0.00  0.00    +0.072 C 
ATOM      9  C   UNL     1      -3.601 -15.001  14.953  0.00  0.00    +0.120 C 
ATOM     10  C   UNL     1      -5.842 -15.861  14.914  0.00  0.00    +0.029 C 
ATOM     11  C   UNL     1      -5.697 -14.909  13.736  0.00  0.00    +0.110 C 
ENDROOT
BRANCH   8  12
ATOM      5  N   UNL     1      -4.410 -13.631  17.641  0.00  0.00    -0.342 N 
ATOM      6  N   UNL     1      -6.516 -13.979  17.023  0.00  0.00    -0.232 NA
ATOM     12  C   UNL     1      -5.265 -14.339  16.844  0.00  0.00    +0.113 A 
ATOM     14  C   UNL     1      -5.158 -12.755  18.384  0.00  0.00    +0.066 A 
ATOM     15  C   UNL     1      -6.469 -12.991  17.980  0.00  0.00    +0.089 A 
ATOM     19  C   UNL     1      -4.812 -11.806  19.347  0.00  0.00    +0.028 A 
ATOM     20  C   UNL     1      -7.509 -12.245  18.560  0.00  0.00    +0.030 A 
ATOM     23  C   UNL     1      -5.859 -11.072  19.912  0.00  0.00    +0.002 A 
ATOM     24  C   UNL     1      -7.185 -11.285  19.527  0.00  0.00    +0.002 A 
ATOM     28  H   UNL     1      -3.404 -13.732  17.677  0.00  0.00    +0.167 HD
ENDBRANCH   8  12
BRANCH   4   1
ATOM      1  S   UNL     1      -3.668 -13.369  12.743  0.00  0.00    +0.063 S 
ATOM      2  O   UNL     1      -4.767 -12.813  11.972  0.00  0.00    -0.153 OA
ATOM      3  O   UNL     1      -2.426 -13.738  12.085  0.00  0.00    -0.153 OA
BRANCH   1  13
ATOM      7  N   UNL     1      -5.571 -11.634  14.245  0.00  0.00    -0.253 NA
ATOM     13  C   UNL     1      -3.288 -12.245  14.037  0.00  0.00    +0.131 A 
ATOM     16  C   UNL     1      -4.293 -11.499  14.645  0.00  0.00    +0.097 A 
ATOM     17  C   UNL     1      -1.952 -12.130  14.427  0.00  0.00    +0.031 A 
ATOM     18  C   UNL     1      -3.927 -10.611  15.679  0.00  0.00    +0.002 A 
ATOM     21  C   UNL     1      -1.598 -11.253  15.446  0.00  0.00    +0.003 A 
ATOM     22  C   UNL     1      -2.583 -10.495  16.072  0.00  0.00    +0.010 A 
ATOM     25  C   UNL     1      -4.939  -9.860  16.292  0.00  0.00    +0.011 A 
ATOM     26  C   UNL     1      -6.518 -10.891  14.863  0.00  0.00    +0.111 A 
ATOM     27  C   UNL     1      -6.257  -9.997  15.882  0.00  0.00    +0.020 A 
ENDBRANCH   1  13
ENDBRANCH   4   1
TORSDOF 3
ENDMDL
MODEL 9
REMARK VINA RESULT:      -7.2     17.309     19.676
REMARK  Name = 45784031
REMARK  3 active torsions:
REMARK  status: ('A' for Active; 'I' for Inactive)
REMARK    1  A    between atoms: S_1  and  N_4
REMARK    2  A    between atoms: S_1  and  C_13
REMARK    3  A    between atoms: C_8  and  C_12
REMARK                            x       y       z     vdW  Elec       q    Type
REMARK                         _______ _______ _______ _____ _____    ______ ____
ROOT
ATOM      4  N   UNL     1      11.149   5.852   1.960  0.00  0.00    -0.176 NA
ATOM      8  C   UNL     1      10.281   7.342   3.656  0.00  0.00    +0.072 C 
ATOM      9  C   UNL     1       9.884   6.481   2.444  0.00  0.00    +0.120 C 
ATOM     10  C   UNL     1      11.769   7.608   3.415  0.00  0.00    +0.029 C 
ATOM     11  C   UNL     1      12.275   6.307   2.809  0.00  0.00    +0.110 C 
ENDROOT
BRANCH   8  12
ATOM      5  N   UNL     1      10.215   5.416   5.273  0.00  0.00    -0.342 N 
ATOM      6  N   UNL     1       9.629   7.392   6.104  0.00  0.00    -0.232 NA
ATOM     12  C   UNL     1      10.030   6.749   5.031  0.00  0.00    +0.113 A 
ATOM     14  C   UNL     1       9.913   5.184   6.590  0.00  0.00    +0.066 A 
ATOM     15  C   UNL     1       9.550   6.433   7.087  0.00  0.00    +0.089 A 
ATOM     19  C   UNL     1       9.924   4.024   7.366  0.00  0.00    +0.028 A 
ATOM     20  C   UNL     1       9.174   6.550   8.436  0.00  0.00    +0.030 A 
ATOM     23  C   UNL     1       9.548   4.160   8.706  0.00  0.00    +0.002 A 
ATOM     24  C   UNL     1       9.179   5.400   9.234  0.00  0.00    +0.002 A 
ATOM     28  H   UNL     1      10.522   4.723   4.603  0.00  0.00    +0.167 HD
ENDBRANCH   8  12
BRANCH   4   1
ATOM      1  S   UNL     1      11.118   4.236   1.451  0.00  0.00    +0.063 S 
ATOM      2  O   UNL     1       9.747   3.859   1.151  0.00  0.00    -0.153 OA
ATOM      3  O   UNL     1      11.911   3.437   2.369  0.00  0.00    -0.153 OA
BRANCH   1  13
ATOM      7  N   UNL     1      14.064   4.018   1.046  0.00  0.00    -0.253 NA
ATOM     13  C   UNL     1      11.994   4.356  -0.065  0.00  0.00    +0.131 A 
ATOM     16  C   UNL     1      13.380   4.232  -0.094  0.00  0.00    +0.097 A 
ATOM     17  C   UNL     1      11.254   4.578  -1.229  0.00  0.00    +0.031 A 
ATOM     18  C   UNL     1      14.030   4.337  -1.343  0.00  0.00    +0.002 A 
ATOM     21  C   UNL     1      11.900   4.681  -2.455  0.00  0.00    +0.003 A 
ATOM     22  C   UNL     1      13.286   4.561  -2.513  0.00  0.00    +0.010 A 
ATOM     25  C   UNL     1      15.426   4.213  -1.372  0.00  0.00    +0.011 A 
ATOM     26  C   UNL     1      15.409   3.903   0.973  0.00  0.00    +0.111 A 
ATOM     27  C   UNL     1      16.132   3.992  -0.199  0.00  0.00    +0.020 A 
ENDBRANCH   1  13
ENDBRANCH   4   1
TORSDOF 3
ENDMDL
MODEL 10
REMARK VINA RESULT:      -7.2     27.768     29.948
REMARK  Name = 45784031
REMARK  3 active torsions:
REMARK  status: ('A' for Active; 'I' for Inactive)
REMARK    1  A    between atoms: S_1  and  N_4
REMARK    2  A    between atoms: S_1  and  C_13
REMARK    3  A    between atoms: C_8  and  C_12
REMARK                            x       y       z     vdW  Elec       q    Type
REMARK                         _______ _______ _______ _____ _____    ______ ____
ROOT
ATOM      4  N   UNL     1      -4.334 -10.425  10.047  0.00  0.00    -0.176 NA
ATOM      8  C   UNL     1      -2.811 -10.953  11.850  0.00  0.00    +0.072 C 
ATOM      9  C   UNL     1      -3.223  -9.849  10.862  0.00  0.00    +0.120 C 
ATOM     10  C   UNL     1      -3.287 -12.231  11.155  0.00  0.00    +0.029 C 
ATOM     11  C   UNL     1      -4.591 -11.816  10.489  0.00  0.00    +0.110 C 
ENDROOT
BRANCH   8  12
ATOM      5  N   UNL     1      -4.602 -10.342  13.509  0.00  0.00    -0.342 N 
ATOM      6  N   UNL     1      -2.742 -11.199  14.371  0.00  0.00    -0.232 NA
ATOM     12  C   UNL     1      -3.355 -10.846  13.265  0.00  0.00    +0.113 A 
ATOM     14  C   UNL     1      -4.808 -10.373  14.864  0.00  0.00    +0.066 A 
ATOM     15  C   UNL     1      -3.632 -10.912  15.380  0.00  0.00    +0.089 A 
ATOM     19  C   UNL     1      -5.887  -9.986  15.660  0.00  0.00    +0.028 A 
ATOM     20  C   UNL     1      -3.509 -11.083  16.770  0.00  0.00    +0.030 A 
ATOM     23  C   UNL     1      -5.747 -10.164  17.040  0.00  0.00    +0.002 A 
ATOM     24  C   UNL     1      -4.581 -10.702  17.588  0.00  0.00    +0.002 A 
ATOM     28  H   UNL     1      -5.259 -10.008  12.817  0.00  0.00    +0.167 HD
ENDBRANCH   8  12
BRANCH   4   1
ATOM      1  S   UNL     1      -5.657  -9.442   9.654  0.00  0.00    +0.063 S 
ATOM      2  O   UNL     1      -5.265  -8.048   9.775  0.00  0.00    -0.153 OA
ATOM      3  O   UNL     1      -6.834  -9.933  10.349  0.00  0.00    -0.153 OA
BRANCH   1  13
ATOM      7  N   UNL     1      -7.473  -8.106   7.702  0.00  0.00    -0.253 NA
ATOM     13  C   UNL     1      -5.837  -9.809   7.947  0.00  0.00    +0.131 A 
ATOM     16  C   UNL     1      -6.734  -9.091   7.159  0.00  0.00    +0.097 A 
ATOM     17  C   UNL     1      -5.055 -10.836   7.415  0.00  0.00    +0.031 A 
ATOM     18  C   UNL     1      -6.836  -9.431   5.793  0.00  0.00    +0.002 A 
ATOM     21  C   UNL     1      -5.162 -11.166   6.069  0.00  0.00    +0.003 A 
ATOM     22  C   UNL     1      -6.050 -10.465   5.259  0.00  0.00    +0.010 A 
ATOM     25  C   UNL     1      -7.739  -8.710   5.000  0.00  0.00    +0.011 A 
ATOM     26  C   UNL     1      -8.332  -7.434   6.902  0.00  0.00    +0.111 A 
ATOM     27  C   UNL     1      -8.501  -7.694   5.557  0.00  0.00    +0.020 A 
ENDBRANCH   1  13
ENDBRANCH   4   1
TORSDOF 3
ENDMDL
